MODEL 1
REMARK VINA RESULT:      -7.7      0.000      0.000
REMARK  Name = 
REMARK  10 active torsions:
REMARK  status: ('A' for Active; 'I' for Inactive)
REMARK    1  A    between atoms: N_1  and  C_2
REMARK    2  A    between atoms: C_2  and  C_3
REMARK    3  A    between atoms: C_3  and  C_4
REMARK    4  A    between atoms: C_4  and  C_5
REMARK    5  A    between atoms: C_5  and  C_6
REMARK    6  A    between atoms: C_6  and  N_7
REMARK    7  A    between atoms: C_6  and  C_8
REMARK    8  A    between atoms: N_10  and  C_11
REMARK    9  A    between atoms: C_11  and  C_12
REMARK   10  A    between atoms: C_12  and  N_13
REMARK                            x       y       z     vdW  Elec       q    Type
REMARK                         _______ _______ _______ _____ _____    ______ ____
ROOT
ATOM      1  N   UNL     1       3.355   6.460  17.821  0.00  0.00    +0.000 N 
ATOM      2  C   UNL     1       2.576   7.157  18.732  0.00  0.00    +0.000 A 
ATOM      3  C   UNL     1       2.110   6.533  19.896  0.00  0.00    +0.000 A 
ATOM      4  C   UNL     1       2.393   5.205  20.190  0.00  0.00    +0.000 A 
ATOM      5  C   UNL     1       1.999   4.609  21.404  0.00  0.00    +0.000 A 
ATOM      6  C   UNL     1       2.293   3.277  21.665  0.00  0.00    +0.000 A 
ATOM      7  C   UNL     1       2.956   2.511  20.711  0.00  0.00    +0.000 A 
ATOM      8  C   UNL     1       3.361   3.089  19.500  0.00  0.00    +0.000 A 
ATOM      9  C   UNL     1       3.108   4.455  19.236  0.00  0.00    +0.000 A 
ATOM     10  C   UNL     1       3.584   5.095  18.052  0.00  0.00    +0.000 A 
ATOM     11  O   UNL     1       4.216   4.429  17.254  0.00  0.00    +0.000 OA
ATOM     12  C   UNL     1       1.340   7.494  20.677  0.00  0.00    +0.000 C 
ATOM     13  O   UNL     1       0.750   7.299  21.726  0.00  0.00    +0.000 OA
ATOM     14  C   UNL     1       1.349   8.731  19.957  0.00  0.00    +0.000 A 
ATOM     15  C   UNL     1       0.734   9.915  20.345  0.00  0.00    +0.000 A 
ATOM     16  C   UNL     1       0.854  11.022  19.511  0.00  0.00    +0.000 A 
ATOM     17  C   UNL     1       1.565  10.918  18.302  0.00  0.00    +0.000 A 
ATOM     18  C   UNL     1       2.172   9.696  17.915  0.00  0.00    +0.000 A 
ATOM     19  C   UNL     1       2.073   8.583  18.777  0.00  0.00    +0.000 A 
ENDROOT
BRANCH   1  20
ATOM     20  C   UNL     1       3.989   7.098  16.635  0.00  0.00    +0.000 C 
BRANCH  20  21
ATOM     21  C   UNL     1       5.513   6.821  16.630  0.00  0.00    +0.000 C 
BRANCH  21  24
ATOM     22  C   UNL     1       6.971   5.108  15.414  0.00  0.00    +0.000 C 
ATOM     23  O   UNL     1       7.447   4.634  16.434  0.00  0.00    +0.000 OA
ATOM     24  N   UNL     1       6.082   6.149  15.458  0.00  0.00    +0.000 N 
ATOM     25  H   UNL     1       5.750   6.521  14.555  0.00  0.00    +0.000 HD
BRANCH  22  26
ATOM     26  C   UNL     1       7.353   4.496  14.077  0.00  0.00    +0.000 C 
BRANCH  26  27
ATOM     27  N   UNL     1       8.018   5.532  13.283  0.00  0.00    +0.000 NA
ATOM     28  H   UNL     1       7.671   6.481  13.560  0.00  0.00    +0.000 HD
ATOM     29  H   UNL     1       7.859   5.382  12.262  0.00  0.00    +0.000 HD
ENDBRANCH  26  27
BRANCH  26  30
ATOM     30  C   UNL     1       6.129   3.896  13.333  0.00  0.00    +0.000 C 
BRANCH  30  31
ATOM     31  C   UNL     1       6.560   2.849  12.287  0.00  0.00    +0.000 C 
BRANCH  31  32
ATOM     32  C   UNL     1       5.443   2.492  11.301  0.00  0.00    +0.000 C 
BRANCH  32  33
ATOM     33  C   UNL     1       4.199   3.339  11.601  0.00  0.00    +0.000 C 
BRANCH  33  34
ATOM     34  N   UNL     1       3.263   3.299  10.483  0.00  0.00    +0.000 NA
ATOM     35  H   UNL     1       3.372   4.182   9.934  0.00  0.00    +0.000 HD
ATOM     36  H   UNL     1       2.288   3.286  10.863  0.00  0.00    +0.000 HD
ENDBRANCH  33  34
ENDBRANCH  32  33
ENDBRANCH  31  32
ENDBRANCH  30  31
ENDBRANCH  26  30
ENDBRANCH  22  26
ENDBRANCH  21  24
ENDBRANCH  20  21
ENDBRANCH   1  20
TORSDOF 10
ENDMDL
MODEL 2
REMARK VINA RESULT:      -7.7      2.848      8.216
REMARK  Name = 
REMARK  10 active torsions:
REMARK  status: ('A' for Active; 'I' for Inactive)
REMARK    1  A    between atoms: N_1  and  C_2
REMARK    2  A    between atoms: C_2  and  C_3
REMARK    3  A    between atoms: C_3  and  C_4
REMARK    4  A    between atoms: C_4  and  C_5
REMARK    5  A    between atoms: C_5  and  C_6
REMARK    6  A    between atoms: C_6  and  N_7
REMARK    7  A    between atoms: C_6  and  C_8
REMARK    8  A    between atoms: N_10  and  C_11
REMARK    9  A    between atoms: C_11  and  C_12
REMARK   10  A    between atoms: C_12  and  N_13
REMARK                            x       y       z     vdW  Elec       q    Type
REMARK                         _______ _______ _______ _____ _____    ______ ____
ROOT
ATOM      1  N   UNL     1       3.211   6.520  18.451  0.00  0.00    +0.000 N 
ATOM      2  C   UNL     1       3.789   5.476  17.745  0.00  0.00    +0.000 A 
ATOM      3  C   UNL     1       3.554   4.147  18.119  0.00  0.00    +0.000 A 
ATOM      4  C   UNL     1       2.750   3.812  19.201  0.00  0.00    +0.000 A 
ATOM      5  C   UNL     1       2.445   2.473  19.519  0.00  0.00    +0.000 A 
ATOM      6  C   UNL     1       1.643   2.172  20.610  0.00  0.00    +0.000 A 
ATOM      7  C   UNL     1       1.157   3.194  21.420  0.00  0.00    +0.000 A 
ATOM      8  C   UNL     1       1.446   4.531  21.117  0.00  0.00    +0.000 A 
ATOM      9  C   UNL     1       2.226   4.858  19.983  0.00  0.00    +0.000 A 
ATOM     10  C   UNL     1       2.464   6.212  19.597  0.00  0.00    +0.000 A 
ATOM     11  O   UNL     1       1.982   7.097  20.279  0.00  0.00    +0.000 OA
ATOM     12  C   UNL     1       4.263   3.261  17.202  0.00  0.00    +0.000 C 
ATOM     13  O   UNL     1       4.323   2.043  17.240  0.00  0.00    +0.000 OA
ATOM     14  C   UNL     1       4.939   4.087  16.249  0.00  0.00    +0.000 A 
ATOM     15  C   UNL     1       5.732   3.652  15.195  0.00  0.00    +0.000 A 
ATOM     16  C   UNL     1       6.309   4.608  14.367  0.00  0.00    +0.000 A 
ATOM     17  C   UNL     1       6.099   5.976  14.621  0.00  0.00    +0.000 A 
ATOM     18  C   UNL     1       5.301   6.402  15.712  0.00  0.00    +0.000 A 
ATOM     19  C   UNL     1       4.692   5.428  16.533  0.00  0.00    +0.000 A 
ENDROOT
BRANCH   1  20
ATOM     20  C   UNL     1       3.312   7.944  18.027  0.00  0.00    +0.000 C 
BRANCH  20  21
ATOM     21  C   UNL     1       1.905   8.509  17.713  0.00  0.00    +0.000 C 
BRANCH  21  24
ATOM     22  C   UNL     1       1.323  10.710  18.877  0.00  0.00    +0.000 C 
ATOM     23  O   UNL     1       2.011  11.402  18.143  0.00  0.00    +0.000 OA
ATOM     24  N   UNL     1       1.263   9.349  18.728  0.00  0.00    +0.000 N 
ATOM     25  H   UNL     1       0.688   8.828  19.407  0.00  0.00    +0.000 HD
BRANCH  22  26
ATOM     26  C   UNL     1       0.490  11.390  19.950  0.00  0.00    +0.000 C 
BRANCH  26  27
ATOM     27  N   UNL     1       1.406  12.094  20.850  0.00  0.00    +0.000 NA
ATOM     28  H   UNL     1       2.120  11.431  21.234  0.00  0.00    +0.000 HD
ATOM     29  H   UNL     1       0.887  12.546  21.635  0.00  0.00    +0.000 HD
ENDBRANCH  26  27
BRANCH  26  30
ATOM     30  C   UNL     1      -0.416  10.387  20.716  0.00  0.00    +0.000 C 
BRANCH  30  31
ATOM     31  C   UNL     1       0.029  10.229  22.183  0.00  0.00    +0.000 C 
BRANCH  31  32
ATOM     32  C   UNL     1      -1.088  10.536  23.185  0.00  0.00    +0.000 C 
BRANCH  32  33
ATOM     33  C   UNL     1      -1.613  11.959  22.953  0.00  0.00    +0.000 C 
BRANCH  33  34
ATOM     34  N   UNL     1      -0.564  12.943  23.193  0.00  0.00    +0.000 NA
ATOM     35  H   UNL     1      -0.667  13.709  22.488  0.00  0.00    +0.000 HD
ATOM     36  H   UNL     1       0.364  12.490  23.028  0.00  0.00    +0.000 HD
ENDBRANCH  33  34
ENDBRANCH  32  33
ENDBRANCH  31  32
ENDBRANCH  30  31
ENDBRANCH  26  30
ENDBRANCH  22  26
ENDBRANCH  21  24
ENDBRANCH  20  21
ENDBRANCH   1  20
TORSDOF 10
ENDMDL
MODEL 3
REMARK VINA RESULT:      -7.7      2.911      7.374
REMARK  Name = 
REMARK  10 active torsions:
REMARK  status: ('A' for Active; 'I' for Inactive)
REMARK    1  A    between atoms: N_1  and  C_2
REMARK    2  A    between atoms: C_2  and  C_3
REMARK    3  A    between atoms: C_3  and  C_4
REMARK    4  A    between atoms: C_4  and  C_5
REMARK    5  A    between atoms: C_5  and  C_6
REMARK    6  A    between atoms: C_6  and  N_7
REMARK    7  A    between atoms: C_6  and  C_8
REMARK    8  A    between atoms: N_10  and  C_11
REMARK    9  A    between atoms: C_11  and  C_12
REMARK   10  A    between atoms: C_12  and  N_13
REMARK                            x       y       z     vdW  Elec       q    Type
REMARK                         _______ _______ _______ _____ _____    ______ ____
ROOT
ATOM      1  N   UNL     1       3.262   6.432  18.562  0.00  0.00    +0.000 N 
ATOM      2  C   UNL     1       3.838   5.400  17.836  0.00  0.00    +0.000 A 
ATOM      3  C   UNL     1       3.599   4.065  18.185  0.00  0.00    +0.000 A 
ATOM      4  C   UNL     1       2.794   3.711  19.260  0.00  0.00    +0.000 A 
ATOM      5  C   UNL     1       2.485   2.368  19.552  0.00  0.00    +0.000 A 
ATOM      6  C   UNL     1       1.681   2.048  20.638  0.00  0.00    +0.000 A 
ATOM      7  C   UNL     1       1.199   3.056  21.467  0.00  0.00    +0.000 A 
ATOM      8  C   UNL     1       1.492   4.398  21.190  0.00  0.00    +0.000 A 
ATOM      9  C   UNL     1       2.273   4.745  20.063  0.00  0.00    +0.000 A 
ATOM     10  C   UNL     1       2.515   6.104  19.703  0.00  0.00    +0.000 A 
ATOM     11  O   UNL     1       2.035   6.978  20.401  0.00  0.00    +0.000 OA
ATOM     12  C   UNL     1       4.305   3.195  17.251  0.00  0.00    +0.000 C 
ATOM     13  O   UNL     1       4.361   1.976  17.266  0.00  0.00    +0.000 OA
ATOM     14  C   UNL     1       4.983   4.037  16.314  0.00  0.00    +0.000 A 
ATOM     15  C   UNL     1       5.775   3.620  15.252  0.00  0.00    +0.000 A 
ATOM     16  C   UNL     1       6.355   4.591  14.442  0.00  0.00    +0.000 A 
ATOM     17  C   UNL     1       6.149   5.954  14.722  0.00  0.00    +0.000 A 
ATOM     18  C   UNL     1       5.352   6.361  15.821  0.00  0.00    +0.000 A 
ATOM     19  C   UNL     1       4.740   5.374  16.623  0.00  0.00    +0.000 A 
ENDROOT
BRANCH   1  20
ATOM     20  C   UNL     1       3.368   7.864  18.166  0.00  0.00    +0.000 C 
BRANCH  20  21
ATOM     21  C   UNL     1       2.060   8.325  17.475  0.00  0.00    +0.000 C 
BRANCH  21  24
ATOM     22  C   UNL     1       1.325  10.594  18.394  0.00  0.00    +0.000 C 
ATOM     23  O   UNL     1       2.295  11.200  17.966  0.00  0.00    +0.000 OA
ATOM     24  N   UNL     1       1.187   9.244  18.210  0.00  0.00    +0.000 N 
ATOM     25  H   UNL     1       0.359   8.796  18.631  0.00  0.00    +0.000 HD
BRANCH  22  26
ATOM     26  C   UNL     1       0.236  11.375  19.112  0.00  0.00    +0.000 C 
BRANCH  26  27
ATOM     27  N   UNL     1       0.696  11.631  20.479  0.00  0.00    +0.000 NA
ATOM     28  H   UNL     1       0.344  10.886  21.126  0.00  0.00    +0.000 HD
ATOM     29  H   UNL     1       0.376  12.568  20.813  0.00  0.00    +0.000 HD
ENDBRANCH  26  27
BRANCH  26  30
ATOM     30  C   UNL     1      -1.129  10.636  19.091  0.00  0.00    +0.000 C 
BRANCH  30  31
ATOM     31  C   UNL     1      -1.942  10.982  17.828  0.00  0.00    +0.000 C 
BRANCH  31  32
ATOM     32  C   UNL     1      -2.467   9.743  17.095  0.00  0.00    +0.000 C 
BRANCH  32  33
ATOM     33  C   UNL     1      -3.202  10.172  15.817  0.00  0.00    +0.000 C 
BRANCH  33  34
ATOM     34  N   UNL     1      -3.017  11.598  15.568  0.00  0.00    +0.000 NA
ATOM     35  H   UNL     1      -2.048  11.858  15.865  0.00  0.00    +0.000 HD
ATOM     36  H   UNL     1      -3.683  12.131  16.172  0.00  0.00    +0.000 HD
ENDBRANCH  33  34
ENDBRANCH  32  33
ENDBRANCH  31  32
ENDBRANCH  30  31
ENDBRANCH  26  30
ENDBRANCH  22  26
ENDBRANCH  21  24
ENDBRANCH  20  21
ENDBRANCH   1  20
TORSDOF 10
ENDMDL
MODEL 4
REMARK VINA RESULT:      -7.6      5.309      7.844
REMARK  Name = 
REMARK  10 active torsions:
REMARK  status: ('A' for Active; 'I' for Inactive)
REMARK    1  A    between atoms: N_1  and  C_2
REMARK    2  A    between atoms: C_2  and  C_3
REMARK    3  A    between atoms: C_3  and  C_4
REMARK    4  A    between atoms: C_4  and  C_5
REMARK    5  A    between atoms: C_5  and  C_6
REMARK    6  A    between atoms: C_6  and  N_7
REMARK    7  A    between atoms: C_6  and  C_8
REMARK    8  A    between atoms: N_10  and  C_11
REMARK    9  A    between atoms: C_11  and  C_12
REMARK   10  A    between atoms: C_12  and  N_13
REMARK                            x       y       z     vdW  Elec       q    Type
REMARK                         _______ _______ _______ _____ _____    ______ ____
ROOT
ATOM      1  N   UNL     1       0.986  11.297  19.072  0.00  0.00    +0.000 N 
ATOM      2  C   UNL     1       0.359  11.078  20.290  0.00  0.00    +0.000 A 
ATOM      3  C   UNL     1       0.428   9.825  20.912  0.00  0.00    +0.000 A 
ATOM      4  C   UNL     1       1.110   8.754  20.348  0.00  0.00    +0.000 A 
ATOM      5  C   UNL     1       1.253   7.523  21.020  0.00  0.00    +0.000 A 
ATOM      6  C   UNL     1       1.936   6.471  20.427  0.00  0.00    +0.000 A 
ATOM      7  C   UNL     1       2.460   6.615  19.146  0.00  0.00    +0.000 A 
ATOM      8  C   UNL     1       2.333   7.833  18.465  0.00  0.00    +0.000 A 
ATOM      9  C   UNL     1       1.678   8.930  19.072  0.00  0.00    +0.000 A 
ATOM     10  C   UNL     1       1.609  10.209  18.442  0.00  0.00    +0.000 A 
ATOM     11  O   UNL     1       2.125  10.340  17.348  0.00  0.00    +0.000 OA
ATOM     12  C   UNL     1      -0.295   9.880  22.177  0.00  0.00    +0.000 C 
ATOM     13  O   UNL     1      -0.482   8.971  22.968  0.00  0.00    +0.000 OA
ATOM     14  C   UNL     1      -0.810  11.209  22.316  0.00  0.00    +0.000 A 
ATOM     15  C   UNL     1      -1.561  11.695  23.377  0.00  0.00    +0.000 A 
ATOM     16  C   UNL     1      -1.974  13.023  23.337  0.00  0.00    +0.000 A 
ATOM     17  C   UNL     1      -1.646  13.828  22.231  0.00  0.00    +0.000 A 
ATOM     18  C   UNL     1      -0.893  13.308  21.148  0.00  0.00    +0.000 A 
ATOM     19  C   UNL     1      -0.450  11.969  21.205  0.00  0.00    +0.000 A 
ENDROOT
BRANCH   1  20
ATOM     20  C   UNL     1       1.062  12.636  18.424  0.00  0.00    +0.000 C 
BRANCH  20  21
ATOM     21  C   UNL     1      -0.362  13.160  18.113  0.00  0.00    +0.000 C 
BRANCH  21  24
ATOM     22  C   UNL     1      -2.523  11.800  17.982  0.00  0.00    +0.000 C 
ATOM     23  O   UNL     1      -2.932  12.148  19.080  0.00  0.00    +0.000 OA
ATOM     24  N   UNL     1      -1.314  12.229  17.501  0.00  0.00    +0.000 N 
ATOM     25  H   UNL     1      -1.020  11.866  16.582  0.00  0.00    +0.000 HD
BRANCH  22  26
ATOM     26  C   UNL     1      -3.402  10.904  17.127  0.00  0.00    +0.000 C 
BRANCH  26  27
ATOM     27  N   UNL     1      -3.155   9.517  17.531  0.00  0.00    +0.000 NA
ATOM     28  H   UNL     1      -3.318   9.404  18.559  0.00  0.00    +0.000 HD
ATOM     29  H   UNL     1      -2.181   9.225  17.294  0.00  0.00    +0.000 HD
ENDBRANCH  26  27
BRANCH  26  30
ATOM     30  C   UNL     1      -3.157  11.115  15.608  0.00  0.00    +0.000 C 
BRANCH  30  31
ATOM     31  C   UNL     1      -3.953  10.104  14.760  0.00  0.00    +0.000 C 
BRANCH  31  32
ATOM     32  C   UNL     1      -3.251   9.737  13.449  0.00  0.00    +0.000 C 
BRANCH  32  33
ATOM     33  C   UNL     1      -4.277   9.689  12.308  0.00  0.00    +0.000 C 
BRANCH  33  34
ATOM     34  N   UNL     1      -3.615   9.779  11.012  0.00  0.00    +0.000 NA
ATOM     35  H   UNL     1      -4.344   9.688  10.267  0.00  0.00    +0.000 HD
ATOM     36  H   UNL     1      -2.964   8.967  10.912  0.00  0.00    +0.000 HD
ENDBRANCH  33  34
ENDBRANCH  32  33
ENDBRANCH  31  32
ENDBRANCH  30  31
ENDBRANCH  26  30
ENDBRANCH  22  26
ENDBRANCH  21  24
ENDBRANCH  20  21
ENDBRANCH   1  20
TORSDOF 10
ENDMDL
MODEL 5
REMARK VINA RESULT:      -7.5      0.919      1.032
REMARK  Name = 
REMARK  10 active torsions:
REMARK  status: ('A' for Active; 'I' for Inactive)
REMARK    1  A    between atoms: N_1  and  C_2
REMARK    2  A    between atoms: C_2  and  C_3
REMARK    3  A    between atoms: C_3  and  C_4
REMARK    4  A    between atoms: C_4  and  C_5
REMARK    5  A    between atoms: C_5  and  C_6
REMARK    6  A    between atoms: C_6  and  N_7
REMARK    7  A    between atoms: C_6  and  C_8
REMARK    8  A    between atoms: N_10  and  C_11
REMARK    9  A    between atoms: C_11  and  C_12
REMARK   10  A    between atoms: C_12  and  N_13
REMARK                            x       y       z     vdW  Elec       q    Type
REMARK                         _______ _______ _______ _____ _____    ______ ____
ROOT
ATOM      1  N   UNL     1       3.495   6.180  17.739  0.00  0.00    +0.000 N 
ATOM      2  C   UNL     1       2.709   6.902  18.624  0.00  0.00    +0.000 A 
ATOM      3  C   UNL     1       2.218   6.304  19.791  0.00  0.00    +0.000 A 
ATOM      4  C   UNL     1       2.482   4.979  20.113  0.00  0.00    +0.000 A 
ATOM      5  C   UNL     1       2.062   4.408  21.331  0.00  0.00    +0.000 A 
ATOM      6  C   UNL     1       2.338   3.079  21.620  0.00  0.00    +0.000 A 
ATOM      7  C   UNL     1       3.007   2.289  20.691  0.00  0.00    +0.000 A 
ATOM      8  C   UNL     1       3.438   2.840  19.477  0.00  0.00    +0.000 A 
ATOM      9  C   UNL     1       3.204   4.204  19.185  0.00  0.00    +0.000 A 
ATOM     10  C   UNL     1       3.706   4.818  17.998  0.00  0.00    +0.000 A 
ATOM     11  O   UNL     1       4.344   4.131  17.222  0.00  0.00    +0.000 OA
ATOM     12  C   UNL     1       1.445   7.287  20.542  0.00  0.00    +0.000 C 
ATOM     13  O   UNL     1       0.836   7.116  21.585  0.00  0.00    +0.000 OA
ATOM     14  C   UNL     1       1.479   8.511  19.801  0.00  0.00    +0.000 A 
ATOM     15  C   UNL     1       0.870   9.707  20.157  0.00  0.00    +0.000 A 
ATOM     16  C   UNL     1       1.016  10.798  19.306  0.00  0.00    +0.000 A 
ATOM     17  C   UNL     1       1.745  10.664  18.111  0.00  0.00    +0.000 A 
ATOM     18  C   UNL     1       2.345   9.430  17.756  0.00  0.00    +0.000 A 
ATOM     19  C   UNL     1       2.221   8.333  18.636  0.00  0.00    +0.000 A 
ENDROOT
BRANCH   1  20
ATOM     20  C   UNL     1       4.155   6.791  16.551  0.00  0.00    +0.000 C 
BRANCH  20  21
ATOM     21  C   UNL     1       5.681   6.527  16.594  0.00  0.00    +0.000 C 
BRANCH  21  24
ATOM     22  C   UNL     1       7.152   5.041  15.123  0.00  0.00    +0.000 C 
ATOM     23  O   UNL     1       7.466   4.279  16.025  0.00  0.00    +0.000 OA
ATOM     24  N   UNL     1       6.339   6.120  15.350  0.00  0.00    +0.000 N 
ATOM     25  H   UNL     1       6.146   6.738  14.547  0.00  0.00    +0.000 HD
BRANCH  22  26
ATOM     26  C   UNL     1       7.649   4.751  13.717  0.00  0.00    +0.000 C 
BRANCH  26  27
ATOM     27  N   UNL     1       8.555   5.835  13.330  0.00  0.00    +0.000 NA
ATOM     28  H   UNL     1       8.197   6.318  12.473  0.00  0.00    +0.000 HD
ATOM     29  H   UNL     1       9.519   5.473  13.154  0.00  0.00    +0.000 HD
ENDBRANCH  26  27
BRANCH  26  30
ATOM     30  C   UNL     1       6.485   4.581  12.704  0.00  0.00    +0.000 C 
BRANCH  30  31
ATOM     31  C   UNL     1       5.671   3.303  12.985  0.00  0.00    +0.000 C 
BRANCH  31  32
ATOM     32  C   UNL     1       5.368   2.495  11.718  0.00  0.00    +0.000 C 
BRANCH  32  33
ATOM     33  C   UNL     1       6.612   1.696  11.306  0.00  0.00    +0.000 C 
BRANCH  33  34
ATOM     34  N   UNL     1       6.291   0.282  11.153  0.00  0.00    +0.000 NA
ATOM     35  H   UNL     1       6.156  -0.127  12.107  0.00  0.00    +0.000 HD
ATOM     36  H   UNL     1       7.110  -0.202  10.719  0.00  0.00    +0.000 HD
ENDBRANCH  33  34
ENDBRANCH  32  33
ENDBRANCH  31  32
ENDBRANCH  30  31
ENDBRANCH  26  30
ENDBRANCH  22  26
ENDBRANCH  21  24
ENDBRANCH  20  21
ENDBRANCH   1  20
TORSDOF 10
ENDMDL
MODEL 6
REMARK VINA RESULT:      -7.5      4.191      8.131
REMARK  Name = 
REMARK  10 active torsions:
REMARK  status: ('A' for Active; 'I' for Inactive)
REMARK    1  A    between atoms: N_1  and  C_2
REMARK    2  A    between atoms: C_2  and  C_3
REMARK    3  A    between atoms: C_3  and  C_4
REMARK    4  A    between atoms: C_4  and  C_5
REMARK    5  A    between atoms: C_5  and  C_6
REMARK    6  A    between atoms: C_6  and  N_7
REMARK    7  A    between atoms: C_6  and  C_8
REMARK    8  A    between atoms: N_10  and  C_11
REMARK    9  A    between atoms: C_11  and  C_12
REMARK   10  A    between atoms: C_12  and  N_13
REMARK                            x       y       z     vdW  Elec       q    Type
REMARK                         _______ _______ _______ _____ _____    ______ ____
ROOT
ATOM      1  N   UNL     1      -0.475  11.219  20.012  0.00  0.00    +0.000 N 
ATOM      2  C   UNL     1      -1.695  11.384  19.374  0.00  0.00    +0.000 A 
ATOM      3  C   UNL     1      -2.705  12.157  19.959  0.00  0.00    +0.000 A 
ATOM      4  C   UNL     1      -2.543  12.782  21.189  0.00  0.00    +0.000 A 
ATOM      5  C   UNL     1      -3.528  13.632  21.731  0.00  0.00    +0.000 A 
ATOM      6  C   UNL     1      -3.337  14.236  22.966  0.00  0.00    +0.000 A 
ATOM      7  C   UNL     1      -2.179  13.982  23.694  0.00  0.00    +0.000 A 
ATOM      8  C   UNL     1      -1.186  13.144  23.169  0.00  0.00    +0.000 A 
ATOM      9  C   UNL     1      -1.345  12.554  21.893  0.00  0.00    +0.000 A 
ATOM     10  C   UNL     1      -0.316  11.768  21.293  0.00  0.00    +0.000 A 
ATOM     11  O   UNL     1       0.718  11.604  21.913  0.00  0.00    +0.000 OA
ATOM     12  C   UNL     1      -3.863  12.178  19.073  0.00  0.00    +0.000 C 
ATOM     13  O   UNL     1      -4.941  12.716  19.268  0.00  0.00    +0.000 OA
ATOM     14  C   UNL     1      -3.533  11.395  17.921  0.00  0.00    +0.000 A 
ATOM     15  C   UNL     1      -4.352  11.152  16.827  0.00  0.00    +0.000 A 
ATOM     16  C   UNL     1      -3.853  10.363  15.795  0.00  0.00    +0.000 A 
ATOM     17  C   UNL     1      -2.559   9.819  15.888  0.00  0.00    +0.000 A 
ATOM     18  C   UNL     1      -1.744  10.064  17.022  0.00  0.00    +0.000 A 
ATOM     19  C   UNL     1      -2.242  10.889  18.054  0.00  0.00    +0.000 A 
ENDROOT
BRANCH   1  20
ATOM     20  C   UNL     1       0.683  10.522  19.386  0.00  0.00    +0.000 C 
BRANCH  20  21
ATOM     21  C   UNL     1       0.946   9.175  20.103  0.00  0.00    +0.000 C 
BRANCH  21  24
ATOM     22  C   UNL     1       2.117   6.922  19.800  0.00  0.00    +0.000 C 
ATOM     23  O   UNL     1       1.615   6.409  20.788  0.00  0.00    +0.000 OA
ATOM     24  N   UNL     1       1.853   8.221  19.456  0.00  0.00    +0.000 N 
ATOM     25  H   UNL     1       2.341   8.596  18.629  0.00  0.00    +0.000 HD
BRANCH  22  26
ATOM     26  C   UNL     1       3.024   6.077  18.921  0.00  0.00    +0.000 C 
BRANCH  26  27
ATOM     27  N   UNL     1       3.517   6.928  17.836  0.00  0.00    +0.000 NA
ATOM     28  H   UNL     1       2.859   6.895  17.021  0.00  0.00    +0.000 HD
ATOM     29  H   UNL     1       4.471   6.633  17.531  0.00  0.00    +0.000 HD
ENDBRANCH  26  27
BRANCH  26  30
ATOM     30  C   UNL     1       2.307   4.810  18.381  0.00  0.00    +0.000 C 
BRANCH  30  31
ATOM     31  C   UNL     1       2.585   3.580  19.268  0.00  0.00    +0.000 C 
BRANCH  31  32
ATOM     32  C   UNL     1       1.308   2.851  19.698  0.00  0.00    +0.000 C 
BRANCH  32  33
ATOM     33  C   UNL     1       1.185   2.882  21.228  0.00  0.00    +0.000 C 
BRANCH  33  34
ATOM     34  N   UNL     1       2.350   3.523  21.827  0.00  0.00    +0.000 NA
ATOM     35  H   UNL     1       2.721   2.892  22.575  0.00  0.00    +0.000 HD
ATOM     36  H   UNL     1       2.043   4.409  22.290  0.00  0.00    +0.000 HD
ENDBRANCH  33  34
ENDBRANCH  32  33
ENDBRANCH  31  32
ENDBRANCH  30  31
ENDBRANCH  26  30
ENDBRANCH  22  26
ENDBRANCH  21  24
ENDBRANCH  20  21
ENDBRANCH   1  20
TORSDOF 10
ENDMDL
MODEL 7
REMARK VINA RESULT:      -7.5      2.875      7.818
REMARK  Name = 
REMARK  10 active torsions:
REMARK  status: ('A' for Active; 'I' for Inactive)
REMARK    1  A    between atoms: N_1  and  C_2
REMARK    2  A    between atoms: C_2  and  C_3
REMARK    3  A    between atoms: C_3  and  C_4
REMARK    4  A    between atoms: C_4  and  C_5
REMARK    5  A    between atoms: C_5  and  C_6
REMARK    6  A    between atoms: C_6  and  N_7
REMARK    7  A    between atoms: C_6  and  C_8
REMARK    8  A    between atoms: N_10  and  C_11
REMARK    9  A    between atoms: C_11  and  C_12
REMARK   10  A    between atoms: C_12  and  N_13
REMARK                            x       y       z     vdW  Elec       q    Type
REMARK                         _______ _______ _______ _____ _____    ______ ____
ROOT
ATOM      1  N   UNL     1       3.256   6.543  18.379  0.00  0.00    +0.000 N 
ATOM      2  C   UNL     1       3.833   5.477  17.706  0.00  0.00    +0.000 A 
ATOM      3  C   UNL     1       3.590   4.160  18.116  0.00  0.00    +0.000 A 
ATOM      4  C   UNL     1       2.779   3.859  19.203  0.00  0.00    +0.000 A 
ATOM      5  C   UNL     1       2.465   2.532  19.556  0.00  0.00    +0.000 A 
ATOM      6  C   UNL     1       1.656   2.265  20.652  0.00  0.00    +0.000 A 
ATOM      7  C   UNL     1       1.172   3.312  21.431  0.00  0.00    +0.000 A 
ATOM      8  C   UNL     1       1.468   4.639  21.091  0.00  0.00    +0.000 A 
ATOM      9  C   UNL     1       2.256   4.930  19.953  0.00  0.00    +0.000 A 
ATOM     10  C   UNL     1       2.502   6.271  19.530  0.00  0.00    +0.000 A 
ATOM     11  O   UNL     1       2.021   7.178  20.185  0.00  0.00    +0.000 OA
ATOM     12  C   UNL     1       4.298   3.246  17.228  0.00  0.00    +0.000 C 
ATOM     13  O   UNL     1       4.352   2.029  17.301  0.00  0.00    +0.000 OA
ATOM     14  C   UNL     1       4.983   4.042  16.255  0.00  0.00    +0.000 A 
ATOM     15  C   UNL     1       5.779   3.573  15.218  0.00  0.00    +0.000 A 
ATOM     16  C   UNL     1       6.365   4.503  14.367  0.00  0.00    +0.000 A 
ATOM     17  C   UNL     1       6.161   5.878  14.581  0.00  0.00    +0.000 A 
ATOM     18  C   UNL     1       5.359   6.339  15.655  0.00  0.00    +0.000 A 
ATOM     19  C   UNL     1       4.741   5.392  16.500  0.00  0.00    +0.000 A 
ENDROOT
BRANCH   1  20
ATOM     20  C   UNL     1       3.366   7.955  17.916  0.00  0.00    +0.000 C 
BRANCH  20  21
ATOM     21  C   UNL     1       1.956   8.559  17.704  0.00  0.00    +0.000 C 
BRANCH  21  24
ATOM     22  C   UNL     1       1.459  10.850  18.725  0.00  0.00    +0.000 C 
ATOM     23  O   UNL     1       1.124  10.409  19.813  0.00  0.00    +0.000 OA
ATOM     24  N   UNL     1       1.832  10.019  17.701  0.00  0.00    +0.000 N 
ATOM     25  H   UNL     1       2.068  10.462  16.800  0.00  0.00    +0.000 HD
BRANCH  22  26
ATOM     26  C   UNL     1       1.495  12.356  18.528  0.00  0.00    +0.000 C 
BRANCH  26  27
ATOM     27  N   UNL     1       2.348  12.636  17.370  0.00  0.00    +0.000 NA
ATOM     28  H   UNL     1       1.902  12.275  16.494  0.00  0.00    +0.000 HD
ATOM     29  H   UNL     1       3.293  12.207  17.488  0.00  0.00    +0.000 HD
ENDBRANCH  26  27
BRANCH  26  30
ATOM     30  C   UNL     1       1.982  13.104  19.799  0.00  0.00    +0.000 C 
BRANCH  30  31
ATOM     31  C   UNL     1       2.535  14.501  19.456  0.00  0.00    +0.000 C 
BRANCH  31  32
ATOM     32  C   UNL     1       3.997  14.687  19.875  0.00  0.00    +0.000 C 
BRANCH  32  33
ATOM     33  C   UNL     1       4.857  14.973  18.636  0.00  0.00    +0.000 C 
BRANCH  33  34
ATOM     34  N   UNL     1       4.028  15.057  17.439  0.00  0.00    +0.000 NA
ATOM     35  H   UNL     1       3.356  14.255  17.451  0.00  0.00    +0.000 HD
ATOM     36  H   UNL     1       4.640  14.939  16.600  0.00  0.00    +0.000 HD
ENDBRANCH  33  34
ENDBRANCH  32  33
ENDBRANCH  31  32
ENDBRANCH  30  31
ENDBRANCH  26  30
ENDBRANCH  22  26
ENDBRANCH  21  24
ENDBRANCH  20  21
ENDBRANCH   1  20
TORSDOF 10
ENDMDL
MODEL 8
REMARK VINA RESULT:      -7.4      0.955      1.121
REMARK  Name = 
REMARK  10 active torsions:
REMARK  status: ('A' for Active; 'I' for Inactive)
REMARK    1  A    between atoms: N_1  and  C_2
REMARK    2  A    between atoms: C_2  and  C_3
REMARK    3  A    between atoms: C_3  and  C_4
REMARK    4  A    between atoms: C_4  and  C_5
REMARK    5  A    between atoms: C_5  and  C_6
REMARK    6  A    between atoms: C_6  and  N_7
REMARK    7  A    between atoms: C_6  and  C_8
REMARK    8  A    between atoms: N_10  and  C_11
REMARK    9  A    between atoms: C_11  and  C_12
REMARK   10  A    between atoms: C_12  and  N_13
REMARK                            x       y       z     vdW  Elec       q    Type
REMARK                         _______ _______ _______ _____ _____    ______ ____
ROOT
ATOM      1  N   UNL     1       3.651   6.174  17.812  0.00  0.00    +0.000 N 
ATOM      2  C   UNL     1       2.825   6.916  18.642  0.00  0.00    +0.000 A 
ATOM      3  C   UNL     1       2.284   6.347  19.802  0.00  0.00    +0.000 A 
ATOM      4  C   UNL     1       2.537   5.032  20.171  0.00  0.00    +0.000 A 
ATOM      5  C   UNL     1       2.065   4.493  21.384  0.00  0.00    +0.000 A 
ATOM      6  C   UNL     1       2.331   3.172  21.720  0.00  0.00    +0.000 A 
ATOM      7  C   UNL     1       3.043   2.361  20.842  0.00  0.00    +0.000 A 
ATOM      8  C   UNL     1       3.525   2.881  19.634  0.00  0.00    +0.000 A 
ATOM      9  C   UNL     1       3.301   4.236  19.295  0.00  0.00    +0.000 A 
ATOM     10  C   UNL     1       3.853   4.820  18.116  0.00  0.00    +0.000 A 
ATOM     11  O   UNL     1       4.526   4.115  17.387  0.00  0.00    +0.000 OA
ATOM     12  C   UNL     1       1.477   7.347  20.492  0.00  0.00    +0.000 C 
ATOM     13  O   UNL     1       0.824   7.203  21.512  0.00  0.00    +0.000 OA
ATOM     14  C   UNL     1       1.540   8.551  19.721  0.00  0.00    +0.000 A 
ATOM     15  C   UNL     1       0.914   9.755  20.018  0.00  0.00    +0.000 A 
ATOM     16  C   UNL     1       1.094  10.823  19.146  0.00  0.00    +0.000 A 
ATOM     17  C   UNL     1       1.876  10.660  17.988  0.00  0.00    +0.000 A 
ATOM     18  C   UNL     1       2.493   9.419  17.692  0.00  0.00    +0.000 A 
ATOM     19  C   UNL     1       2.333   8.346  18.595  0.00  0.00    +0.000 A 
ENDROOT
BRANCH   1  20
ATOM     20  C   UNL     1       4.361   6.756  16.639  0.00  0.00    +0.000 C 
BRANCH  20  21
ATOM     21  C   UNL     1       5.617   5.914  16.304  0.00  0.00    +0.000 C 
BRANCH  21  24
ATOM     22  C   UNL     1       6.662   4.817  14.245  0.00  0.00    +0.000 C 
ATOM     23  O   UNL     1       7.792   5.218  14.474  0.00  0.00    +0.000 OA
ATOM     24  N   UNL     1       5.609   5.139  15.060  0.00  0.00    +0.000 N 
ATOM     25  H   UNL     1       4.678   4.793  14.783  0.00  0.00    +0.000 HD
BRANCH  22  26
ATOM     26  C   UNL     1       6.439   3.910  13.046  0.00  0.00    +0.000 C 
BRANCH  26  27
ATOM     27  N   UNL     1       7.277   4.401  11.950  0.00  0.00    +0.000 NA
ATOM     28  H   UNL     1       8.138   4.861  12.329  0.00  0.00    +0.000 HD
ATOM     29  H   UNL     1       6.752   5.076  11.350  0.00  0.00    +0.000 HD
ENDBRANCH  26  27
BRANCH  26  30
ATOM     30  C   UNL     1       4.943   3.830  12.638  0.00  0.00    +0.000 C 
BRANCH  30  31
ATOM     31  C   UNL     1       4.766   3.161  11.261  0.00  0.00    +0.000 C 
BRANCH  31  32
ATOM     32  C   UNL     1       3.311   3.151  10.781  0.00  0.00    +0.000 C 
BRANCH  32  33
ATOM     33  C   UNL     1       3.226   3.757   9.374  0.00  0.00    +0.000 C 
BRANCH  33  34
ATOM     34  N   UNL     1       2.273   4.860   9.342  0.00  0.00    +0.000 NA
ATOM     35  H   UNL     1       2.399   5.426  10.214  0.00  0.00    +0.000 HD
ATOM     36  H   UNL     1       1.304   4.466   9.364  0.00  0.00    +0.000 HD
ENDBRANCH  33  34
ENDBRANCH  32  33
ENDBRANCH  31  32
ENDBRANCH  30  31
ENDBRANCH  26  30
ENDBRANCH  22  26
ENDBRANCH  21  24
ENDBRANCH  20  21
ENDBRANCH   1  20
TORSDOF 10
ENDMDL
MODEL 9
REMARK VINA RESULT:      -7.4      4.042      7.674
REMARK  Name = 
REMARK  10 active torsions:
REMARK  status: ('A' for Active; 'I' for Inactive)
REMARK    1  A    between atoms: N_1  and  C_2
REMARK    2  A    between atoms: C_2  and  C_3
REMARK    3  A    between atoms: C_3  and  C_4
REMARK    4  A    between atoms: C_4  and  C_5
REMARK    5  A    between atoms: C_5  and  C_6
REMARK    6  A    between atoms: C_6  and  N_7
REMARK    7  A    between atoms: C_6  and  C_8
REMARK    8  A    between atoms: N_10  and  C_11
REMARK    9  A    between atoms: C_11  and  C_12
REMARK   10  A    between atoms: C_12  and  N_13
REMARK                            x       y       z     vdW  Elec       q    Type
REMARK                         _______ _______ _______ _____ _____    ______ ____
ROOT
ATOM      1  N   UNL     1      -0.499  11.230  19.963  0.00  0.00    +0.000 N 
ATOM      2  C   UNL     1      -1.726  11.399  19.340  0.00  0.00    +0.000 A 
ATOM      3  C   UNL     1      -2.733  12.162  19.946  0.00  0.00    +0.000 A 
ATOM      4  C   UNL     1      -2.560  12.771  21.182  0.00  0.00    +0.000 A 
ATOM      5  C   UNL     1      -3.542  13.611  21.744  0.00  0.00    +0.000 A 
ATOM      6  C   UNL     1      -3.341  14.200  22.984  0.00  0.00    +0.000 A 
ATOM      7  C   UNL     1      -2.174  13.941  23.697  0.00  0.00    +0.000 A 
ATOM      8  C   UNL     1      -1.184  13.113  23.151  0.00  0.00    +0.000 A 
ATOM      9  C   UNL     1      -1.354  12.538  21.870  0.00  0.00    +0.000 A 
ATOM     10  C   UNL     1      -0.328  11.764  21.249  0.00  0.00    +0.000 A 
ATOM     11  O   UNL     1       0.712  11.595  21.857  0.00  0.00    +0.000 OA
ATOM     12  C   UNL     1      -3.900  12.190  19.072  0.00  0.00    +0.000 C 
ATOM     13  O   UNL     1      -4.977  12.721  19.284  0.00  0.00    +0.000 OA
ATOM     14  C   UNL     1      -3.579  11.422  17.907  0.00  0.00    +0.000 A 
ATOM     15  C   UNL     1      -4.408  11.189  16.818  0.00  0.00    +0.000 A 
ATOM     16  C   UNL     1      -3.918  10.415  15.771  0.00  0.00    +0.000 A 
ATOM     17  C   UNL     1      -2.621   9.875  15.844  0.00  0.00    +0.000 A 
ATOM     18  C   UNL     1      -1.795  10.108  16.973  0.00  0.00    +0.000 A 
ATOM     19  C   UNL     1      -2.285  10.919  18.020  0.00  0.00    +0.000 A 
ENDROOT
BRANCH   1  20
ATOM     20  C   UNL     1       0.655  10.545  19.317  0.00  0.00    +0.000 C 
BRANCH  20  21
ATOM     21  C   UNL     1       0.945   9.201  20.030  0.00  0.00    +0.000 C 
BRANCH  21  24
ATOM     22  C   UNL     1       2.163   6.974  19.717  0.00  0.00    +0.000 C 
ATOM     23  O   UNL     1       1.653   6.439  20.690  0.00  0.00    +0.000 OA
ATOM     24  N   UNL     1       1.880   8.273  19.386  0.00  0.00    +0.000 N 
ATOM     25  H   UNL     1       2.374   8.668  18.572  0.00  0.00    +0.000 HD
BRANCH  22  26
ATOM     26  C   UNL     1       3.099   6.158  18.843  0.00  0.00    +0.000 C 
BRANCH  26  27
ATOM     27  N   UNL     1       4.128   5.577  19.708  0.00  0.00    +0.000 NA
ATOM     28  H   UNL     1       4.999   5.384  19.158  0.00  0.00    +0.000 HD
ATOM     29  H   UNL     1       3.790   4.695  20.152  0.00  0.00    +0.000 HD
ENDBRANCH  26  27
BRANCH  26  30
ATOM     30  C   UNL     1       3.719   7.002  17.695  0.00  0.00    +0.000 C 
BRANCH  30  31
ATOM     31  C   UNL     1       5.111   6.478  17.294  0.00  0.00    +0.000 C 
BRANCH  31  32
ATOM     32  C   UNL     1       5.063   5.469  16.141  0.00  0.00    +0.000 C 
BRANCH  32  33
ATOM     33  C   UNL     1       6.481   5.228  15.607  0.00  0.00    +0.000 C 
BRANCH  33  34
ATOM     34  N   UNL     1       7.440   6.103  16.270  0.00  0.00    +0.000 NA
ATOM     35  H   UNL     1       6.914   6.904  16.691  0.00  0.00    +0.000 HD
ATOM     36  H   UNL     1       8.087   6.498  15.550  0.00  0.00    +0.000 HD
ENDBRANCH  33  34
ENDBRANCH  32  33
ENDBRANCH  31  32
ENDBRANCH  30  31
ENDBRANCH  26  30
ENDBRANCH  22  26
ENDBRANCH  21  24
ENDBRANCH  20  21
ENDBRANCH   1  20
TORSDOF 10
ENDMDL
