MODEL 1
REMARK VINA RESULT:      -8.9      0.000      0.000
REMARK  Name = 
REMARK  7 active torsions:
REMARK  status: ('A' for Active; 'I' for Inactive)
REMARK    1  A    between atoms: C_1  and  C_2
REMARK    2  A    between atoms: N_4  and  C_5
REMARK    3  A    between atoms: C_5  and  C_6
REMARK    4  A    between atoms: C_6  and  N_7
REMARK    5  A    between atoms: C_10  and  C_11
REMARK    6  A    between atoms: N_22  and  C_23
REMARK    7  A    between atoms: C_23  and  C_24
REMARK                            x       y       z     vdW  Elec       q    Type
REMARK                         _______ _______ _______ _____ _____    ______ ____
ROOT
ATOM      1  N   UNL     1      -0.897  11.366  20.102  0.00  0.00    +0.000 N 
ATOM      2  C   UNL     1      -1.765  12.084  20.913  0.00  0.00    +0.000 A 
ATOM      3  O   UNL     1      -2.774  12.661  20.528  0.00  0.00    +0.000 OA
ATOM      4  C   UNL     1      -1.432  12.146  22.397  0.00  0.00    +0.000 A 
ATOM      5  N   UNL     1      -0.607  11.304  22.947  0.00  0.00    +0.000 NA
ATOM      6  C   UNL     1       0.033  10.378  22.106  0.00  0.00    +0.000 A 
ATOM      7  C   UNL     1       0.804   9.388  22.701  0.00  0.00    +0.000 A 
ATOM      8  C   UNL     1       1.456   8.456  21.902  0.00  0.00    +0.000 A 
ATOM      9  C   UNL     1       1.367   8.557  20.516  0.00  0.00    +0.000 A 
ATOM     10  N   UNL     1       2.108   7.631  19.777  0.00  0.00    +0.000 N 
ATOM     11  N   UNL     1       0.630   9.514  19.916  0.00  0.00    +0.000 NA
ATOM     12  C   UNL     1      -0.039  10.401  20.704  0.00  0.00    +0.000 A 
ATOM     13  H   UNL     1       1.778   6.688  19.945  0.00  0.00    +0.000 HD
ENDROOT
BRANCH   4  14
ATOM     14  C   UNL     1      -2.085  13.186  23.229  0.00  0.00    +0.000 A 
ATOM     15  C   UNL     1      -1.470  14.427  23.402  0.00  0.00    +0.000 A 
ATOM     16  C   UNL     1      -2.092  15.393  24.192  0.00  0.00    +0.000 A 
ATOM     17  C   UNL     1      -3.316  15.087  24.764  0.00  0.00    +0.000 A 
ATOM     18  N   UNL     1      -3.947  13.906  24.601  0.00  0.00    +0.000 NA
ATOM     19  C   UNL     1      -3.319  12.979  23.836  0.00  0.00    +0.000 A 
ENDBRANCH   4  14
BRANCH   1  20
ATOM     20  C   UNL     1      -1.091  11.346  18.649  0.00  0.00    +0.000 C 
BRANCH  20  21
ATOM     21  C   UNL     1      -2.138  10.317  18.171  0.00  0.00    +0.000 C 
BRANCH  21  25
ATOM     22  C   UNL     1      -2.969  10.149  14.497  0.00  0.00    +0.000 C 
ATOM     23  C   UNL     1      -3.090  10.621  15.918  0.00  0.00    +0.000 C 
ATOM     24  O   UNL     1      -3.960  11.396  16.294  0.00  0.00    +0.000 OA
ATOM     25  N   UNL     1      -2.123  10.094  16.740  0.00  0.00    +0.000 N 
ATOM     26  H   UNL     1      -1.504   9.379  16.377  0.00  0.00    +0.000 HD
ENDBRANCH  21  25
ENDBRANCH  20  21
ENDBRANCH   1  20
BRANCH  10  27
ATOM     27  C   UNL     1       2.325   7.919  18.370  0.00  0.00    +0.000 C 
BRANCH  27  28
ATOM     28  C   UNL     1       3.165   6.798  17.785  0.00  0.00    +0.000 A 
ATOM     29  C   UNL     1       4.339   7.097  17.072  0.00  0.00    +0.000 A 
ATOM     30  C   UNL     1       5.119   6.083  16.514  0.00  0.00    +0.000 A 
ATOM     31  C   UNL     1       4.732   4.749  16.647  0.00  0.00    +0.000 A 
ATOM     32 CL   UNL     1       5.743   3.543  15.931  0.00  0.00    +0.000 Cl
ATOM     33  C   UNL     1       3.558   4.434  17.342  0.00  0.00    +0.000 A 
ATOM     34 CL   UNL     1       3.012   2.805  17.537  0.00  0.00    +0.000 Cl
ATOM     35  C   UNL     1       2.779   5.455  17.908  0.00  0.00    +0.000 A 
ENDBRANCH  27  28
ENDBRANCH  10  27
TORSDOF 6
ENDMDL
MODEL 2
REMARK VINA RESULT:      -8.8      0.951      1.011
REMARK  Name = 
REMARK  7 active torsions:
REMARK  status: ('A' for Active; 'I' for Inactive)
REMARK    1  A    between atoms: C_1  and  C_2
REMARK    2  A    between atoms: N_4  and  C_5
REMARK    3  A    between atoms: C_5  and  C_6
REMARK    4  A    between atoms: C_6  and  N_7
REMARK    5  A    between atoms: C_10  and  C_11
REMARK    6  A    between atoms: N_22  and  C_23
REMARK    7  A    between atoms: C_23  and  C_24
REMARK                            x       y       z     vdW  Elec       q    Type
REMARK                         _______ _______ _______ _____ _____    ______ ____
ROOT
ATOM      1  N   UNL     1      -0.450  11.609  20.040  0.00  0.00    +0.000 N 
ATOM      2  C   UNL     1      -1.333  12.327  20.835  0.00  0.00    +0.000 A 
ATOM      3  O   UNL     1      -2.218  13.063  20.419  0.00  0.00    +0.000 OA
ATOM      4  C   UNL     1      -1.184  12.174  22.343  0.00  0.00    +0.000 A 
ATOM      5  N   UNL     1      -0.529  11.180  22.866  0.00  0.00    +0.000 NA
ATOM      6  C   UNL     1       0.110  10.288  21.988  0.00  0.00    +0.000 A 
ATOM      7  C   UNL     1       0.690   9.149  22.531  0.00  0.00    +0.000 A 
ATOM      8  C   UNL     1       1.334   8.245  21.696  0.00  0.00    +0.000 A 
ATOM      9  C   UNL     1       1.432   8.517  20.334  0.00  0.00    +0.000 A 
ATOM     10  N   UNL     1       2.157   7.600  19.567  0.00  0.00    +0.000 N 
ATOM     11  N   UNL     1       0.882   9.620  19.785  0.00  0.00    +0.000 NA
ATOM     12  C   UNL     1       0.218  10.483  20.602  0.00  0.00    +0.000 A 
ATOM     13  H   UNL     1       1.710   6.692  19.573  0.00  0.00    +0.000 HD
ENDROOT
BRANCH   4  14
ATOM     14  C   UNL     1      -1.822  13.181  23.224  0.00  0.00    +0.000 A 
ATOM     15  C   UNL     1      -1.136  14.351  23.557  0.00  0.00    +0.000 A 
ATOM     16  C   UNL     1      -1.746  15.286  24.393  0.00  0.00    +0.000 A 
ATOM     17  C   UNL     1      -3.026  15.024  24.850  0.00  0.00    +0.000 A 
ATOM     18  N   UNL     1      -3.725  13.914  24.532  0.00  0.00    +0.000 NA
ATOM     19  C   UNL     1      -3.109  13.015  23.725  0.00  0.00    +0.000 A 
ENDBRANCH   4  14
BRANCH   1  20
ATOM     20  C   UNL     1      -0.461  11.782  18.583  0.00  0.00    +0.000 C 
BRANCH  20  21
ATOM     21  C   UNL     1      -1.584  11.002  17.868  0.00  0.00    +0.000 C 
BRANCH  21  25
ATOM     22  C   UNL     1      -5.100  12.191  17.205  0.00  0.00    +0.000 C 
ATOM     23  C   UNL     1      -4.027  11.231  17.634  0.00  0.00    +0.000 C 
ATOM     24  O   UNL     1      -4.255  10.075  17.964  0.00  0.00    +0.000 OA
ATOM     25  N   UNL     1      -2.772  11.791  17.616  0.00  0.00    +0.000 N 
ATOM     26  H   UNL     1      -2.652  12.719  17.230  0.00  0.00    +0.000 HD
ENDBRANCH  21  25
ENDBRANCH  20  21
ENDBRANCH   1  20
BRANCH  10  27
ATOM     27  C   UNL     1       2.579   8.023  18.243  0.00  0.00    +0.000 C 
BRANCH  27  28
ATOM     28  C   UNL     1       3.402   6.902  17.633  0.00  0.00    +0.000 A 
ATOM     29  C   UNL     1       4.438   7.201  16.731  0.00  0.00    +0.000 A 
ATOM     30  C   UNL     1       5.198   6.187  16.147  0.00  0.00    +0.000 A 
ATOM     31  C   UNL     1       4.927   4.851  16.444  0.00  0.00    +0.000 A 
ATOM     32 CL   UNL     1       5.906   3.644  15.686  0.00  0.00    +0.000 Cl
ATOM     33  C   UNL     1       3.890   4.534  17.330  0.00  0.00    +0.000 A 
ATOM     34 CL   UNL     1       3.492   2.902  17.736  0.00  0.00    +0.000 Cl
ATOM     35  C   UNL     1       3.132   5.556  17.920  0.00  0.00    +0.000 A 
ENDBRANCH  27  28
ENDBRANCH  10  27
TORSDOF 6
ENDMDL
MODEL 3
REMARK VINA RESULT:      -8.8      1.520      1.972
REMARK  Name = 
REMARK  7 active torsions:
REMARK  status: ('A' for Active; 'I' for Inactive)
REMARK    1  A    between atoms: C_1  and  C_2
REMARK    2  A    between atoms: N_4  and  C_5
REMARK    3  A    between atoms: C_5  and  C_6
REMARK    4  A    between atoms: C_6  and  N_7
REMARK    5  A    between atoms: C_10  and  C_11
REMARK    6  A    between atoms: N_22  and  C_23
REMARK    7  A    between atoms: C_23  and  C_24
REMARK                            x       y       z     vdW  Elec       q    Type
REMARK                         _______ _______ _______ _____ _____    ______ ____
ROOT
ATOM      1  N   UNL     1      -1.267  11.402  19.906  0.00  0.00    +0.000 N 
ATOM      2  C   UNL     1      -2.269  12.266  20.325  0.00  0.00    +0.000 A 
ATOM      3  O   UNL     1      -3.146  12.729  19.608  0.00  0.00    +0.000 OA
ATOM      4  C   UNL     1      -2.272  12.657  21.797  0.00  0.00    +0.000 A 
ATOM      5  N   UNL     1      -1.621  11.969  22.687  0.00  0.00    +0.000 NA
ATOM      6  C   UNL     1      -0.842  10.891  22.233  0.00  0.00    +0.000 A 
ATOM      7  C   UNL     1      -0.257  10.067  23.186  0.00  0.00    +0.000 A 
ATOM      8  C   UNL     1       0.523   8.993  22.776  0.00  0.00    +0.000 A 
ATOM      9  C   UNL     1       0.749   8.786  21.418  0.00  0.00    +0.000 A 
ATOM     10  N   UNL     1       1.602   7.732  21.083  0.00  0.00    +0.000 N 
ATOM     11  N   UNL     1       0.197   9.578  20.474  0.00  0.00    +0.000 NA
ATOM     12  C   UNL     1      -0.599  10.605  20.880  0.00  0.00    +0.000 A 
ATOM     13  H   UNL     1       1.210   6.844  21.373  0.00  0.00    +0.000 HD
ENDROOT
BRANCH   4  14
ATOM     14  C   UNL     1      -3.058  13.844  22.214  0.00  0.00    +0.000 A 
ATOM     15  C   UNL     1      -4.337  13.680  22.748  0.00  0.00    +0.000 A 
ATOM     16  C   UNL     1      -5.068  14.805  23.129  0.00  0.00    +0.000 A 
ATOM     17  C   UNL     1      -4.483  16.051  22.978  0.00  0.00    +0.000 A 
ATOM     18  N   UNL     1      -3.243  16.244  22.484  0.00  0.00    +0.000 NA
ATOM     19  C   UNL     1      -2.554  15.137  22.112  0.00  0.00    +0.000 A 
ENDBRANCH   4  14
BRANCH   1  20
ATOM     20  C   UNL     1      -1.134  11.061  18.486  0.00  0.00    +0.000 C 
BRANCH  20  21
ATOM     21  C   UNL     1      -2.219  10.091  17.970  0.00  0.00    +0.000 C 
BRANCH  21  25
ATOM     22  C   UNL     1      -3.163  10.143  14.320  0.00  0.00    +0.000 C 
ATOM     23  C   UNL     1      -3.248  10.519  15.771  0.00  0.00    +0.000 C 
ATOM     24  O   UNL     1      -4.122  11.247  16.225  0.00  0.00    +0.000 OA
ATOM     25  N   UNL     1      -2.245   9.962  16.527  0.00  0.00    +0.000 N 
ATOM     26  H   UNL     1      -1.623   9.287  16.100  0.00  0.00    +0.000 HD
ENDBRANCH  21  25
ENDBRANCH  20  21
ENDBRANCH   1  20
BRANCH  10  27
ATOM     27  C   UNL     1       2.137   7.708  19.733  0.00  0.00    +0.000 C 
BRANCH  27  28
ATOM     28  C   UNL     1       2.328   6.258  19.329  0.00  0.00    +0.000 A 
ATOM     29  C   UNL     1       2.962   5.944  18.113  0.00  0.00    +0.000 A 
ATOM     30  C   UNL     1       3.137   4.617  17.715  0.00  0.00    +0.000 A 
ATOM     31  C   UNL     1       2.668   3.578  18.519  0.00  0.00    +0.000 A 
ATOM     32 CL   UNL     1       2.915   1.959  17.967  0.00  0.00    +0.000 Cl
ATOM     33  C   UNL     1       2.022   3.873  19.726  0.00  0.00    +0.000 A 
ATOM     34 CL   UNL     1       1.407   2.638  20.768  0.00  0.00    +0.000 Cl
ATOM     35  C   UNL     1       1.854   5.207  20.128  0.00  0.00    +0.000 A 
ENDBRANCH  27  28
ENDBRANCH  10  27
TORSDOF 6
ENDMDL
MODEL 4
REMARK VINA RESULT:      -8.7      0.731      1.032
REMARK  Name = 
REMARK  7 active torsions:
REMARK  status: ('A' for Active; 'I' for Inactive)
REMARK    1  A    between atoms: C_1  and  C_2
REMARK    2  A    between atoms: N_4  and  C_5
REMARK    3  A    between atoms: C_5  and  C_6
REMARK    4  A    between atoms: C_6  and  N_7
REMARK    5  A    between atoms: C_10  and  C_11
REMARK    6  A    between atoms: N_22  and  C_23
REMARK    7  A    between atoms: C_23  and  C_24
REMARK                            x       y       z     vdW  Elec       q    Type
REMARK                         _______ _______ _______ _____ _____    ______ ____
ROOT
ATOM      1  N   UNL     1      -1.308  11.491  19.873  0.00  0.00    +0.000 N 
ATOM      2  C   UNL     1      -2.280  12.180  20.585  0.00  0.00    +0.000 A 
ATOM      3  O   UNL     1      -3.280  12.691  20.099  0.00  0.00    +0.000 OA
ATOM      4  C   UNL     1      -2.079  12.298  22.090  0.00  0.00    +0.000 A 
ATOM      5  N   UNL     1      -1.263  11.517  22.733  0.00  0.00    +0.000 NA
ATOM      6  C   UNL     1      -0.504  10.606  21.977  0.00  0.00    +0.000 A 
ATOM      7  C   UNL     1       0.263   9.676  22.665  0.00  0.00    +0.000 A 
ATOM      8  C   UNL     1       1.029   8.761  21.954  0.00  0.00    +0.000 A 
ATOM      9  C   UNL     1       1.056   8.821  20.563  0.00  0.00    +0.000 A 
ATOM     10  N   UNL     1       1.905   7.918  19.917  0.00  0.00    +0.000 N 
ATOM     11  N   UNL     1       0.324   9.721  19.873  0.00  0.00    +0.000 NA
ATOM     12  C   UNL     1      -0.455  10.590  20.574  0.00  0.00    +0.000 A 
ATOM     13  H   UNL     1       1.612   6.964  20.085  0.00  0.00    +0.000 HD
ENDROOT
BRANCH   4  14
ATOM     14  C   UNL     1      -2.856  13.322  22.831  0.00  0.00    +0.000 A 
ATOM     15  C   UNL     1      -4.076  12.980  23.418  0.00  0.00    +0.000 A 
ATOM     16  C   UNL     1      -4.799  13.955  24.105  0.00  0.00    +0.000 A 
ATOM     17  C   UNL     1      -4.266  15.230  24.194  0.00  0.00    +0.000 A 
ATOM     18  N   UNL     1      -3.082  15.588  23.656  0.00  0.00    +0.000 NA
ATOM     19  C   UNL     1      -2.400  14.627  22.986  0.00  0.00    +0.000 A 
ENDBRANCH   4  14
BRANCH   1  20
ATOM     20  C   UNL     1      -1.374  11.423  18.410  0.00  0.00    +0.000 C 
BRANCH  20  21
ATOM     21  C   UNL     1      -2.141  10.195  17.873  0.00  0.00    +0.000 C 
BRANCH  21  25
ATOM     22  C   UNL     1      -3.041  10.173  14.212  0.00  0.00    +0.000 C 
ATOM     23  C   UNL     1      -3.197  10.508  15.668  0.00  0.00    +0.000 C 
ATOM     24  O   UNL     1      -4.172  11.093  16.121  0.00  0.00    +0.000 OA
ATOM     25  N   UNL     1      -2.132  10.089  16.429  0.00  0.00    +0.000 N 
ATOM     26  H   UNL     1      -1.413   9.519  15.999  0.00  0.00    +0.000 HD
ENDBRANCH  21  25
ENDBRANCH  20  21
ENDBRANCH   1  20
BRANCH  10  27
ATOM     27  C   UNL     1       2.228   8.182  18.526  0.00  0.00    +0.000 C 
BRANCH  27  28
ATOM     28  C   UNL     1       2.999   6.990  17.989  0.00  0.00    +0.000 A 
ATOM     29  C   UNL     1       4.255   7.178  17.386  0.00  0.00    +0.000 A 
ATOM     30  C   UNL     1       4.975   6.098  16.873  0.00  0.00    +0.000 A 
ATOM     31  C   UNL     1       4.446   4.809  16.940  0.00  0.00    +0.000 A 
ATOM     32 CL   UNL     1       5.389   3.517  16.285  0.00  0.00    +0.000 Cl
ATOM     33  C   UNL     1       3.190   4.606  17.524  0.00  0.00    +0.000 A 
ATOM     34 CL   UNL     1       2.468   3.038  17.632  0.00  0.00    +0.000 Cl
ATOM     35  C   UNL     1       2.471   5.692  18.045  0.00  0.00    +0.000 A 
ENDBRANCH  27  28
ENDBRANCH  10  27
TORSDOF 6
ENDMDL
MODEL 5
REMARK VINA RESULT:      -8.6      1.263      1.799
REMARK  Name = 
REMARK  7 active torsions:
REMARK  status: ('A' for Active; 'I' for Inactive)
REMARK    1  A    between atoms: C_1  and  C_2
REMARK    2  A    between atoms: N_4  and  C_5
REMARK    3  A    between atoms: C_5  and  C_6
REMARK    4  A    between atoms: C_6  and  N_7
REMARK    5  A    between atoms: C_10  and  C_11
REMARK    6  A    between atoms: N_22  and  C_23
REMARK    7  A    between atoms: C_23  and  C_24
REMARK                            x       y       z     vdW  Elec       q    Type
REMARK                         _______ _______ _______ _____ _____    ______ ____
ROOT
ATOM      1  N   UNL     1      -1.185  11.319  19.811  0.00  0.00    +0.000 N 
ATOM      2  C   UNL     1      -2.173  12.187  20.256  0.00  0.00    +0.000 A 
ATOM      3  O   UNL     1      -3.064  12.656  19.560  0.00  0.00    +0.000 OA
ATOM      4  C   UNL     1      -2.139  12.575  21.728  0.00  0.00    +0.000 A 
ATOM      5  N   UNL     1      -1.470  11.882  22.600  0.00  0.00    +0.000 NA
ATOM      6  C   UNL     1      -0.707  10.801  22.126  0.00  0.00    +0.000 A 
ATOM      7  C   UNL     1      -0.105   9.972  23.063  0.00  0.00    +0.000 A 
ATOM      8  C   UNL     1       0.660   8.895  22.633  0.00  0.00    +0.000 A 
ATOM      9  C   UNL     1       0.853   8.690  21.269  0.00  0.00    +0.000 A 
ATOM     10  N   UNL     1       1.693   7.632  20.912  0.00  0.00    +0.000 N 
ATOM     11  N   UNL     1       0.283   9.486  20.340  0.00  0.00    +0.000 NA
ATOM     12  C   UNL     1      -0.498  10.517  20.767  0.00  0.00    +0.000 A 
ATOM     13  H   UNL     1       1.304   6.746  21.209  0.00  0.00    +0.000 HD
ENDROOT
BRANCH   4  14
ATOM     14  C   UNL     1      -2.909  13.765  22.166  0.00  0.00    +0.000 A 
ATOM     15  C   UNL     1      -2.374  15.043  21.992  0.00  0.00    +0.000 A 
ATOM     16  C   UNL     1      -3.105  16.152  22.415  0.00  0.00    +0.000 A 
ATOM     17  C   UNL     1      -4.352  15.942  22.980  0.00  0.00    +0.000 A 
ATOM     18  N   UNL     1      -4.906  14.723  23.144  0.00  0.00    +0.000 NA
ATOM     19  C   UNL     1      -4.174  13.659  22.733  0.00  0.00    +0.000 A 
ENDBRANCH   4  14
BRANCH   1  20
ATOM     20  C   UNL     1      -1.087  10.980  18.387  0.00  0.00    +0.000 C 
BRANCH  20  21
ATOM     21  C   UNL     1      -2.197  10.028  17.892  0.00  0.00    +0.000 C 
BRANCH  21  25
ATOM     22  C   UNL     1      -3.132  10.099  14.240  0.00  0.00    +0.000 C 
ATOM     23  C   UNL     1      -3.185  10.506  15.684  0.00  0.00    +0.000 C 
ATOM     24  O   UNL     1      -3.993  11.315  16.123  0.00  0.00    +0.000 OA
ATOM     25  N   UNL     1      -2.234   9.878  16.452  0.00  0.00    +0.000 N 
ATOM     26  H   UNL     1      -1.672   9.144  16.037  0.00  0.00    +0.000 HD
ENDBRANCH  21  25
ENDBRANCH  20  21
ENDBRANCH   1  20
BRANCH  10  27
ATOM     27  C   UNL     1       2.196   7.609  19.549  0.00  0.00    +0.000 C 
BRANCH  27  28
ATOM     28  C   UNL     1       2.472   6.164  19.175  0.00  0.00    +0.000 A 
ATOM     29  C   UNL     1       1.949   5.122  19.961  0.00  0.00    +0.000 A 
ATOM     30  C   UNL     1       2.201   3.786  19.645  0.00  0.00    +0.000 A 
ATOM     31  C   UNL     1       2.995   3.466  18.542  0.00  0.00    +0.000 A 
ATOM     32 CL   UNL     1       3.269   1.793  18.207  0.00  0.00    +0.000 Cl
ATOM     33  C   UNL     1       3.535   4.491  17.757  0.00  0.00    +0.000 A 
ATOM     34 CL   UNL     1       4.535   4.170  16.384  0.00  0.00    +0.000 Cl
ATOM     35  C   UNL     1       3.275   5.833  18.073  0.00  0.00    +0.000 A 
ENDBRANCH  27  28
ENDBRANCH  10  27
TORSDOF 6
ENDMDL
MODEL 6
REMARK VINA RESULT:      -8.6      4.330      9.175
REMARK  Name = 
REMARK  7 active torsions:
REMARK  status: ('A' for Active; 'I' for Inactive)
REMARK    1  A    between atoms: C_1  and  C_2
REMARK    2  A    between atoms: N_4  and  C_5
REMARK    3  A    between atoms: C_5  and  C_6
REMARK    4  A    between atoms: C_6  and  N_7
REMARK    5  A    between atoms: C_10  and  C_11
REMARK    6  A    between atoms: N_22  and  C_23
REMARK    7  A    between atoms: C_23  and  C_24
REMARK                            x       y       z     vdW  Elec       q    Type
REMARK                         _______ _______ _______ _____ _____    ______ ____
ROOT
ATOM      1  N   UNL     1       0.794   9.490  19.022  0.00  0.00    +0.000 N 
ATOM      2  C   UNL     1       1.746   8.566  18.612  0.00  0.00    +0.000 A 
ATOM      3  O   UNL     1       2.381   8.625  17.567  0.00  0.00    +0.000 OA
ATOM      4  C   UNL     1       2.017   7.395  19.547  0.00  0.00    +0.000 A 
ATOM      5  N   UNL     1       1.666   7.424  20.798  0.00  0.00    +0.000 NA
ATOM      6  C   UNL     1       0.950   8.548  21.246  0.00  0.00    +0.000 A 
ATOM      7  C   UNL     1       0.695   8.653  22.607  0.00  0.00    +0.000 A 
ATOM      8  C   UNL     1      -0.013   9.747  23.087  0.00  0.00    +0.000 A 
ATOM      9  C   UNL     1      -0.500  10.698  22.194  0.00  0.00    +0.000 A 
ATOM     10  N   UNL     1      -1.265  11.731  22.740  0.00  0.00    +0.000 N 
ATOM     11  N   UNL     1      -0.269  10.613  20.866  0.00  0.00    +0.000 NA
ATOM     12  C   UNL     1       0.458   9.559  20.405  0.00  0.00    +0.000 A 
ATOM     13  H   UNL     1      -0.711  12.295  23.372  0.00  0.00    +0.000 HD
ENDROOT
BRANCH   4  14
ATOM     14  C   UNL     1       2.718   6.204  19.006  0.00  0.00    +0.000 A 
ATOM     15  C   UNL     1       2.066   5.362  18.104  0.00  0.00    +0.000 A 
ATOM     16  C   UNL     1       2.734   4.242  17.610  0.00  0.00    +0.000 A 
ATOM     17  C   UNL     1       4.036   4.017  18.023  0.00  0.00    +0.000 A 
ATOM     18  N   UNL     1       4.703   4.821  18.877  0.00  0.00    +0.000 NA
ATOM     19  C   UNL     1       4.031   5.899  19.351  0.00  0.00    +0.000 A 
ENDBRANCH   4  14
BRANCH   1  20
ATOM     20  C   UNL     1       0.401  10.588  18.133  0.00  0.00    +0.000 C 
BRANCH  20  21
ATOM     21  C   UNL     1      -1.125  10.723  17.942  0.00  0.00    +0.000 C 
BRANCH  21  25
ATOM     22  C   UNL     1      -3.152  10.087  14.827  0.00  0.00    +0.000 C 
ATOM     23  C   UNL     1      -2.826  10.701  16.158  0.00  0.00    +0.000 C 
ATOM     24  O   UNL     1      -3.594  11.439  16.761  0.00  0.00    +0.000 OA
ATOM     25  N   UNL     1      -1.582  10.347  16.620  0.00  0.00    +0.000 N 
ATOM     26  H   UNL     1      -1.049   9.649  16.114  0.00  0.00    +0.000 HD
ENDBRANCH  21  25
ENDBRANCH  20  21
ENDBRANCH   1  20
BRANCH  10  27
ATOM     27  C   UNL     1      -2.072  12.520  21.826  0.00  0.00    +0.000 C 
BRANCH  27  28
ATOM     28  C   UNL     1      -3.446  12.699  22.447  0.00  0.00    +0.000 A 
ATOM     29  C   UNL     1      -3.618  12.533  23.832  0.00  0.00    +0.000 A 
ATOM     30  C   UNL     1      -4.874  12.678  24.424  0.00  0.00    +0.000 A 
ATOM     31  C   UNL     1      -5.986  12.979  23.637  0.00  0.00    +0.000 A 
ATOM     32 CL   UNL     1      -7.512  13.145  24.432  0.00  0.00    +0.000 Cl
ATOM     33  C   UNL     1      -5.835  13.134  22.254  0.00  0.00    +0.000 A 
ATOM     34 CL   UNL     1      -7.170  13.498  21.217  0.00  0.00    +0.000 Cl
ATOM     35  C   UNL     1      -4.571  12.994  21.663  0.00  0.00    +0.000 A 
ENDBRANCH  27  28
ENDBRANCH  10  27
TORSDOF 6
ENDMDL
MODEL 7
REMARK VINA RESULT:      -8.6      1.582      2.467
REMARK  Name = 
REMARK  7 active torsions:
REMARK  status: ('A' for Active; 'I' for Inactive)
REMARK    1  A    between atoms: C_1  and  C_2
REMARK    2  A    between atoms: N_4  and  C_5
REMARK    3  A    between atoms: C_5  and  C_6
REMARK    4  A    between atoms: C_6  and  N_7
REMARK    5  A    between atoms: C_10  and  C_11
REMARK    6  A    between atoms: N_22  and  C_23
REMARK    7  A    between atoms: C_23  and  C_24
REMARK                            x       y       z     vdW  Elec       q    Type
REMARK                         _______ _______ _______ _____ _____    ______ ____
ROOT
ATOM      1  N   UNL     1      -0.873  11.371  20.158  0.00  0.00    +0.000 N 
ATOM      2  C   UNL     1      -1.739  12.078  20.980  0.00  0.00    +0.000 A 
ATOM      3  O   UNL     1      -2.735  12.680  20.603  0.00  0.00    +0.000 OA
ATOM      4  C   UNL     1      -1.418  12.092  22.469  0.00  0.00    +0.000 A 
ATOM      5  N   UNL     1      -0.611  11.224  23.001  0.00  0.00    +0.000 NA
ATOM      6  C   UNL     1       0.023  10.312  22.140  0.00  0.00    +0.000 A 
ATOM      7  C   UNL     1       0.774   9.295  22.714  0.00  0.00    +0.000 A 
ATOM      8  C   UNL     1       1.420   8.376  21.895  0.00  0.00    +0.000 A 
ATOM      9  C   UNL     1       1.346   8.518  20.512  0.00  0.00    +0.000 A 
ATOM     10  N   UNL     1       2.080   7.602  19.753  0.00  0.00    +0.000 N 
ATOM     11  N   UNL     1       0.628   9.503  19.932  0.00  0.00    +0.000 NA
ATOM     12  C   UNL     1      -0.034  10.377  20.739  0.00  0.00    +0.000 A 
ATOM     13  H   UNL     1       1.735   6.660  19.891  0.00  0.00    +0.000 HD
ENDROOT
BRANCH   4  14
ATOM     14  C   UNL     1      -2.065  13.118  23.324  0.00  0.00    +0.000 A 
ATOM     15  C   UNL     1      -3.348  12.897  23.827  0.00  0.00    +0.000 A 
ATOM     16  C   UNL     1      -3.947  13.873  24.623  0.00  0.00    +0.000 A 
ATOM     17  C   UNL     1      -3.232  15.026  24.900  0.00  0.00    +0.000 A 
ATOM     18  N   UNL     1      -1.983  15.262  24.447  0.00  0.00    +0.000 NA
ATOM     19  C   UNL     1      -1.424  14.304  23.668  0.00  0.00    +0.000 A 
ENDBRANCH   4  14
BRANCH   1  20
ATOM     20  C   UNL     1      -1.053  11.395  18.702  0.00  0.00    +0.000 C 
BRANCH  20  21
ATOM     21  C   UNL     1      -0.539  12.686  18.028  0.00  0.00    +0.000 C 
BRANCH  21  25
ATOM     22  C   UNL     1       2.994  13.843  18.657  0.00  0.00    +0.000 C 
ATOM     23  C   UNL     1       1.511  13.763  18.875  0.00  0.00    +0.000 C 
ATOM     24  O   UNL     1       0.914  14.460  19.686  0.00  0.00    +0.000 OA
ATOM     25  N   UNL     1       0.902  12.829  18.071  0.00  0.00    +0.000 N 
ATOM     26  H   UNL     1       1.446  12.369  17.352  0.00  0.00    +0.000 HD
ENDBRANCH  21  25
ENDBRANCH  20  21
ENDBRANCH   1  20
BRANCH  10  27
ATOM     27  C   UNL     1       2.315   7.928  18.357  0.00  0.00    +0.000 C 
BRANCH  27  28
ATOM     28  C   UNL     1       3.182   6.834  17.759  0.00  0.00    +0.000 A 
ATOM     29  C   UNL     1       4.320   7.171  17.006  0.00  0.00    +0.000 A 
ATOM     30  C   UNL     1       5.124   6.182  16.436  0.00  0.00    +0.000 A 
ATOM     31  C   UNL     1       4.796   4.836  16.597  0.00  0.00    +0.000 A 
ATOM     32 CL   UNL     1       5.833   3.663  15.864  0.00  0.00    +0.000 Cl
ATOM     33  C   UNL     1       3.659   4.483  17.332  0.00  0.00    +0.000 A 
ATOM     34 CL   UNL     1       3.186   2.835  17.564  0.00  0.00    +0.000 Cl
ATOM     35  C   UNL     1       2.856   5.478  17.910  0.00  0.00    +0.000 A 
ENDBRANCH  27  28
ENDBRANCH  10  27
TORSDOF 6
ENDMDL
MODEL 8
REMARK VINA RESULT:      -8.5      4.577      9.318
REMARK  Name = 
REMARK  7 active torsions:
REMARK  status: ('A' for Active; 'I' for Inactive)
REMARK    1  A    between atoms: C_1  and  C_2
REMARK    2  A    between atoms: N_4  and  C_5
REMARK    3  A    between atoms: C_5  and  C_6
REMARK    4  A    between atoms: C_6  and  N_7
REMARK    5  A    between atoms: C_10  and  C_11
REMARK    6  A    between atoms: N_22  and  C_23
REMARK    7  A    between atoms: C_23  and  C_24
REMARK                            x       y       z     vdW  Elec       q    Type
REMARK                         _______ _______ _______ _____ _____    ______ ____
ROOT
ATOM      1  N   UNL     1       0.449   9.838  19.014  0.00  0.00    +0.000 N 
ATOM      2  C   UNL     1       1.458   9.123  18.385  0.00  0.00    +0.000 A 
ATOM      3  O   UNL     1       1.923   9.382  17.282  0.00  0.00    +0.000 OA
ATOM      4  C   UNL     1       2.029   7.928  19.136  0.00  0.00    +0.000 A 
ATOM      5  N   UNL     1       1.858   7.782  20.416  0.00  0.00    +0.000 NA
ATOM      6  C   UNL     1       1.055   8.727  21.077  0.00  0.00    +0.000 A 
ATOM      7  C   UNL     1       0.982   8.660  22.462  0.00  0.00    +0.000 A 
ATOM      8  C   UNL     1       0.196   9.575  23.151  0.00  0.00    +0.000 A 
ATOM      9  C   UNL     1      -0.547  10.515  22.441  0.00  0.00    +0.000 A 
ATOM     10  N   UNL     1      -1.371  11.354  23.195  0.00  0.00    +0.000 N 
ATOM     11  N   UNL     1      -0.497  10.594  21.095  0.00  0.00    +0.000 NA
ATOM     12  C   UNL     1       0.305   9.721  20.427  0.00  0.00    +0.000 A 
ATOM     13  H   UNL     1      -0.822  11.938  23.814  0.00  0.00    +0.000 HD
ENDROOT
BRANCH   4  14
ATOM     14  C   UNL     1       2.814   6.923  18.378  0.00  0.00    +0.000 A 
ATOM     15  C   UNL     1       2.347   5.611  18.271  0.00  0.00    +0.000 A 
ATOM     16  C   UNL     1       3.099   4.675  17.562  0.00  0.00    +0.000 A 
ATOM     17  C   UNL     1       4.280   5.091  16.971  0.00  0.00    +0.000 A 
ATOM     18  N   UNL     1       4.749   6.354  17.038  0.00  0.00    +0.000 NA
ATOM     19  C   UNL     1       4.007   7.245  17.740  0.00  0.00    +0.000 A 
ENDBRANCH   4  14
BRANCH   1  20
ATOM     20  C   UNL     1      -0.224  10.937  18.314  0.00  0.00    +0.000 C 
BRANCH  20  21
ATOM     21  C   UNL     1      -1.696  10.643  17.955  0.00  0.00    +0.000 C 
BRANCH  21  25
ATOM     22  C   UNL     1      -3.119  10.152  14.498  0.00  0.00    +0.000 C 
ATOM     23  C   UNL     1      -3.045  10.705  15.892  0.00  0.00    +0.000 C 
ATOM     24  O   UNL     1      -3.915  11.416  16.378  0.00  0.00    +0.000 OA
ATOM     25  N   UNL     1      -1.902  10.328  16.556  0.00  0.00    +0.000 N 
ATOM     26  H   UNL     1      -1.282   9.653  16.126  0.00  0.00    +0.000 HD
ENDBRANCH  21  25
ENDBRANCH  20  21
ENDBRANCH   1  20
BRANCH  10  27
ATOM     27  C   UNL     1      -2.407  12.086  22.487  0.00  0.00    +0.000 C 
BRANCH  27  28
ATOM     28  C   UNL     1      -2.595  13.423  23.180  0.00  0.00    +0.000 A 
ATOM     29  C   UNL     1      -1.486  14.093  23.728  0.00  0.00    +0.000 A 
ATOM     30  C   UNL     1      -1.637  15.317  24.382  0.00  0.00    +0.000 A 
ATOM     31  C   UNL     1      -2.903  15.889  24.513  0.00  0.00    +0.000 A 
ATOM     32 CL   UNL     1      -3.019  17.405  25.335  0.00  0.00    +0.000 Cl
ATOM     33  C   UNL     1      -4.019  15.229  23.986  0.00  0.00    +0.000 A 
ATOM     34 CL   UNL     1      -5.618  15.873  24.120  0.00  0.00    +0.000 Cl
ATOM     35  C   UNL     1      -3.864  14.002  23.323  0.00  0.00    +0.000 A 
ENDBRANCH  27  28
ENDBRANCH  10  27
TORSDOF 6
ENDMDL
MODEL 9
REMARK VINA RESULT:      -8.5      1.238      1.876
REMARK  Name = 
REMARK  7 active torsions:
REMARK  status: ('A' for Active; 'I' for Inactive)
REMARK    1  A    between atoms: C_1  and  C_2
REMARK    2  A    between atoms: N_4  and  C_5
REMARK    3  A    between atoms: C_5  and  C_6
REMARK    4  A    between atoms: C_6  and  N_7
REMARK    5  A    between atoms: C_10  and  C_11
REMARK    6  A    between atoms: N_22  and  C_23
REMARK    7  A    between atoms: C_23  and  C_24
REMARK                            x       y       z     vdW  Elec       q    Type
REMARK                         _______ _______ _______ _____ _____    ______ ____
ROOT
ATOM      1  N   UNL     1      -0.661  11.194  19.976  0.00  0.00    +0.000 N 
ATOM      2  C   UNL     1      -1.503  11.939  20.789  0.00  0.00    +0.000 A 
ATOM      3  O   UNL     1      -2.491  12.553  20.406  0.00  0.00    +0.000 OA
ATOM      4  C   UNL     1      -1.168  11.984  22.274  0.00  0.00    +0.000 A 
ATOM      5  N   UNL     1      -0.374  11.112  22.820  0.00  0.00    +0.000 NA
ATOM      6  C   UNL     1       0.233  10.166  21.976  0.00  0.00    +0.000 A 
ATOM      7  C   UNL     1       0.969   9.148  22.568  0.00  0.00    +0.000 A 
ATOM      8  C   UNL     1       1.587   8.196  21.767  0.00  0.00    +0.000 A 
ATOM      9  C   UNL     1       1.502   8.304  20.381  0.00  0.00    +0.000 A 
ATOM     10  N   UNL     1       2.210   7.355  19.638  0.00  0.00    +0.000 N 
ATOM     11  N   UNL     1       0.799   9.290  19.784  0.00  0.00    +0.000 NA
ATOM     12  C   UNL     1       0.163  10.197  20.574  0.00  0.00    +0.000 A 
ATOM     13  H   UNL     1       1.846   6.424  19.803  0.00  0.00    +0.000 HD
ENDROOT
BRANCH   4  14
ATOM     14  C   UNL     1      -1.784  13.044  23.108  0.00  0.00    +0.000 A 
ATOM     15  C   UNL     1      -3.077  12.874  23.607  0.00  0.00    +0.000 A 
ATOM     16  C   UNL     1      -3.648  13.882  24.384  0.00  0.00    +0.000 A 
ATOM     17  C   UNL     1      -2.896  15.014  24.648  0.00  0.00    +0.000 A 
ATOM     18  N   UNL     1      -1.637  15.201  24.200  0.00  0.00    +0.000 NA
ATOM     19  C   UNL     1      -1.106  14.212  23.439  0.00  0.00    +0.000 A 
ENDBRANCH   4  14
BRANCH   1  20
ATOM     20  C   UNL     1      -0.855  11.186  18.523  0.00  0.00    +0.000 C 
BRANCH  20  21
ATOM     21  C   UNL     1      -1.931  10.189  18.040  0.00  0.00    +0.000 C 
BRANCH  21  25
ATOM     22  C   UNL     1      -5.110  11.917  16.983  0.00  0.00    +0.000 C 
ATOM     23  C   UNL     1      -3.780  11.244  16.799  0.00  0.00    +0.000 C 
ATOM     24  O   UNL     1      -3.224  11.145  15.713  0.00  0.00    +0.000 OA
ATOM     25  N   UNL     1      -3.262  10.755  17.974  0.00  0.00    +0.000 N 
ATOM     26  H   UNL     1      -3.730  10.970  18.846  0.00  0.00    +0.000 HD
ENDBRANCH  21  25
ENDBRANCH  20  21
ENDBRANCH   1  20
BRANCH  10  27
ATOM     27  C   UNL     1       2.437   7.640  18.232  0.00  0.00    +0.000 C 
BRANCH  27  28
ATOM     28  C   UNL     1       3.632   6.822  17.775  0.00  0.00    +0.000 A 
ATOM     29  C   UNL     1       3.468   5.467  17.438  0.00  0.00    +0.000 A 
ATOM     30  C   UNL     1       4.554   4.692  17.028  0.00  0.00    +0.000 A 
ATOM     31  C   UNL     1       5.829   5.255  16.960  0.00  0.00    +0.000 A 
ATOM     32 CL   UNL     1       7.130   4.240  16.446  0.00  0.00    +0.000 Cl
ATOM     33  C   UNL     1       6.012   6.599  17.306  0.00  0.00    +0.000 A 
ATOM     34 CL   UNL     1       7.564   7.360  17.255  0.00  0.00    +0.000 Cl
ATOM     35  C   UNL     1       4.918   7.378  17.711  0.00  0.00    +0.000 A 
ENDBRANCH  27  28
ENDBRANCH  10  27
TORSDOF 6
ENDMDL
