MODEL 1
REMARK VINA RESULT:      -9.3      0.000      0.000
REMARK  Name = 
REMARK  8 active torsions:
REMARK  status: ('A' for Active; 'I' for Inactive)
REMARK    1  A    between atoms: C_1  and  O_2
REMARK    2  A    between atoms: O_2  and  C_3
REMARK    3  A    between atoms: C_12  and  C_13
REMARK    4  A    between atoms: N_14  and  N_15
REMARK    5  A    between atoms: C_16  and  C_18
REMARK    6  A    between atoms: C_20  and  C_21
REMARK    7  A    between atoms: C_24  and  C_25
REMARK    8  A    between atoms: C_26  and  C_27
REMARK                            x       y       z     vdW  Elec       q    Type
REMARK                         _______ _______ _______ _____ _____    ______ ____
ROOT
ATOM      1  N   UNL     1       1.512   7.464  21.183  0.00  0.00    +0.000 N 
ATOM      2  C   UNL     1       1.047   8.686  20.694  0.00  0.00    +0.000 C 
ATOM      3  O   UNL     1       1.255   9.112  19.560  0.00  0.00    +0.000 OA
ATOM      4  H   UNL     1       1.250   7.188  22.123  0.00  0.00    +0.000 HD
ENDROOT
BRANCH   2   5
ATOM      5  C   UNL     1       0.251   9.454  21.667  0.00  0.00    +0.000 A 
ATOM      6  C   UNL     1      -0.297  10.754  21.468  0.00  0.00    +0.000 A 
ATOM      7  C   UNL     1      -0.950  11.088  22.638  0.00  0.00    +0.000 A 
ATOM      8  N   UNL     1      -0.786   9.984  23.438  0.00  0.00    +0.000 N 
ATOM      9  N   UNL     1      -0.058   8.989  22.894  0.00  0.00    +0.000 NA
ATOM     10  H   UNL     1      -1.165   9.846  24.368  0.00  0.00    +0.000 HD
BRANCH   7  11
ATOM     11  C   UNL     1      -1.710  12.276  23.039  0.00  0.00    +0.000 A 
ATOM     12  C   UNL     1      -1.081  13.514  23.201  0.00  0.00    +0.000 A 
ATOM     13  C   UNL     1      -1.799  14.632  23.638  0.00  0.00    +0.000 A 
ATOM     14  C   UNL     1      -3.168  14.547  23.924  0.00  0.00    +0.000 A 
ATOM     15  C   UNL     1      -3.882  15.771  24.433  0.00  0.00    +0.000 C 
ATOM     16  C   UNL     1      -3.827  13.319  23.734  0.00  0.00    +0.000 A 
ATOM     17  C   UNL     1      -5.299  13.133  23.992  0.00  0.00    +0.000 C 
ATOM     18  C   UNL     1      -3.088  12.200  23.289  0.00  0.00    +0.000 A 
ENDBRANCH   7  11
ENDBRANCH   2   5
BRANCH   1  20
ATOM     19  C   UNL     1       1.713   5.519  19.998  0.00  0.00    +0.000 C 
ATOM     20  N   UNL     1       2.232   6.647  20.361  0.00  0.00    +0.000 NA
BRANCH  19  30
ATOM     21  C   UNL     1       2.183   3.214  19.180  0.00  0.00    +0.000 A 
ATOM     22  C   UNL     1       2.867   2.324  18.351  0.00  0.00    +0.000 A 
ATOM     23  C   UNL     1       3.790   2.789  17.415  0.00  0.00    +0.000 A 
ATOM     24  C   UNL     1       4.036   4.156  17.262  0.00  0.00    +0.000 A 
ATOM     25  C   UNL     1       4.951   4.575  16.283  0.00  0.00    +0.000 A 
ATOM     26  C   UNL     1       5.215   5.926  16.075  0.00  0.00    +0.000 A 
ATOM     27  C   UNL     1       4.561   6.871  16.846  0.00  0.00    +0.000 A 
ATOM     28  C   UNL     1       3.648   6.465  17.824  0.00  0.00    +0.000 A 
ATOM     29  C   UNL     1       3.357   5.098  18.078  0.00  0.00    +0.000 A 
ATOM     30  C   UNL     1       2.432   4.602  19.060  0.00  0.00    +0.000 A 
BRANCH  21  32
ATOM     31  C   UNL     1       1.766   2.453  21.401  0.00  0.00    +0.000 C 
ATOM     32  O   UNL     1       1.260   2.803  20.113  0.00  0.00    +0.000 OA
ENDBRANCH  21  32
ENDBRANCH  19  30
ENDBRANCH   1  20
TORSDOF 5
ENDMDL
MODEL 2
REMARK VINA RESULT:      -9.1      1.389      1.483
REMARK  Name = 
REMARK  8 active torsions:
REMARK  status: ('A' for Active; 'I' for Inactive)
REMARK    1  A    between atoms: C_1  and  O_2
REMARK    2  A    between atoms: O_2  and  C_3
REMARK    3  A    between atoms: C_12  and  C_13
REMARK    4  A    between atoms: N_14  and  N_15
REMARK    5  A    between atoms: C_16  and  C_18
REMARK    6  A    between atoms: C_20  and  C_21
REMARK    7  A    between atoms: C_24  and  C_25
REMARK    8  A    between atoms: C_26  and  C_27
REMARK                            x       y       z     vdW  Elec       q    Type
REMARK                         _______ _______ _______ _____ _____    ______ ____
ROOT
ATOM      1  N   UNL     1       1.945   8.240  19.645  0.00  0.00    +0.000 N 
ATOM      2  C   UNL     1       1.229   8.388  20.833  0.00  0.00    +0.000 C 
ATOM      3  O   UNL     1       1.066   7.501  21.668  0.00  0.00    +0.000 OA
ATOM      4  H   UNL     1       2.054   9.049  19.041  0.00  0.00    +0.000 HD
ENDROOT
BRANCH   2   5
ATOM      5  C   UNL     1       0.669   9.737  21.029  0.00  0.00    +0.000 A 
ATOM      6  C   UNL     1      -0.149  10.160  22.116  0.00  0.00    +0.000 A 
ATOM      7  C   UNL     1      -0.453  11.487  21.885  0.00  0.00    +0.000 A 
ATOM      8  N   UNL     1       0.210  11.783  20.720  0.00  0.00    +0.000 N 
ATOM      9  N   UNL     1       0.881  10.753  20.168  0.00  0.00    +0.000 NA
ATOM     10  H   UNL     1       0.252  12.683  20.256  0.00  0.00    +0.000 HD
BRANCH   7  11
ATOM     11  C   UNL     1      -1.238  12.466  22.643  0.00  0.00    +0.000 A 
ATOM     12  C   UNL     1      -0.769  13.767  22.844  0.00  0.00    +0.000 A 
ATOM     13  C   UNL     1      -1.494  14.681  23.616  0.00  0.00    +0.000 A 
ATOM     14  C   UNL     1      -2.713  14.323  24.207  0.00  0.00    +0.000 A 
ATOM     15  C   UNL     1      -3.430  15.333  25.063  0.00  0.00    +0.000 C 
ATOM     16  C   UNL     1      -3.220  13.029  23.988  0.00  0.00    +0.000 A 
ATOM     17  C   UNL     1      -4.530  12.558  24.562  0.00  0.00    +0.000 C 
ATOM     18  C   UNL     1      -2.477  12.119  23.204  0.00  0.00    +0.000 A 
ENDBRANCH   7  11
ENDBRANCH   2   5
BRANCH   1  20
ATOM     19  C   UNL     1       2.193   6.409  18.297  0.00  0.00    +0.000 C 
ATOM     20  N   UNL     1       2.542   7.045  19.369  0.00  0.00    +0.000 NA
BRANCH  19  30
ATOM     21  C   UNL     1       2.247   3.921  18.377  0.00  0.00    +0.000 A 
ATOM     22  C   UNL     1       2.850   2.698  18.077  0.00  0.00    +0.000 A 
ATOM     23  C   UNL     1       4.031   2.650  17.337  0.00  0.00    +0.000 A 
ATOM     24  C   UNL     1       4.628   3.816  16.853  0.00  0.00    +0.000 A 
ATOM     25  C   UNL     1       5.799   3.711  16.084  0.00  0.00    +0.000 A 
ATOM     26  C   UNL     1       6.420   4.840  15.560  0.00  0.00    +0.000 A 
ATOM     27  C   UNL     1       5.870   6.088  15.798  0.00  0.00    +0.000 A 
ATOM     28  C   UNL     1       4.706   6.205  16.561  0.00  0.00    +0.000 A 
ATOM     29  C   UNL     1       4.045   5.081  17.126  0.00  0.00    +0.000 A 
ATOM     30  C   UNL     1       2.846   5.117  17.917  0.00  0.00    +0.000 A 
BRANCH  21  32
ATOM     31  C   UNL     1       1.129   3.577  20.454  0.00  0.00    +0.000 C 
ATOM     32  O   UNL     1       1.081   4.019  19.098  0.00  0.00    +0.000 OA
ENDBRANCH  21  32
ENDBRANCH  19  30
ENDBRANCH   1  20
TORSDOF 5
ENDMDL
MODEL 3
REMARK VINA RESULT:      -9.0      0.340      1.308
REMARK  Name = 
REMARK  8 active torsions:
REMARK  status: ('A' for Active; 'I' for Inactive)
REMARK    1  A    between atoms: C_1  and  O_2
REMARK    2  A    between atoms: O_2  and  C_3
REMARK    3  A    between atoms: C_12  and  C_13
REMARK    4  A    between atoms: N_14  and  N_15
REMARK    5  A    between atoms: C_16  and  C_18
REMARK    6  A    between atoms: C_20  and  C_21
REMARK    7  A    between atoms: C_24  and  C_25
REMARK    8  A    between atoms: C_26  and  C_27
REMARK                            x       y       z     vdW  Elec       q    Type
REMARK                         _______ _______ _______ _____ _____    ______ ____
ROOT
ATOM      1  N   UNL     1       1.509   7.495  21.246  0.00  0.00    +0.000 N 
ATOM      2  C   UNL     1       1.030   8.699  20.729  0.00  0.00    +0.000 C 
ATOM      3  O   UNL     1       1.235   9.102  19.585  0.00  0.00    +0.000 OA
ATOM      4  H   UNL     1       1.248   7.236  22.192  0.00  0.00    +0.000 HD
ENDROOT
BRANCH   2   5
ATOM      5  C   UNL     1       0.221   9.478  21.682  0.00  0.00    +0.000 A 
ATOM      6  C   UNL     1      -0.267  10.803  21.487  0.00  0.00    +0.000 A 
ATOM      7  C   UNL     1      -0.958  11.139  22.635  0.00  0.00    +0.000 A 
ATOM      8  N   UNL     1      -0.873  10.014  23.417  0.00  0.00    +0.000 N 
ATOM      9  N   UNL     1      -0.160   9.002  22.884  0.00  0.00    +0.000 NA
ATOM     10  H   UNL     1      -1.298   9.872  24.326  0.00  0.00    +0.000 HD
BRANCH   7  11
ATOM     11  C   UNL     1      -1.688  12.348  23.028  0.00  0.00    +0.000 A 
ATOM     12  C   UNL     1      -3.038  12.289  23.389  0.00  0.00    +0.000 A 
ATOM     13  C   UNL     1      -3.747  13.452  23.709  0.00  0.00    +0.000 A 
ATOM     14  C   UNL     1      -3.127  14.709  23.682  0.00  0.00    +0.000 A 
ATOM     15  C   UNL     1      -3.948  15.931  23.993  0.00  0.00    +0.000 C 
ATOM     16  C   UNL     1      -1.760  14.785  23.355  0.00  0.00    +0.000 A 
ATOM     17  C   UNL     1      -1.001  16.085  23.321  0.00  0.00    +0.000 C 
ATOM     18  C   UNL     1      -1.058  13.602  23.037  0.00  0.00    +0.000 A 
ENDBRANCH   7  11
ENDBRANCH   2   5
BRANCH   1  20
ATOM     19  C   UNL     1       1.688   5.589  19.994  0.00  0.00    +0.000 C 
ATOM     20  N   UNL     1       2.242   6.669  20.445  0.00  0.00    +0.000 NA
BRANCH  19  30
ATOM     21  C   UNL     1       2.190   3.280  19.212  0.00  0.00    +0.000 A 
ATOM     22  C   UNL     1       2.890   2.387  18.399  0.00  0.00    +0.000 A 
ATOM     23  C   UNL     1       3.811   2.850  17.461  0.00  0.00    +0.000 A 
ATOM     24  C   UNL     1       4.041   4.217  17.289  0.00  0.00    +0.000 A 
ATOM     25  C   UNL     1       4.955   4.634  16.308  0.00  0.00    +0.000 A 
ATOM     26  C   UNL     1       5.203   5.985  16.082  0.00  0.00    +0.000 A 
ATOM     27  C   UNL     1       4.533   6.932  16.836  0.00  0.00    +0.000 A 
ATOM     28  C   UNL     1       3.622   6.529  17.816  0.00  0.00    +0.000 A 
ATOM     29  C   UNL     1       3.346   5.162  18.088  0.00  0.00    +0.000 A 
ATOM     30  C   UNL     1       2.423   4.668  19.073  0.00  0.00    +0.000 A 
BRANCH  21  32
ATOM     31  C   UNL     1       1.776   2.520  21.434  0.00  0.00    +0.000 C 
ATOM     32  O   UNL     1       1.269   2.870  20.147  0.00  0.00    +0.000 OA
ENDBRANCH  21  32
ENDBRANCH  19  30
ENDBRANCH   1  20
TORSDOF 5
ENDMDL
MODEL 4
REMARK VINA RESULT:      -9.0      1.669      3.054
REMARK  Name = 
REMARK  8 active torsions:
REMARK  status: ('A' for Active; 'I' for Inactive)
REMARK    1  A    between atoms: C_1  and  O_2
REMARK    2  A    between atoms: O_2  and  C_3
REMARK    3  A    between atoms: C_12  and  C_13
REMARK    4  A    between atoms: N_14  and  N_15
REMARK    5  A    between atoms: C_16  and  C_18
REMARK    6  A    between atoms: C_20  and  C_21
REMARK    7  A    between atoms: C_24  and  C_25
REMARK    8  A    between atoms: C_26  and  C_27
REMARK                            x       y       z     vdW  Elec       q    Type
REMARK                         _______ _______ _______ _____ _____    ______ ____
ROOT
ATOM      1  N   UNL     1       1.960   8.517  19.784  0.00  0.00    +0.000 N 
ATOM      2  C   UNL     1       1.065   8.601  20.851  0.00  0.00    +0.000 C 
ATOM      3  O   UNL     1       0.715   7.651  21.549  0.00  0.00    +0.000 OA
ATOM      4  H   UNL     1       2.213   9.371  19.296  0.00  0.00    +0.000 HD
ENDROOT
BRANCH   2   5
ATOM      5  C   UNL     1       0.554   9.961  21.097  0.00  0.00    +0.000 A 
ATOM      6  C   UNL     1      -0.342  10.350  22.134  0.00  0.00    +0.000 A 
ATOM      7  C   UNL     1      -0.558  11.705  21.979  0.00  0.00    +0.000 A 
ATOM      8  N   UNL     1       0.226  12.046  20.904  0.00  0.00    +0.000 N 
ATOM      9  N   UNL     1       0.896  11.022  20.339  0.00  0.00    +0.000 NA
ATOM     10  H   UNL     1       0.355  12.974  20.517  0.00  0.00    +0.000 HD
BRANCH   7  11
ATOM     11  C   UNL     1      -1.363  12.669  22.735  0.00  0.00    +0.000 A 
ATOM     12  C   UNL     1      -0.862  13.935  23.053  0.00  0.00    +0.000 A 
ATOM     13  C   UNL     1      -1.611  14.831  23.823  0.00  0.00    +0.000 A 
ATOM     14  C   UNL     1      -2.886  14.490  24.294  0.00  0.00    +0.000 A 
ATOM     15  C   UNL     1      -3.629  15.477  25.155  0.00  0.00    +0.000 C 
ATOM     16  C   UNL     1      -3.423  13.235  23.956  0.00  0.00    +0.000 A 
ATOM     17  C   UNL     1      -4.791  12.786  24.397  0.00  0.00    +0.000 C 
ATOM     18  C   UNL     1      -2.654  12.342  23.176  0.00  0.00    +0.000 A 
ENDBRANCH   7  11
ENDBRANCH   2   5
BRANCH   1  20
ATOM     19  C   UNL     1       2.520   6.915  18.251  0.00  0.00    +0.000 C 
ATOM     20  N   UNL     1       2.528   7.315  19.482  0.00  0.00    +0.000 NA
BRANCH  19  30
ATOM     21  C   UNL     1       4.397   5.704  17.151  0.00  0.00    +0.000 A 
ATOM     22  C   UNL     1       5.012   4.527  16.723  0.00  0.00    +0.000 A 
ATOM     23  C   UNL     1       4.427   3.286  16.976  0.00  0.00    +0.000 A 
ATOM     24  C   UNL     1       3.228   3.185  17.685  0.00  0.00    +0.000 A 
ATOM     25  C   UNL     1       2.697   1.910  17.942  0.00  0.00    +0.000 A 
ATOM     26  C   UNL     1       1.517   1.754  18.663  0.00  0.00    +0.000 A 
ATOM     27  C   UNL     1       0.858   2.875  19.137  0.00  0.00    +0.000 A 
ATOM     28  C   UNL     1       1.377   4.148  18.887  0.00  0.00    +0.000 A 
ATOM     29  C   UNL     1       2.571   4.356  18.146  0.00  0.00    +0.000 A 
ATOM     30  C   UNL     1       3.170   5.628  17.850  0.00  0.00    +0.000 A 
BRANCH  21  32
ATOM     31  C   UNL     1       6.347   7.075  17.112  0.00  0.00    +0.000 C 
ATOM     32  O   UNL     1       4.937   6.949  16.930  0.00  0.00    +0.000 OA
ENDBRANCH  21  32
ENDBRANCH  19  30
ENDBRANCH   1  20
TORSDOF 5
ENDMDL
MODEL 5
REMARK VINA RESULT:      -9.0      2.249      3.409
REMARK  Name = 
REMARK  8 active torsions:
REMARK  status: ('A' for Active; 'I' for Inactive)
REMARK    1  A    between atoms: C_1  and  O_2
REMARK    2  A    between atoms: O_2  and  C_3
REMARK    3  A    between atoms: C_12  and  C_13
REMARK    4  A    between atoms: N_14  and  N_15
REMARK    5  A    between atoms: C_16  and  C_18
REMARK    6  A    between atoms: C_20  and  C_21
REMARK    7  A    between atoms: C_24  and  C_25
REMARK    8  A    between atoms: C_26  and  C_27
REMARK                            x       y       z     vdW  Elec       q    Type
REMARK                         _______ _______ _______ _____ _____    ______ ____
ROOT
ATOM      1  N   UNL     1       1.683   9.193  18.767  0.00  0.00    +0.000 N 
ATOM      2  C   UNL     1       0.505   9.833  18.380  0.00  0.00    +0.000 C 
ATOM      3  O   UNL     1      -0.235   9.453  17.475  0.00  0.00    +0.000 OA
ATOM      4  H   UNL     1       2.201   9.567  19.555  0.00  0.00    +0.000 HD
ENDROOT
BRANCH   2   5
ATOM      5  C   UNL     1       0.195  11.039  19.168  0.00  0.00    +0.000 A 
ATOM      6  C   UNL     1      -0.520  11.079  20.400  0.00  0.00    +0.000 A 
ATOM      7  C   UNL     1      -0.588  12.408  20.771  0.00  0.00    +0.000 A 
ATOM      8  N   UNL     1       0.099  13.066  19.781  0.00  0.00    +0.000 N 
ATOM      9  N   UNL     1       0.571  12.278  18.794  0.00  0.00    +0.000 NA
ATOM     10  H   UNL     1       0.293  14.059  19.733  0.00  0.00    +0.000 HD
BRANCH   7  11
ATOM     11  C   UNL     1      -1.177  13.079  21.934  0.00  0.00    +0.000 A 
ATOM     12  C   UNL     1      -0.567  14.199  22.506  0.00  0.00    +0.000 A 
ATOM     13  C   UNL     1      -1.101  14.802  23.649  0.00  0.00    +0.000 A 
ATOM     14  C   UNL     1      -2.264  14.306  24.253  0.00  0.00    +0.000 A 
ATOM     15  C   UNL     1      -2.771  14.968  25.507  0.00  0.00    +0.000 C 
ATOM     16  C   UNL     1      -2.913  13.201  23.673  0.00  0.00    +0.000 A 
ATOM     17  C   UNL     1      -4.179  12.610  24.236  0.00  0.00    +0.000 C 
ATOM     18  C   UNL     1      -2.362  12.605  22.517  0.00  0.00    +0.000 A 
ENDBRANCH   7  11
ENDBRANCH   2   5
BRANCH   1  20
ATOM     19  C   UNL     1       2.852   7.227  18.746  0.00  0.00    +0.000 C 
ATOM     20  N   UNL     1       2.056   8.044  18.134  0.00  0.00    +0.000 NA
BRANCH  19  30
ATOM     21  C   UNL     1       4.369   5.944  17.246  0.00  0.00    +0.000 A 
ATOM     22  C   UNL     1       4.753   4.761  16.613  0.00  0.00    +0.000 A 
ATOM     23  C   UNL     1       4.053   3.575  16.835  0.00  0.00    +0.000 A 
ATOM     24  C   UNL     1       2.969   3.531  17.714  0.00  0.00    +0.000 A 
ATOM     25  C   UNL     1       2.317   2.305  17.928  0.00  0.00    +0.000 A 
ATOM     26  C   UNL     1       1.246   2.203  18.811  0.00  0.00    +0.000 A 
ATOM     27  C   UNL     1       0.819   3.330  19.491  0.00  0.00    +0.000 A 
ATOM     28  C   UNL     1       1.459   4.555  19.285  0.00  0.00    +0.000 A 
ATOM     29  C   UNL     1       2.548   4.708  18.386  0.00  0.00    +0.000 A 
ATOM     30  C   UNL     1       3.259   5.929  18.123  0.00  0.00    +0.000 A 
BRANCH  21  32
ATOM     31  C   UNL     1       6.449   7.109  17.225  0.00  0.00    +0.000 C 
ATOM     32  O   UNL     1       5.031   7.135  17.063  0.00  0.00    +0.000 OA
ENDBRANCH  21  32
ENDBRANCH  19  30
ENDBRANCH   1  20
TORSDOF 5
ENDMDL
MODEL 6
REMARK VINA RESULT:      -8.9      1.698      1.806
REMARK  Name = 
REMARK  8 active torsions:
REMARK  status: ('A' for Active; 'I' for Inactive)
REMARK    1  A    between atoms: C_1  and  O_2
REMARK    2  A    between atoms: O_2  and  C_3
REMARK    3  A    between atoms: C_12  and  C_13
REMARK    4  A    between atoms: N_14  and  N_15
REMARK    5  A    between atoms: C_16  and  C_18
REMARK    6  A    between atoms: C_20  and  C_21
REMARK    7  A    between atoms: C_24  and  C_25
REMARK    8  A    between atoms: C_26  and  C_27
REMARK                            x       y       z     vdW  Elec       q    Type
REMARK                         _______ _______ _______ _____ _____    ______ ____
ROOT
ATOM      1  N   UNL     1       1.804   8.825  19.328  0.00  0.00    +0.000 N 
ATOM      2  C   UNL     1       0.869   9.728  18.822  0.00  0.00    +0.000 C 
ATOM      3  O   UNL     1       0.261   9.588  17.762  0.00  0.00    +0.000 OA
ATOM      4  H   UNL     1       2.221   9.016  20.233  0.00  0.00    +0.000 HD
ENDROOT
BRANCH   2   5
ATOM      5  C   UNL     1       0.645  10.902  19.684  0.00  0.00    +0.000 A 
ATOM      6  C   UNL     1      -0.408  11.064  20.630  0.00  0.00    +0.000 A 
ATOM      7  C   UNL     1      -0.238  12.312  21.196  0.00  0.00    +0.000 A 
ATOM      8  N   UNL     1       0.895  12.799  20.594  0.00  0.00    +0.000 N 
ATOM      9  N   UNL     1       1.445  11.987  19.669  0.00  0.00    +0.000 NA
ATOM     10  H   UNL     1       1.354  13.683  20.786  0.00  0.00    +0.000 HD
BRANCH   7  11
ATOM     11  C   UNL     1      -0.985  13.037  22.229  0.00  0.00    +0.000 A 
ATOM     12  C   UNL     1      -0.540  14.274  22.705  0.00  0.00    +0.000 A 
ATOM     13  C   UNL     1      -1.224  14.936  23.731  0.00  0.00    +0.000 A 
ATOM     14  C   UNL     1      -2.375  14.383  24.308  0.00  0.00    +0.000 A 
ATOM     15  C   UNL     1      -3.046  15.118  25.438  0.00  0.00    +0.000 C 
ATOM     16  C   UNL     1      -2.859  13.156  23.819  0.00  0.00    +0.000 A 
ATOM     17  C   UNL     1      -4.098  12.493  24.359  0.00  0.00    +0.000 C 
ATOM     18  C   UNL     1      -2.158  12.501  22.781  0.00  0.00    +0.000 A 
ENDBRANCH   7  11
ENDBRANCH   2   5
BRANCH   1  20
ATOM     19  C   UNL     1       2.672   6.711  19.244  0.00  0.00    +0.000 C 
ATOM     20  N   UNL     1       2.070   7.681  18.635  0.00  0.00    +0.000 NA
BRANCH  19  30
ATOM     21  C   UNL     1       2.252   4.268  19.006  0.00  0.00    +0.000 A 
ATOM     22  C   UNL     1       2.514   3.032  18.413  0.00  0.00    +0.000 A 
ATOM     23  C   UNL     1       3.451   2.919  17.387  0.00  0.00    +0.000 A 
ATOM     24  C   UNL     1       4.133   4.040  16.906  0.00  0.00    +0.000 A 
ATOM     25  C   UNL     1       5.044   3.878  15.849  0.00  0.00    +0.000 A 
ATOM     26  C   UNL     1       5.732   4.965  15.319  0.00  0.00    +0.000 A 
ATOM     27  C   UNL     1       5.512   6.227  15.842  0.00  0.00    +0.000 A 
ATOM     28  C   UNL     1       4.609   6.399  16.894  0.00  0.00    +0.000 A 
ATOM     29  C   UNL     1       3.893   5.318  17.474  0.00  0.00    +0.000 A 
ATOM     30  C   UNL     1       2.948   5.413  18.552  0.00  0.00    +0.000 A 
BRANCH  21  32
ATOM     31  C   UNL     1       1.216   3.357  20.951  0.00  0.00    +0.000 C 
ATOM     32  O   UNL     1       1.334   4.430  20.016  0.00  0.00    +0.000 OA
ENDBRANCH  21  32
ENDBRANCH  19  30
ENDBRANCH   1  20
TORSDOF 5
ENDMDL
MODEL 7
REMARK VINA RESULT:      -8.9      3.696      5.095
REMARK  Name = 
REMARK  8 active torsions:
REMARK  status: ('A' for Active; 'I' for Inactive)
REMARK    1  A    between atoms: C_1  and  O_2
REMARK    2  A    between atoms: O_2  and  C_3
REMARK    3  A    between atoms: C_12  and  C_13
REMARK    4  A    between atoms: N_14  and  N_15
REMARK    5  A    between atoms: C_16  and  C_18
REMARK    6  A    between atoms: C_20  and  C_21
REMARK    7  A    between atoms: C_24  and  C_25
REMARK    8  A    between atoms: C_26  and  C_27
REMARK                            x       y       z     vdW  Elec       q    Type
REMARK                         _______ _______ _______ _____ _____    ______ ____
ROOT
ATOM      1  N   UNL     1       1.818   9.027  18.563  0.00  0.00    +0.000 N 
ATOM      2  C   UNL     1       1.120   9.377  19.719  0.00  0.00    +0.000 C 
ATOM      3  O   UNL     1       0.594   8.576  20.489  0.00  0.00    +0.000 OA
ATOM      4  H   UNL     1       2.249   9.766  18.015  0.00  0.00    +0.000 HD
ENDROOT
BRANCH   2   5
ATOM      5  C   UNL     1       1.062  10.828  19.966  0.00  0.00    +0.000 A 
ATOM      6  C   UNL     1       0.974  11.849  18.975  0.00  0.00    +0.000 A 
ATOM      7  C   UNL     1       0.960  13.052  19.652  0.00  0.00    +0.000 A 
ATOM      8  N   UNL     1       1.006  12.690  20.976  0.00  0.00    +0.000 N 
ATOM      9  N   UNL     1       1.083  11.364  21.203  0.00  0.00    +0.000 NA
ATOM     10  H   UNL     1       0.973  13.311  21.777  0.00  0.00    +0.000 HD
BRANCH   7  11
ATOM     11  C   UNL     1       0.870  14.442  19.193  0.00  0.00    +0.000 A 
ATOM     12  C   UNL     1      -0.316  15.170  19.324  0.00  0.00    +0.000 A 
ATOM     13  C   UNL     1      -0.415  16.476  18.834  0.00  0.00    +0.000 A 
ATOM     14  C   UNL     1       0.671  17.096  18.202  0.00  0.00    +0.000 A 
ATOM     15  C   UNL     1       0.496  18.488  17.655  0.00  0.00    +0.000 C 
ATOM     16  C   UNL     1       1.885  16.393  18.092  0.00  0.00    +0.000 A 
ATOM     17  C   UNL     1       3.114  16.982  17.449  0.00  0.00    +0.000 C 
ATOM     18  C   UNL     1       1.969  15.076  18.594  0.00  0.00    +0.000 A 
ENDBRANCH   7  11
ENDBRANCH   2   5
BRANCH   1  20
ATOM     19  C   UNL     1       3.092   7.128  18.529  0.00  0.00    +0.000 C 
ATOM     20  N   UNL     1       1.970   7.709  18.247  0.00  0.00    +0.000 NA
BRANCH  19  30
ATOM     21  C   UNL     1       4.203   5.327  17.218  0.00  0.00    +0.000 A 
ATOM     22  C   UNL     1       4.393   3.981  16.902  0.00  0.00    +0.000 A 
ATOM     23  C   UNL     1       3.703   2.984  17.590  0.00  0.00    +0.000 A 
ATOM     24  C   UNL     1       2.826   3.300  18.630  0.00  0.00    +0.000 A 
ATOM     25  C   UNL     1       2.180   2.257  19.314  0.00  0.00    +0.000 A 
ATOM     26  C   UNL     1       1.314   2.517  20.372  0.00  0.00    +0.000 A 
ATOM     27  C   UNL     1       1.088   3.827  20.757  0.00  0.00    +0.000 A 
ATOM     28  C   UNL     1       1.725   4.873  20.083  0.00  0.00    +0.000 A 
ATOM     29  C   UNL     1       2.608   4.655  18.992  0.00  0.00    +0.000 A 
ATOM     30  C   UNL     1       3.302   5.673  18.252  0.00  0.00    +0.000 A 
BRANCH  21  32
ATOM     31  C   UNL     1       6.285   6.370  16.707  0.00  0.00    +0.000 C 
ATOM     32  O   UNL     1       4.864   6.344  16.571  0.00  0.00    +0.000 OA
ENDBRANCH  21  32
ENDBRANCH  19  30
ENDBRANCH   1  20
TORSDOF 5
ENDMDL
MODEL 8
REMARK VINA RESULT:      -8.8      3.339      3.748
REMARK  Name = 
REMARK  8 active torsions:
REMARK  status: ('A' for Active; 'I' for Inactive)
REMARK    1  A    between atoms: C_1  and  O_2
REMARK    2  A    between atoms: O_2  and  C_3
REMARK    3  A    between atoms: C_12  and  C_13
REMARK    4  A    between atoms: N_14  and  N_15
REMARK    5  A    between atoms: C_16  and  C_18
REMARK    6  A    between atoms: C_20  and  C_21
REMARK    7  A    between atoms: C_24  and  C_25
REMARK    8  A    between atoms: C_26  and  C_27
REMARK                            x       y       z     vdW  Elec       q    Type
REMARK                         _______ _______ _______ _____ _____    ______ ____
ROOT
ATOM      1  N   UNL     1       1.388   8.631  19.489  0.00  0.00    +0.000 N 
ATOM      2  C   UNL     1       1.298   9.530  18.427  0.00  0.00    +0.000 C 
ATOM      3  O   UNL     1       2.059   9.552  17.461  0.00  0.00    +0.000 OA
ATOM      4  H   UNL     1       0.684   8.672  20.219  0.00  0.00    +0.000 HD
ENDROOT
BRANCH   2   5
ATOM      5  C   UNL     1       0.180  10.482  18.543  0.00  0.00    +0.000 A 
ATOM      6  C   UNL     1      -1.196  10.200  18.300  0.00  0.00    +0.000 A 
ATOM      7  C   UNL     1      -1.882  11.380  18.514  0.00  0.00    +0.000 A 
ATOM      8  N   UNL     1      -0.906  12.269  18.893  0.00  0.00    +0.000 N 
ATOM      9  N   UNL     1       0.346  11.770  18.907  0.00  0.00    +0.000 NA
ATOM     10  H   UNL     1      -1.039  13.234  19.171  0.00  0.00    +0.000 HD
BRANCH   7  11
ATOM     11  C   UNL     1      -3.306  11.721  18.437  0.00  0.00    +0.000 A 
ATOM     12  C   UNL     1      -4.031  11.527  17.258  0.00  0.00    +0.000 A 
ATOM     13  C   UNL     1      -5.374  11.906  17.171  0.00  0.00    +0.000 A 
ATOM     14  C   UNL     1      -6.035  12.488  18.262  0.00  0.00    +0.000 A 
ATOM     15  C   UNL     1      -7.469  12.916  18.099  0.00  0.00    +0.000 C 
ATOM     16  C   UNL     1      -5.332  12.659  19.469  0.00  0.00    +0.000 A 
ATOM     17  C   UNL     1      -5.961  13.254  20.701  0.00  0.00    +0.000 C 
ATOM     18  C   UNL     1      -3.977  12.269  19.541  0.00  0.00    +0.000 A 
ENDBRANCH   7  11
ENDBRANCH   2   5
BRANCH   1  20
ATOM     19  C   UNL     1       2.083   6.509  18.993  0.00  0.00    +0.000 C 
ATOM     20  N   UNL     1       2.363   7.677  19.476  0.00  0.00    +0.000 NA
BRANCH  19  30
ATOM     21  C   UNL     1       3.048   4.376  19.840  0.00  0.00    +0.000 A 
ATOM     22  C   UNL     1       4.024   3.379  19.818  0.00  0.00    +0.000 A 
ATOM     23  C   UNL     1       5.067   3.424  18.893  0.00  0.00    +0.000 A 
ATOM     24  C   UNL     1       5.149   4.449  17.948  0.00  0.00    +0.000 A 
ATOM     25  C   UNL     1       6.200   4.432  17.017  0.00  0.00    +0.000 A 
ATOM     26  C   UNL     1       6.314   5.417  16.041  0.00  0.00    +0.000 A 
ATOM     27  C   UNL     1       5.373   6.430  15.986  0.00  0.00    +0.000 A 
ATOM     28  C   UNL     1       4.323   6.457  16.908  0.00  0.00    +0.000 A 
ATOM     29  C   UNL     1       4.173   5.480  17.928  0.00  0.00    +0.000 A 
ATOM     30  C   UNL     1       3.123   5.437  18.907  0.00  0.00    +0.000 A 
BRANCH  21  32
ATOM     31  C   UNL     1       1.847   3.200  21.531  0.00  0.00    +0.000 C 
ATOM     32  O   UNL     1       1.999   4.371  20.729  0.00  0.00    +0.000 OA
ENDBRANCH  21  32
ENDBRANCH  19  30
ENDBRANCH   1  20
TORSDOF 5
ENDMDL
MODEL 9
REMARK VINA RESULT:      -8.8      3.588      4.835
REMARK  Name = 
REMARK  8 active torsions:
REMARK  status: ('A' for Active; 'I' for Inactive)
REMARK    1  A    between atoms: C_1  and  O_2
REMARK    2  A    between atoms: O_2  and  C_3
REMARK    3  A    between atoms: C_12  and  C_13
REMARK    4  A    between atoms: N_14  and  N_15
REMARK    5  A    between atoms: C_16  and  C_18
REMARK    6  A    between atoms: C_20  and  C_21
REMARK    7  A    between atoms: C_24  and  C_25
REMARK    8  A    between atoms: C_26  and  C_27
REMARK                            x       y       z     vdW  Elec       q    Type
REMARK                         _______ _______ _______ _____ _____    ______ ____
ROOT
ATOM      1  N   UNL     1       1.796   9.065  18.318  0.00  0.00    +0.000 N 
ATOM      2  C   UNL     1       1.283   9.376  19.577  0.00  0.00    +0.000 C 
ATOM      3  O   UNL     1       0.963   8.548  20.429  0.00  0.00    +0.000 OA
ATOM      4  H   UNL     1       2.067   9.826  17.704  0.00  0.00    +0.000 HD
ENDROOT
BRANCH   2   5
ATOM      5  C   UNL     1       1.154  10.822  19.829  0.00  0.00    +0.000 A 
ATOM      6  C   UNL     1       1.169  11.853  18.847  0.00  0.00    +0.000 A 
ATOM      7  C   UNL     1       1.035  13.047  19.528  0.00  0.00    +0.000 A 
ATOM      8  N   UNL     1       0.918  12.668  20.843  0.00  0.00    +0.000 N 
ATOM      9  N   UNL     1       1.000  11.342  21.064  0.00  0.00    +0.000 NA
ATOM     10  H   UNL     1       0.764  13.277  21.639  0.00  0.00    +0.000 HD
BRANCH   7  11
ATOM     11  C   UNL     1       0.969  14.440  19.075  0.00  0.00    +0.000 A 
ATOM     12  C   UNL     1       2.099  15.086  18.565  0.00  0.00    +0.000 A 
ATOM     13  C   UNL     1       2.046  16.432  18.187  0.00  0.00    +0.000 A 
ATOM     14  C   UNL     1       0.861  17.171  18.303  0.00  0.00    +0.000 A 
ATOM     15  C   UNL     1       0.873  18.627  17.922  0.00  0.00    +0.000 C 
ATOM     16  C   UNL     1      -0.296  16.529  18.781  0.00  0.00    +0.000 A 
ATOM     17  C   UNL     1      -1.621  17.232  18.921  0.00  0.00    +0.000 C 
ATOM     18  C   UNL     1      -0.227  15.169  19.157  0.00  0.00    +0.000 A 
ENDBRANCH   7  11
ENDBRANCH   2   5
BRANCH   1  20
ATOM     19  C   UNL     1       3.016   7.137  18.480  0.00  0.00    +0.000 C 
ATOM     20  N   UNL     1       1.995   7.757  17.983  0.00  0.00    +0.000 NA
BRANCH  19  30
ATOM     21  C   UNL     1       4.173   5.376  17.153  0.00  0.00    +0.000 A 
ATOM     22  C   UNL     1       4.395   4.038  16.823  0.00  0.00    +0.000 A 
ATOM     23  C   UNL     1       3.726   3.018  17.499  0.00  0.00    +0.000 A 
ATOM     24  C   UNL     1       2.838   3.302  18.539  0.00  0.00    +0.000 A 
ATOM     25  C   UNL     1       2.215   2.238  19.210  0.00  0.00    +0.000 A 
ATOM     26  C   UNL     1       1.340   2.467  20.267  0.00  0.00    +0.000 A 
ATOM     27  C   UNL     1       1.083   3.767  20.666  0.00  0.00    +0.000 A 
ATOM     28  C   UNL     1       1.698   4.834  20.005  0.00  0.00    +0.000 A 
ATOM     29  C   UNL     1       2.588   4.648  18.914  0.00  0.00    +0.000 A 
ATOM     30  C   UNL     1       3.260   5.690  18.188  0.00  0.00    +0.000 A 
BRANCH  21  32
ATOM     31  C   UNL     1       6.214   6.541  16.756  0.00  0.00    +0.000 C 
ATOM     32  O   UNL     1       4.812   6.415  16.519  0.00  0.00    +0.000 OA
ENDBRANCH  21  32
ENDBRANCH  19  30
ENDBRANCH   1  20
TORSDOF 5
ENDMDL
