MODEL 1
REMARK VINA RESULT:      -8.1      0.000      0.000
REMARK  Name = 
REMARK  5 active torsions:
REMARK  status: ('A' for Active; 'I' for Inactive)
REMARK    1  A    between atoms: C_1  and  C_2
REMARK    2  A    between atoms: N_5  and  C_6
REMARK    3  A    between atoms: C_6  and  C_7
REMARK    4  A    between atoms: C_12  and  C_14
REMARK    5  A    between atoms: C_14  and  C_15
REMARK                            x       y       z     vdW  Elec       q    Type
REMARK                         _______ _______ _______ _____ _____    ______ ____
ROOT
ATOM      1  C   UNL     1       2.027   4.435  19.427  0.00  0.00    +0.000 C 
ATOM      2  C   UNL     1       0.680   4.013  20.042  0.00  0.00    +0.000 C 
ATOM      3  C   UNL     1       0.494   2.571  19.609  0.00  0.00    +0.000 C 
ATOM      4  C   UNL     1       1.908   2.030  19.473  0.00  0.00    +0.000 C 
ATOM      5  N   UNL     1       2.807   3.180  19.524  0.00  0.00    +0.000 N 
ATOM      6  C   UNL     1       4.163   2.913  19.462  0.00  0.00    +0.000 C 
ATOM      7  O   UNL     1       4.568   1.747  19.392  0.00  0.00    +0.000 OA
ENDROOT
BRANCH   1   8
ATOM      8  C   UNL     1       2.577   5.686  20.111  0.00  0.00    +0.000 C 
BRANCH   8  13
ATOM      9  C   UNL     1       1.335  10.193  18.354  0.00  0.00    +0.000 C 
ATOM     10  C   UNL     1       1.923   8.847  18.512  0.00  0.00    +0.000 A 
ATOM     11  C   UNL     1       2.730   8.116  17.611  0.00  0.00    +0.000 A 
ATOM     12  N   UNL     1       3.075   6.912  18.079  0.00  0.00    +0.000 NA
ATOM     13  N   UNL     1       2.489   6.878  19.293  0.00  0.00    +0.000 N 
ATOM     14  C   UNL     1       1.788   8.007  19.595  0.00  0.00    +0.000 A 
ENDBRANCH   8  13
ENDBRANCH   1   8
BRANCH   6  15
ATOM     15  C   UNL     1       5.189   4.032  19.516  0.00  0.00    +0.000 C 
BRANCH  15  16
ATOM     16  C   UNL     1       5.751   4.507  18.192  0.00  0.00    +0.000 A 
ATOM     17  C   UNL     1       6.840   5.411  18.215  0.00  0.00    +0.000 A 
ATOM     18  C   UNL     1       7.464   5.834  17.032  0.00  0.00    +0.000 A 
ATOM     19  C   UNL     1       6.996   5.325  15.841  0.00  0.00    +0.000 A 
ATOM     20  C   UNL     1       5.932   4.439  15.800  0.00  0.00    +0.000 A 
ATOM     21  C   UNL     1       5.285   4.031  16.956  0.00  0.00    +0.000 A 
ATOM     22  C   UNL     1       5.638   4.090  14.392  0.00  0.00    +0.000 C 
ATOM     23  C   UNL     1       6.915   4.625  13.742  0.00  0.00    +0.000 C 
ATOM     24  O   UNL     1       7.511   5.622  14.608  0.00  0.00    +0.000 OA
ENDBRANCH  15  16
ENDBRANCH   6  15
TORSDOF 4
ENDMDL
MODEL 2
REMARK VINA RESULT:      -7.7      2.916      6.143
REMARK  Name = 
REMARK  5 active torsions:
REMARK  status: ('A' for Active; 'I' for Inactive)
REMARK    1  A    between atoms: C_1  and  C_2
REMARK    2  A    between atoms: N_5  and  C_6
REMARK    3  A    between atoms: C_6  and  C_7
REMARK    4  A    between atoms: C_12  and  C_14
REMARK    5  A    between atoms: C_14  and  C_15
REMARK                            x       y       z     vdW  Elec       q    Type
REMARK                         _______ _______ _______ _____ _____    ______ ____
ROOT
ATOM      1  C   UNL     1       3.364   3.625  18.277  0.00  0.00    +0.000 C 
ATOM      2  C   UNL     1       2.666   2.419  17.624  0.00  0.00    +0.000 C 
ATOM      3  C   UNL     1       1.874   1.777  18.749  0.00  0.00    +0.000 C 
ATOM      4  C   UNL     1       1.533   2.930  19.679  0.00  0.00    +0.000 C 
ATOM      5  N   UNL     1       2.346   4.068  19.257  0.00  0.00    +0.000 N 
ATOM      6  C   UNL     1       2.162   5.253  19.945  0.00  0.00    +0.000 C 
ATOM      7  O   UNL     1       1.327   5.325  20.854  0.00  0.00    +0.000 OA
ENDROOT
BRANCH   1   8
ATOM      8  C   UNL     1       3.840   4.623  17.223  0.00  0.00    +0.000 C 
BRANCH   8  13
ATOM      9  C   UNL     1       7.786   7.654  17.664  0.00  0.00    +0.000 C 
ATOM     10  C   UNL     1       6.907   6.466  17.640  0.00  0.00    +0.000 A 
ATOM     11  C   UNL     1       7.242   5.106  17.833  0.00  0.00    +0.000 A 
ATOM     12  N   UNL     1       6.189   4.290  17.727  0.00  0.00    +0.000 NA
ATOM     13  N   UNL     1       5.171   5.137  17.471  0.00  0.00    +0.000 N 
ATOM     14  C   UNL     1       5.551   6.444  17.406  0.00  0.00    +0.000 A 
ENDBRANCH   8  13
ENDBRANCH   1   8
BRANCH   6  15
ATOM     15  C   UNL     1       2.946   6.504  19.585  0.00  0.00    +0.000 C 
BRANCH  15  16
ATOM     16  C   UNL     1       2.149   7.777  19.391  0.00  0.00    +0.000 A 
ATOM     17  C   UNL     1       2.078   8.328  18.088  0.00  0.00    +0.000 A 
ATOM     18  C   UNL     1       1.295   9.459  17.814  0.00  0.00    +0.000 A 
ATOM     19  C   UNL     1       0.576  10.009  18.852  0.00  0.00    +0.000 A 
ATOM     20  C   UNL     1       0.633   9.484  20.133  0.00  0.00    +0.000 A 
ATOM     21  C   UNL     1       1.422   8.383  20.428  0.00  0.00    +0.000 A 
ATOM     22  C   UNL     1      -0.214  10.296  21.034  0.00  0.00    +0.000 C 
ATOM     23  C   UNL     1      -0.996  11.084  19.983  0.00  0.00    +0.000 C 
ATOM     24  O   UNL     1      -0.247  11.096  18.741  0.00  0.00    +0.000 OA
ENDBRANCH  15  16
ENDBRANCH   6  15
TORSDOF 4
ENDMDL
MODEL 3
REMARK VINA RESULT:      -7.5      2.774      6.212
REMARK  Name = 
REMARK  5 active torsions:
REMARK  status: ('A' for Active; 'I' for Inactive)
REMARK    1  A    between atoms: C_1  and  C_2
REMARK    2  A    between atoms: N_5  and  C_6
REMARK    3  A    between atoms: C_6  and  C_7
REMARK    4  A    between atoms: C_12  and  C_14
REMARK    5  A    between atoms: C_14  and  C_15
REMARK                            x       y       z     vdW  Elec       q    Type
REMARK                         _______ _______ _______ _____ _____    ______ ____
ROOT
ATOM      1  C   UNL     1       3.896   3.715  19.009  0.00  0.00    +0.000 C 
ATOM      2  C   UNL     1       3.864   2.904  17.701  0.00  0.00    +0.000 C 
ATOM      3  C   UNL     1       2.705   1.939  17.875  0.00  0.00    +0.000 C 
ATOM      4  C   UNL     1       1.737   2.670  18.792  0.00  0.00    +0.000 C 
ATOM      5  N   UNL     1       2.455   3.822  19.332  0.00  0.00    +0.000 N 
ATOM      6  C   UNL     1       1.742   4.663  20.167  0.00  0.00    +0.000 C 
ATOM      7  O   UNL     1       0.550   4.441  20.408  0.00  0.00    +0.000 OA
ENDROOT
BRANCH   1   8
ATOM      8  C   UNL     1       4.699   5.004  18.837  0.00  0.00    +0.000 C 
BRANCH   8  13
ATOM      9  C   UNL     1       7.129   4.936  14.474  0.00  0.00    +0.000 C 
ATOM     10  C   UNL     1       6.795   4.857  15.912  0.00  0.00    +0.000 A 
ATOM     11  C   UNL     1       7.619   4.484  16.998  0.00  0.00    +0.000 A 
ATOM     12  N   UNL     1       6.978   4.511  18.171  0.00  0.00    +0.000 NA
ATOM     13  N   UNL     1       5.736   4.911  17.830  0.00  0.00    +0.000 N 
ATOM     14  C   UNL     1       5.577   5.126  16.494  0.00  0.00    +0.000 A 
ENDBRANCH   8  13
ENDBRANCH   1   8
BRANCH   6  15
ATOM     15  C   UNL     1       2.385   5.896  20.778  0.00  0.00    +0.000 C 
BRANCH  15  16
ATOM     16  C   UNL     1       1.956   7.238  20.220  0.00  0.00    +0.000 A 
ATOM     17  C   UNL     1       2.281   7.536  18.875  0.00  0.00    +0.000 A 
ATOM     18  C   UNL     1       1.849   8.723  18.264  0.00  0.00    +0.000 A 
ATOM     19  C   UNL     1       1.076   9.585  19.011  0.00  0.00    +0.000 A 
ATOM     20  C   UNL     1       0.748   9.309  20.328  0.00  0.00    +0.000 A 
ATOM     21  C   UNL     1       1.188   8.155  20.957  0.00  0.00    +0.000 A 
ATOM     22  C   UNL     1      -0.059  10.422  20.875  0.00  0.00    +0.000 C 
ATOM     23  C   UNL     1      -0.408  11.131  19.567  0.00  0.00    +0.000 C 
ATOM     24  O   UNL     1       0.562  10.768  18.553  0.00  0.00    +0.000 OA
ENDBRANCH  15  16
ENDBRANCH   6  15
TORSDOF 4
ENDMDL
MODEL 4
REMARK VINA RESULT:      -7.5      0.990      1.289
REMARK  Name = 
REMARK  5 active torsions:
REMARK  status: ('A' for Active; 'I' for Inactive)
REMARK    1  A    between atoms: C_1  and  C_2
REMARK    2  A    between atoms: N_5  and  C_6
REMARK    3  A    between atoms: C_6  and  C_7
REMARK    4  A    between atoms: C_12  and  C_14
REMARK    5  A    between atoms: C_14  and  C_15
REMARK                            x       y       z     vdW  Elec       q    Type
REMARK                         _______ _______ _______ _____ _____    ______ ____
ROOT
ATOM      1  C   UNL     1       2.024   4.865  19.276  0.00  0.00    +0.000 C 
ATOM      2  C   UNL     1       1.049   4.347  20.348  0.00  0.00    +0.000 C 
ATOM      3  C   UNL     1       0.682   2.947  19.891  0.00  0.00    +0.000 C 
ATOM      4  C   UNL     1       1.906   2.463  19.130  0.00  0.00    +0.000 C 
ATOM      5  N   UNL     1       2.759   3.630  18.917  0.00  0.00    +0.000 N 
ATOM      6  C   UNL     1       3.964   3.411  18.275  0.00  0.00    +0.000 C 
ATOM      7  O   UNL     1       4.289   2.269  17.929  0.00  0.00    +0.000 OA
ENDROOT
BRANCH   1   8
ATOM      8  C   UNL     1       2.823   6.061  19.790  0.00  0.00    +0.000 C 
BRANCH   8  13
ATOM      9  C   UNL     1       0.612  10.489  19.120  0.00  0.00    +0.000 C 
ATOM     10  C   UNL     1       1.406   9.258  18.926  0.00  0.00    +0.000 A 
ATOM     11  C   UNL     1       2.102   8.820  17.777  0.00  0.00    +0.000 A 
ATOM     12  N   UNL     1       2.706   7.640  17.953  0.00  0.00    +0.000 NA
ATOM     13  N   UNL     1       2.398   7.327  19.227  0.00  0.00    +0.000 N 
ATOM     14  C   UNL     1       1.622   8.259  19.848  0.00  0.00    +0.000 A 
ENDBRANCH   8  13
ENDBRANCH   1   8
BRANCH   6  15
ATOM     15  C   UNL     1       4.934   4.549  18.009  0.00  0.00    +0.000 C 
BRANCH  15  16
ATOM     16  C   UNL     1       5.546   4.615  16.625  0.00  0.00    +0.000 A 
ATOM     17  C   UNL     1       6.861   5.126  16.499  0.00  0.00    +0.000 A 
ATOM     18  C   UNL     1       7.523   5.145  15.263  0.00  0.00    +0.000 A 
ATOM     19  C   UNL     1       6.861   4.629  14.171  0.00  0.00    +0.000 A 
ATOM     20  C   UNL     1       5.575   4.125  14.275  0.00  0.00    +0.000 A 
ATOM     21  C   UNL     1       4.894   4.122  15.482  0.00  0.00    +0.000 A 
ATOM     22  C   UNL     1       5.117   3.671  12.943  0.00  0.00    +0.000 C 
ATOM     23  C   UNL     1       6.461   3.673  12.214  0.00  0.00    +0.000 C 
ATOM     24  O   UNL     1       7.378   4.557  12.907  0.00  0.00    +0.000 OA
ENDBRANCH  15  16
ENDBRANCH   6  15
TORSDOF 4
ENDMDL
MODEL 5
REMARK VINA RESULT:      -7.4      2.965      6.521
REMARK  Name = 
REMARK  5 active torsions:
REMARK  status: ('A' for Active; 'I' for Inactive)
REMARK    1  A    between atoms: C_1  and  C_2
REMARK    2  A    between atoms: N_5  and  C_6
REMARK    3  A    between atoms: C_6  and  C_7
REMARK    4  A    between atoms: C_12  and  C_14
REMARK    5  A    between atoms: C_14  and  C_15
REMARK                            x       y       z     vdW  Elec       q    Type
REMARK                         _______ _______ _______ _____ _____    ______ ____
ROOT
ATOM      1  C   UNL     1       4.282   4.475  19.492  0.00  0.00    +0.000 C 
ATOM      2  C   UNL     1       4.754   3.011  19.454  0.00  0.00    +0.000 C 
ATOM      3  C   UNL     1       3.476   2.193  19.486  0.00  0.00    +0.000 C 
ATOM      4  C   UNL     1       2.442   3.079  18.810  0.00  0.00    +0.000 C 
ATOM      5  N   UNL     1       3.035   4.410  18.696  0.00  0.00    +0.000 N 
ATOM      6  C   UNL     1       2.276   5.377  18.063  0.00  0.00    +0.000 C 
ATOM      7  O   UNL     1       1.163   5.096  17.603  0.00  0.00    +0.000 OA
ENDROOT
BRANCH   1   8
ATOM      8  C   UNL     1       5.389   5.422  19.028  0.00  0.00    +0.000 C 
BRANCH   8  13
ATOM      9  C   UNL     1       6.175   3.991  14.308  0.00  0.00    +0.000 C 
ATOM     10  C   UNL     1       6.362   4.358  15.727  0.00  0.00    +0.000 A 
ATOM     11  C   UNL     1       7.539   4.321  16.509  0.00  0.00    +0.000 A 
ATOM     12  N   UNL     1       7.338   4.714  17.771  0.00  0.00    +0.000 NA
ATOM     13  N   UNL     1       6.023   5.010  17.792  0.00  0.00    +0.000 N 
ATOM     14  C   UNL     1       5.397   4.811  16.599  0.00  0.00    +0.000 A 
ENDBRANCH   8  13
ENDBRANCH   1   8
BRANCH   6  15
ATOM     15  C   UNL     1       2.797   6.792  17.880  0.00  0.00    +0.000 C 
BRANCH  15  16
ATOM     16  C   UNL     1       2.108   7.881  18.677  0.00  0.00    +0.000 A 
ATOM     17  C   UNL     1       1.610   9.007  17.977  0.00  0.00    +0.000 A 
ATOM     18  C   UNL     1       0.892  10.017  18.634  0.00  0.00    +0.000 A 
ATOM     19  C   UNL     1       0.665   9.870  19.984  0.00  0.00    +0.000 A 
ATOM     20  C   UNL     1       1.144   8.775  20.685  0.00  0.00    +0.000 A 
ATOM     21  C   UNL     1       1.879   7.781  20.059  0.00  0.00    +0.000 A 
ATOM     22  C   UNL     1       0.772   8.905  22.111  0.00  0.00    +0.000 C 
ATOM     23  C   UNL     1      -0.266  10.020  21.988  0.00  0.00    +0.000 C 
ATOM     24  O   UNL     1      -0.034  10.755  20.759  0.00  0.00    +0.000 OA
ENDBRANCH  15  16
ENDBRANCH   6  15
TORSDOF 4
ENDMDL
MODEL 6
REMARK VINA RESULT:      -7.3      2.765      5.946
REMARK  Name = 
REMARK  5 active torsions:
REMARK  status: ('A' for Active; 'I' for Inactive)
REMARK    1  A    between atoms: C_1  and  C_2
REMARK    2  A    between atoms: N_5  and  C_6
REMARK    3  A    between atoms: C_6  and  C_7
REMARK    4  A    between atoms: C_12  and  C_14
REMARK    5  A    between atoms: C_14  and  C_15
REMARK                            x       y       z     vdW  Elec       q    Type
REMARK                         _______ _______ _______ _____ _____    ______ ____
ROOT
ATOM      1  C   UNL     1       3.914   3.488  19.191  0.00  0.00    +0.000 C 
ATOM      2  C   UNL     1       3.977   2.736  17.849  0.00  0.00    +0.000 C 
ATOM      3  C   UNL     1       2.812   1.764  17.898  0.00  0.00    +0.000 C 
ATOM      4  C   UNL     1       1.780   2.454  18.774  0.00  0.00    +0.000 C 
ATOM      5  N   UNL     1       2.453   3.581  19.415  0.00  0.00    +0.000 N 
ATOM      6  C   UNL     1       1.680   4.384  20.233  0.00  0.00    +0.000 C 
ATOM      7  O   UNL     1       0.475   4.152  20.379  0.00  0.00    +0.000 OA
ENDROOT
BRANCH   1   8
ATOM      8  C   UNL     1       4.723   4.784  19.134  0.00  0.00    +0.000 C 
BRANCH   8  13
ATOM      9  C   UNL     1       7.013   4.919  14.697  0.00  0.00    +0.000 C 
ATOM     10  C   UNL     1       6.733   4.825  16.145  0.00  0.00    +0.000 A 
ATOM     11  C   UNL     1       7.626   4.562  17.209  0.00  0.00    +0.000 A 
ATOM     12  N   UNL     1       7.022   4.535  18.402  0.00  0.00    +0.000 NA
ATOM     13  N   UNL     1       5.733   4.790  18.096  0.00  0.00    +0.000 N 
ATOM     14  C   UNL     1       5.511   4.967  16.763  0.00  0.00    +0.000 A 
ENDBRANCH   8  13
ENDBRANCH   1   8
BRANCH   6  15
ATOM     15  C   UNL     1       2.274   5.590  20.942  0.00  0.00    +0.000 C 
BRANCH  15  16
ATOM     16  C   UNL     1       1.781   6.953  20.502  0.00  0.00    +0.000 A 
ATOM     17  C   UNL     1       0.978   7.695  21.402  0.00  0.00    +0.000 A 
ATOM     18  C   UNL     1       0.550   8.995  21.097  0.00  0.00    +0.000 A 
ATOM     19  C   UNL     1       0.954   9.541  19.898  0.00  0.00    +0.000 A 
ATOM     20  C   UNL     1       1.739   8.829  19.006  0.00  0.00    +0.000 A 
ATOM     21  C   UNL     1       2.149   7.533  19.277  0.00  0.00    +0.000 A 
ATOM     22  C   UNL     1       1.987   9.656  17.804  0.00  0.00    +0.000 C 
ATOM     23  C   UNL     1       1.533  11.011  18.347  0.00  0.00    +0.000 C 
ATOM     24  O   UNL     1       0.638  10.801  19.468  0.00  0.00    +0.000 OA
ENDBRANCH  15  16
ENDBRANCH   6  15
TORSDOF 4
ENDMDL
MODEL 7
REMARK VINA RESULT:      -7.3      2.901      6.469
REMARK  Name = 
REMARK  5 active torsions:
REMARK  status: ('A' for Active; 'I' for Inactive)
REMARK    1  A    between atoms: C_1  and  C_2
REMARK    2  A    between atoms: N_5  and  C_6
REMARK    3  A    between atoms: C_6  and  C_7
REMARK    4  A    between atoms: C_12  and  C_14
REMARK    5  A    between atoms: C_14  and  C_15
REMARK                            x       y       z     vdW  Elec       q    Type
REMARK                         _______ _______ _______ _____ _____    ______ ____
ROOT
ATOM      1  C   UNL     1       4.120   4.450  19.614  0.00  0.00    +0.000 C 
ATOM      2  C   UNL     1       4.652   3.008  19.529  0.00  0.00    +0.000 C 
ATOM      3  C   UNL     1       3.411   2.148  19.377  0.00  0.00    +0.000 C 
ATOM      4  C   UNL     1       2.415   3.043  18.658  0.00  0.00    +0.000 C 
ATOM      5  N   UNL     1       2.961   4.397  18.693  0.00  0.00    +0.000 N 
ATOM      6  C   UNL     1       2.231   5.380  18.050  0.00  0.00    +0.000 C 
ATOM      7  O   UNL     1       1.181   5.094  17.462  0.00  0.00    +0.000 OA
ENDROOT
BRANCH   1   8
ATOM      8  C   UNL     1       5.228   5.463  19.329  0.00  0.00    +0.000 C 
BRANCH   8  13
ATOM      9  C   UNL     1       6.759   4.487  14.676  0.00  0.00    +0.000 C 
ATOM     10  C   UNL     1       6.707   4.669  16.141  0.00  0.00    +0.000 A 
ATOM     11  C   UNL     1       7.705   4.408  17.108  0.00  0.00    +0.000 A 
ATOM     12  N   UNL     1       7.306   4.677  18.355  0.00  0.00    +0.000 NA
ATOM     13  N   UNL     1       6.044   5.121  18.182  0.00  0.00    +0.000 N 
ATOM     14  C   UNL     1       5.641   5.131  16.880  0.00  0.00    +0.000 A 
ENDBRANCH   8  13
ENDBRANCH   1   8
BRANCH   6  15
ATOM     15  C   UNL     1       2.709   6.821  18.014  0.00  0.00    +0.000 C 
BRANCH  15  16
ATOM     16  C   UNL     1       1.998   7.800  18.927  0.00  0.00    +0.000 A 
ATOM     17  C   UNL     1       1.819   7.438  20.284  0.00  0.00    +0.000 A 
ATOM     18  C   UNL     1       1.241   8.322  21.206  0.00  0.00    +0.000 A 
ATOM     19  C   UNL     1       0.870   9.570  20.754  0.00  0.00    +0.000 A 
ATOM     20  C   UNL     1       1.038   9.941  19.430  0.00  0.00    +0.000 A 
ATOM     21  C   UNL     1       1.582   9.071  18.499  0.00  0.00    +0.000 A 
ATOM     22  C   UNL     1       0.525  11.315  19.238  0.00  0.00    +0.000 C 
ATOM     23  C   UNL     1       0.405  11.734  20.703  0.00  0.00    +0.000 C 
ATOM     24  O   UNL     1       0.315  10.549  21.533  0.00  0.00    +0.000 OA
ENDBRANCH  15  16
ENDBRANCH   6  15
TORSDOF 4
ENDMDL
MODEL 8
REMARK VINA RESULT:      -7.3      3.062      6.323
REMARK  Name = 
REMARK  5 active torsions:
REMARK  status: ('A' for Active; 'I' for Inactive)
REMARK    1  A    between atoms: C_1  and  C_2
REMARK    2  A    between atoms: N_5  and  C_6
REMARK    3  A    between atoms: C_6  and  C_7
REMARK    4  A    between atoms: C_12  and  C_14
REMARK    5  A    between atoms: C_14  and  C_15
REMARK                            x       y       z     vdW  Elec       q    Type
REMARK                         _______ _______ _______ _____ _____    ______ ____
ROOT
ATOM      1  C   UNL     1       4.423   3.810  19.749  0.00  0.00    +0.000 C 
ATOM      2  C   UNL     1       4.403   2.275  19.870  0.00  0.00    +0.000 C 
ATOM      3  C   UNL     1       3.481   1.993  21.041  0.00  0.00    +0.000 C 
ATOM      4  C   UNL     1       2.497   3.152  21.038  0.00  0.00    +0.000 C 
ATOM      5  N   UNL     1       3.033   4.158  20.124  0.00  0.00    +0.000 N 
ATOM      6  C   UNL     1       2.268   5.294  19.931  0.00  0.00    +0.000 C 
ATOM      7  O   UNL     1       1.176   5.415  20.498  0.00  0.00    +0.000 OA
ENDROOT
BRANCH   1   8
ATOM      8  C   UNL     1       4.935   4.248  18.378  0.00  0.00    +0.000 C 
BRANCH   8  13
ATOM      9  C   UNL     1       7.927   8.152  17.509  0.00  0.00    +0.000 C 
ATOM     10  C   UNL     1       7.347   6.903  18.044  0.00  0.00    +0.000 A 
ATOM     11  C   UNL     1       7.895   5.998  18.982  0.00  0.00    +0.000 A 
ATOM     12  N   UNL     1       7.094   4.955  19.228  0.00  0.00    +0.000 NA
ATOM     13  N   UNL     1       6.024   5.202  18.445  0.00  0.00    +0.000 N 
ATOM     14  C   UNL     1       6.130   6.349  17.718  0.00  0.00    +0.000 A 
ENDBRANCH   8  13
ENDBRANCH   1   8
BRANCH   6  15
ATOM     15  C   UNL     1       2.723   6.401  18.996  0.00  0.00    +0.000 C 
BRANCH  15  16
ATOM     16  C   UNL     1       2.084   7.762  19.188  0.00  0.00    +0.000 A 
ATOM     17  C   UNL     1       1.916   8.587  18.050  0.00  0.00    +0.000 A 
ATOM     18  C   UNL     1       1.262   9.825  18.134  0.00  0.00    +0.000 A 
ATOM     19  C   UNL     1       0.767  10.208  19.362  0.00  0.00    +0.000 A 
ATOM     20  C   UNL     1       0.922   9.413  20.486  0.00  0.00    +0.000 A 
ATOM     21  C   UNL     1       1.589   8.199  20.427  0.00  0.00    +0.000 A 
ATOM     22  C   UNL     1       0.318  10.092  21.653  0.00  0.00    +0.000 C 
ATOM     23  C   UNL     1      -0.483  11.167  20.917  0.00  0.00    +0.000 C 
ATOM     24  O   UNL     1       0.089  11.372  19.601  0.00  0.00    +0.000 OA
ENDBRANCH  15  16
ENDBRANCH   6  15
TORSDOF 4
ENDMDL
MODEL 9
REMARK VINA RESULT:      -7.1      3.055      6.334
REMARK  Name = 
REMARK  5 active torsions:
REMARK  status: ('A' for Active; 'I' for Inactive)
REMARK    1  A    between atoms: C_1  and  C_2
REMARK    2  A    between atoms: N_5  and  C_6
REMARK    3  A    between atoms: C_6  and  C_7
REMARK    4  A    between atoms: C_12  and  C_14
REMARK    5  A    between atoms: C_14  and  C_15
REMARK                            x       y       z     vdW  Elec       q    Type
REMARK                         _______ _______ _______ _____ _____    ______ ____
ROOT
ATOM      1  C   UNL     1       3.548   4.141  18.009  0.00  0.00    +0.000 C 
ATOM      2  C   UNL     1       3.028   3.017  17.095  0.00  0.00    +0.000 C 
ATOM      3  C   UNL     1       2.262   2.090  18.021  0.00  0.00    +0.000 C 
ATOM      4  C   UNL     1       1.744   2.999  19.124  0.00  0.00    +0.000 C 
ATOM      5  N   UNL     1       2.438   4.277  18.980  0.00  0.00    +0.000 N 
ATOM      6  C   UNL     1       2.083   5.280  19.863  0.00  0.00    +0.000 C 
ATOM      7  O   UNL     1       1.201   5.087  20.708  0.00  0.00    +0.000 OA
ENDROOT
BRANCH   1   8
ATOM      8  C   UNL     1       3.955   5.369  17.196  0.00  0.00    +0.000 C 
BRANCH   8  13
ATOM      9  C   UNL     1       8.030   8.220  17.662  0.00  0.00    +0.000 C 
ATOM     10  C   UNL     1       7.093   7.077  17.656  0.00  0.00    +0.000 A 
ATOM     11  C   UNL     1       7.351   5.713  17.924  0.00  0.00    +0.000 A 
ATOM     12  N   UNL     1       6.262   4.945  17.812  0.00  0.00    +0.000 NA
ATOM     13  N   UNL     1       5.300   5.828  17.476  0.00  0.00    +0.000 N 
ATOM     14  C   UNL     1       5.748   7.111  17.367  0.00  0.00    +0.000 A 
ENDBRANCH   8  13
ENDBRANCH   1   8
BRANCH   6  15
ATOM     15  C   UNL     1       2.733   6.652  19.799  0.00  0.00    +0.000 C 
BRANCH  15  16
ATOM     16  C   UNL     1       1.835   7.845  20.055  0.00  0.00    +0.000 A 
ATOM     17  C   UNL     1       1.465   8.129  21.392  0.00  0.00    +0.000 A 
ATOM     18  C   UNL     1       0.703   9.260  21.715  0.00  0.00    +0.000 A 
ATOM     19  C   UNL     1       0.339  10.105  20.690  0.00  0.00    +0.000 A 
ATOM     20  C   UNL     1       0.691   9.844  19.376  0.00  0.00    +0.000 A 
ATOM     21  C   UNL     1       1.421   8.716  19.033  0.00  0.00    +0.000 A 
ATOM     22  C   UNL     1       0.140  10.902  18.501  0.00  0.00    +0.000 C 
ATOM     23  C   UNL     1      -0.230  11.929  19.571  0.00  0.00    +0.000 C 
ATOM     24  O   UNL     1      -0.384  11.256  20.846  0.00  0.00    +0.000 OA
ENDBRANCH  15  16
ENDBRANCH   6  15
TORSDOF 4
ENDMDL
