MODEL 1
REMARK VINA RESULT:      -6.5      0.000      0.000
REMARK  Name = 
REMARK  2 active torsions:
REMARK  status: ('A' for Active; 'I' for Inactive)
REMARK    1  A    between atoms: C_4  and  O_5
REMARK    2  A    between atoms: C_6  and  C_7
REMARK                            x       y       z     vdW  Elec       q    Type
REMARK                         _______ _______ _______ _____ _____    ______ ____
ROOT
ATOM      1  C   UNL     1       4.955   4.277  18.379  0.00  0.00    +0.000 A 
ATOM      2  C   UNL     1       5.611   4.684  19.549  0.00  0.00    +0.000 A 
ATOM      3  C   UNL     1       6.793   5.408  19.468  0.00  0.00    +0.000 A 
ATOM      4  C   UNL     1       7.334   5.711  18.220  0.00  0.00    +0.000 A 
ATOM      5  C   UNL     1       6.694   5.323  17.027  0.00  0.00    +0.000 A 
ATOM      6  C   UNL     1       5.481   4.621  17.101  0.00  0.00    +0.000 A 
ATOM      7  S   UNL     1       4.492   4.223  15.663  0.00  0.00    +0.000 S 
ATOM      8  C   UNL     1       5.614   4.156  14.299  0.00  0.00    +0.000 A 
ATOM      9  C   UNL     1       5.162   3.429  13.182  0.00  0.00    +0.000 A 
ATOM     10  C   UNL     1       5.912   3.368  12.009  0.00  0.00    +0.000 A 
ATOM     11  C   UNL     1       7.130   4.028  11.943  0.00  0.00    +0.000 A 
ATOM     12  C   UNL     1       7.591   4.746  13.049  0.00  0.00    +0.000 A 
ATOM     13  C   UNL     1       6.840   4.822  14.236  0.00  0.00    +0.000 A 
ATOM     14  S   UNL     1       7.500   5.851  15.527  0.00  0.00    +0.000 S 
ENDROOT
BRANCH   1  19
ATOM     15  O   UNL     1       0.352   2.890  18.517  0.00  0.00    +0.000 OA
ATOM     16  C   UNL     1       1.567   2.854  18.563  0.00  0.00    +0.000 C 
ATOM     17  O   UNL     1       2.303   1.719  18.716  0.00  0.00    +0.000 OA
ATOM     18  C   UNL     1       3.679   2.066  18.760  0.00  0.00    +0.000 C 
ATOM     19  C   UNL     1       3.705   3.526  18.531  0.00  0.00    +0.000 C 
ATOM     20  C   UNL     1       2.468   4.014  18.446  0.00  0.00    +0.000 C 
ATOM     21 BR   UNL     1       1.885   5.727  18.167  0.00  0.00    +0.000 Br
BRANCH  18  22
ATOM     22  O   UNL     1       4.400   1.337  17.788  0.00  0.00    +0.000 OA
ATOM     23  H   UNL     1       5.347   1.433  17.981  0.00  0.00    +0.000 HD
ENDBRANCH  18  22
ENDBRANCH   1  19
TORSDOF 2
ENDMDL
MODEL 2
REMARK VINA RESULT:      -6.4     10.209     12.788
REMARK  Name = 
REMARK  2 active torsions:
REMARK  status: ('A' for Active; 'I' for Inactive)
REMARK    1  A    between atoms: C_4  and  O_5
REMARK    2  A    between atoms: C_6  and  C_7
REMARK                            x       y       z     vdW  Elec       q    Type
REMARK                         _______ _______ _______ _____ _____    ______ ____
ROOT
ATOM      1  C   UNL     1      -1.394  11.102  18.828  0.00  0.00    +0.000 A 
ATOM      2  C   UNL     1      -1.097  10.300  17.718  0.00  0.00    +0.000 A 
ATOM      3  C   UNL     1      -2.106   9.927  16.839  0.00  0.00    +0.000 A 
ATOM      4  C   UNL     1      -3.416  10.339  17.077  0.00  0.00    +0.000 A 
ATOM      5  C   UNL     1      -3.743  11.152  18.179  0.00  0.00    +0.000 A 
ATOM      6  C   UNL     1      -2.724  11.561  19.052  0.00  0.00    +0.000 A 
ATOM      7  S   UNL     1      -2.986  12.727  20.384  0.00  0.00    +0.000 S 
ATOM      8  C   UNL     1      -4.693  12.599  20.819  0.00  0.00    +0.000 A 
ATOM      9  C   UNL     1      -5.025  13.063  22.106  0.00  0.00    +0.000 A 
ATOM     10  C   UNL     1      -6.347  13.097  22.543  0.00  0.00    +0.000 A 
ATOM     11  C   UNL     1      -7.356  12.658  21.699  0.00  0.00    +0.000 A 
ATOM     12  C   UNL     1      -7.038  12.188  20.423  0.00  0.00    +0.000 A 
ATOM     13  C   UNL     1      -5.707  12.156  19.966  0.00  0.00    +0.000 A 
ATOM     14  S   UNL     1      -5.458  11.629  18.287  0.00  0.00    +0.000 S 
ENDROOT
BRANCH   1  19
ATOM     15  O   UNL     1       2.080  13.429  21.208  0.00  0.00    +0.000 OA
ATOM     16  C   UNL     1       1.313  12.551  20.856  0.00  0.00    +0.000 C 
ATOM     17  O   UNL     1       1.193  11.339  21.462  0.00  0.00    +0.000 OA
ATOM     18  C   UNL     1       0.232  10.566  20.760  0.00  0.00    +0.000 C 
ATOM     19  C   UNL     1      -0.283  11.472  19.712  0.00  0.00    +0.000 C 
ATOM     20  C   UNL     1       0.366  12.635  19.731  0.00  0.00    +0.000 C 
ATOM     21 BR   UNL     1       0.162  14.124  18.685  0.00  0.00    +0.000 Br
BRANCH  18  22
ATOM     22  O   UNL     1      -0.772  10.111  21.645  0.00  0.00    +0.000 OA
ATOM     23  H   UNL     1      -0.440   9.316  22.093  0.00  0.00    +0.000 HD
ENDBRANCH  18  22
ENDBRANCH   1  19
TORSDOF 2
ENDMDL
MODEL 3
REMARK VINA RESULT:      -6.4      3.911      6.399
REMARK  Name = 
REMARK  2 active torsions:
REMARK  status: ('A' for Active; 'I' for Inactive)
REMARK    1  A    between atoms: C_4  and  O_5
REMARK    2  A    between atoms: C_6  and  C_7
REMARK                            x       y       z     vdW  Elec       q    Type
REMARK                         _______ _______ _______ _____ _____    ______ ____
ROOT
ATOM      1  C   UNL     1       4.028   4.326  19.112  0.00  0.00    +0.000 A 
ATOM      2  C   UNL     1       4.078   3.279  20.041  0.00  0.00    +0.000 A 
ATOM      3  C   UNL     1       3.215   3.273  21.130  0.00  0.00    +0.000 A 
ATOM      4  C   UNL     1       2.314   4.323  21.303  0.00  0.00    +0.000 A 
ATOM      5  C   UNL     1       2.236   5.385  20.381  0.00  0.00    +0.000 A 
ATOM      6  C   UNL     1       3.081   5.379  19.261  0.00  0.00    +0.000 A 
ATOM      7  S   UNL     1       2.958   6.579  17.938  0.00  0.00    +0.000 S 
ATOM      8  C   UNL     1       2.243   8.027  18.654  0.00  0.00    +0.000 A 
ATOM      9  C   UNL     1       2.468   9.224  17.947  0.00  0.00    +0.000 A 
ATOM     10  C   UNL     1       1.890  10.423  18.356  0.00  0.00    +0.000 A 
ATOM     11  C   UNL     1       1.085  10.443  19.485  0.00  0.00    +0.000 A 
ATOM     12  C   UNL     1       0.862   9.263  20.198  0.00  0.00    +0.000 A 
ATOM     13  C   UNL     1       1.433   8.043  19.792  0.00  0.00    +0.000 A 
ATOM     14  S   UNL     1       0.984   6.604  20.734  0.00  0.00    +0.000 S 
ENDROOT
BRANCH   1  19
ATOM     15  O   UNL     1       7.863   4.609  16.222  0.00  0.00    +0.000 OA
ATOM     16  C   UNL     1       6.744   4.358  16.629  0.00  0.00    +0.000 C 
ATOM     17  O   UNL     1       5.813   3.640  15.944  0.00  0.00    +0.000 OA
ATOM     18  C   UNL     1       4.621   3.581  16.712  0.00  0.00    +0.000 C 
ATOM     19  C   UNL     1       4.956   4.268  17.978  0.00  0.00    +0.000 C 
ATOM     20  C   UNL     1       6.193   4.763  17.934  0.00  0.00    +0.000 C 
ATOM     21 BR   UNL     1       7.142   5.695  19.192  0.00  0.00    +0.000 Br
BRANCH  18  22
ATOM     22  O   UNL     1       4.222   2.238  16.898  0.00  0.00    +0.000 OA
ATOM     23  H   UNL     1       3.709   2.188  17.720  0.00  0.00    +0.000 HD
ENDBRANCH  18  22
ENDBRANCH   1  19
TORSDOF 2
ENDMDL
MODEL 4
REMARK VINA RESULT:      -6.3     11.083     13.798
REMARK  Name = 
REMARK  2 active torsions:
REMARK  status: ('A' for Active; 'I' for Inactive)
REMARK    1  A    between atoms: C_4  and  O_5
REMARK    2  A    between atoms: C_6  and  C_7
REMARK                            x       y       z     vdW  Elec       q    Type
REMARK                         _______ _______ _______ _____ _____    ______ ____
ROOT
ATOM      1  C   UNL     1      -2.393  12.029  18.929  0.00  0.00    +0.000 A 
ATOM      2  C   UNL     1      -2.209  11.418  17.682  0.00  0.00    +0.000 A 
ATOM      3  C   UNL     1      -3.307  10.973  16.956  0.00  0.00    +0.000 A 
ATOM      4  C   UNL     1      -4.589  11.120  17.483  0.00  0.00    +0.000 A 
ATOM      5  C   UNL     1      -4.806  11.738  18.730  0.00  0.00    +0.000 A 
ATOM      6  C   UNL     1      -3.704  12.221  19.453  0.00  0.00    +0.000 A 
ATOM      7  S   UNL     1      -3.864  13.170  20.962  0.00  0.00    +0.000 S 
ATOM      8  C   UNL     1      -5.410  12.699  21.676  0.00  0.00    +0.000 A 
ATOM      9  C   UNL     1      -5.540  12.953  23.054  0.00  0.00    +0.000 A 
ATOM     10  C   UNL     1      -6.737  12.708  23.724  0.00  0.00    +0.000 A 
ATOM     11  C   UNL     1      -7.818  12.194  23.023  0.00  0.00    +0.000 A 
ATOM     12  C   UNL     1      -7.697  11.931  21.657  0.00  0.00    +0.000 A 
ATOM     13  C   UNL     1      -6.497  12.181  20.967  0.00  0.00    +0.000 A 
ATOM     14  S   UNL     1      -6.515  11.893  19.213  0.00  0.00    +0.000 S 
ENDROOT
BRANCH   1  19
ATOM     15  O   UNL     1       1.750  12.316  21.356  0.00  0.00    +0.000 OA
ATOM     16  C   UNL     1       0.753  12.639  20.737  0.00  0.00    +0.000 C 
ATOM     17  O   UNL     1       0.465  13.908  20.339  0.00  0.00    +0.000 OA
ATOM     18  C   UNL     1      -0.791  13.909  19.677  0.00  0.00    +0.000 C 
ATOM     19  C   UNL     1      -1.196  12.488  19.641  0.00  0.00    +0.000 C 
ATOM     20  C   UNL     1      -0.315  11.728  20.290  0.00  0.00    +0.000 C 
ATOM     21 BR   UNL     1      -0.288   9.918  20.568  0.00  0.00    +0.000 Br
BRANCH  18  22
ATOM     22  O   UNL     1      -0.668  14.486  18.393  0.00  0.00    +0.000 OA
ATOM     23  H   UNL     1       0.164  14.174  18.002  0.00  0.00    +0.000 HD
ENDBRANCH  18  22
ENDBRANCH   1  19
TORSDOF 2
ENDMDL
MODEL 5
REMARK VINA RESULT:      -6.1      3.733      6.323
REMARK  Name = 
REMARK  2 active torsions:
REMARK  status: ('A' for Active; 'I' for Inactive)
REMARK    1  A    between atoms: C_4  and  O_5
REMARK    2  A    between atoms: C_6  and  C_7
REMARK                            x       y       z     vdW  Elec       q    Type
REMARK                         _______ _______ _______ _____ _____    ______ ____
ROOT
ATOM      1  C   UNL     1       4.722   4.251  18.209  0.00  0.00    +0.000 A 
ATOM      2  C   UNL     1       5.058   3.124  18.971  0.00  0.00    +0.000 A 
ATOM      3  C   UNL     1       4.386   2.862  20.159  0.00  0.00    +0.000 A 
ATOM      4  C   UNL     1       3.391   3.735  20.597  0.00  0.00    +0.000 A 
ATOM      5  C   UNL     1       3.027   4.870  19.848  0.00  0.00    +0.000 A 
ATOM      6  C   UNL     1       3.678   5.122  18.631  0.00  0.00    +0.000 A 
ATOM      7  S   UNL     1       3.189   6.433  17.513  0.00  0.00    +0.000 S 
ATOM      8  C   UNL     1       2.408   7.663  18.512  0.00  0.00    +0.000 A 
ATOM      9  C   UNL     1       2.356   8.953  17.951  0.00  0.00    +0.000 A 
ATOM     10  C   UNL     1       1.694   9.995  18.596  0.00  0.00    +0.000 A 
ATOM     11  C   UNL     1       1.082   9.762  19.818  0.00  0.00    +0.000 A 
ATOM     12  C   UNL     1       1.134   8.488  20.388  0.00  0.00    +0.000 A 
ATOM     13  C   UNL     1       1.792   7.425  19.744  0.00  0.00    +0.000 A 
ATOM     14  S   UNL     1       1.694   5.836  20.534  0.00  0.00    +0.000 S 
ENDROOT
BRANCH   1  19
ATOM     15  O   UNL     1       7.836   5.683  14.834  0.00  0.00    +0.000 OA
ATOM     16  C   UNL     1       6.924   5.094  15.385  0.00  0.00    +0.000 C 
ATOM     17  O   UNL     1       6.197   4.092  14.819  0.00  0.00    +0.000 OA
ATOM     18  C   UNL     1       5.202   3.670  15.740  0.00  0.00    +0.000 C 
ATOM     19  C   UNL     1       5.459   4.465  16.959  0.00  0.00    +0.000 C 
ATOM     20  C   UNL     1       6.449   5.334  16.758  0.00  0.00    +0.000 C 
ATOM     21 BR   UNL     1       7.200   6.560  17.892  0.00  0.00    +0.000 Br
BRANCH  18  22
ATOM     22  O   UNL     1       5.292   2.276  15.955  0.00  0.00    +0.000 OA
ATOM     23  H   UNL     1       5.213   2.114  16.910  0.00  0.00    +0.000 HD
ENDBRANCH  18  22
ENDBRANCH   1  19
TORSDOF 2
ENDMDL
MODEL 6
REMARK VINA RESULT:      -6.0     10.507     13.221
REMARK  Name = 
REMARK  2 active torsions:
REMARK  status: ('A' for Active; 'I' for Inactive)
REMARK    1  A    between atoms: C_4  and  O_5
REMARK    2  A    between atoms: C_6  and  C_7
REMARK                            x       y       z     vdW  Elec       q    Type
REMARK                         _______ _______ _______ _____ _____    ______ ____
ROOT
ATOM      1  C   UNL     1      -2.195  11.750  18.551  0.00  0.00    +0.000 A 
ATOM      2  C   UNL     1      -2.608  11.380  17.264  0.00  0.00    +0.000 A 
ATOM      3  C   UNL     1      -3.954  11.429  16.925  0.00  0.00    +0.000 A 
ATOM      4  C   UNL     1      -4.892  11.829  17.876  0.00  0.00    +0.000 A 
ATOM      5  C   UNL     1      -4.506  12.214  19.174  0.00  0.00    +0.000 A 
ATOM      6  C   UNL     1      -3.144  12.199  19.513  0.00  0.00    +0.000 A 
ATOM      7  S   UNL     1      -2.516  12.824  21.069  0.00  0.00    +0.000 S 
ATOM      8  C   UNL     1      -3.844  12.682  22.226  0.00  0.00    +0.000 A 
ATOM      9  C   UNL     1      -3.466  12.676  23.581  0.00  0.00    +0.000 A 
ATOM     10  C   UNL     1      -4.419  12.653  24.597  0.00  0.00    +0.000 A 
ATOM     11  C   UNL     1      -5.766  12.628  24.269  0.00  0.00    +0.000 A 
ATOM     12  C   UNL     1      -6.153  12.626  22.927  0.00  0.00    +0.000 A 
ATOM     13  C   UNL     1      -5.201  12.657  21.891  0.00  0.00    +0.000 A 
ATOM     14  S   UNL     1      -5.835  12.752  20.233  0.00  0.00    +0.000 S 
ENDROOT
BRANCH   1  19
ATOM     15  O   UNL     1       2.406  12.783  19.504  0.00  0.00    +0.000 OA
ATOM     16  C   UNL     1       1.380  12.153  19.326  0.00  0.00    +0.000 C 
ATOM     17  O   UNL     1       1.252  10.812  19.516  0.00  0.00    +0.000 OA
ATOM     18  C   UNL     1      -0.071  10.423  19.178  0.00  0.00    +0.000 C 
ATOM     19  C   UNL     1      -0.759  11.688  18.844  0.00  0.00    +0.000 C 
ATOM     20  C   UNL     1       0.089  12.715  18.892  0.00  0.00    +0.000 C 
ATOM     21 BR   UNL     1      -0.191  14.498  18.585  0.00  0.00    +0.000 Br
BRANCH  18  22
ATOM     22  O   UNL     1      -0.669   9.732  20.256  0.00  0.00    +0.000 OA
ATOM     23  H   UNL     1      -0.246  10.032  21.077  0.00  0.00    +0.000 HD
ENDBRANCH  18  22
ENDBRANCH   1  19
TORSDOF 2
ENDMDL
MODEL 7
REMARK VINA RESULT:      -6.0      1.469      1.872
REMARK  Name = 
REMARK  2 active torsions:
REMARK  status: ('A' for Active; 'I' for Inactive)
REMARK    1  A    between atoms: C_4  and  O_5
REMARK    2  A    between atoms: C_6  and  C_7
REMARK                            x       y       z     vdW  Elec       q    Type
REMARK                         _______ _______ _______ _____ _____    ______ ____
ROOT
ATOM      1  C   UNL     1       4.834   4.676  18.250  0.00  0.00    +0.000 A 
ATOM      2  C   UNL     1       5.552   4.985  19.413  0.00  0.00    +0.000 A 
ATOM      3  C   UNL     1       6.866   5.426  19.323  0.00  0.00    +0.000 A 
ATOM      4  C   UNL     1       7.472   5.542  18.073  0.00  0.00    +0.000 A 
ATOM      5  C   UNL     1       6.773   5.247  16.887  0.00  0.00    +0.000 A 
ATOM      6  C   UNL     1       5.435   4.834  16.968  0.00  0.00    +0.000 A 
ATOM      7  S   UNL     1       4.396   4.594  15.530  0.00  0.00    +0.000 S 
ATOM      8  C   UNL     1       5.488   4.216  14.194  0.00  0.00    +0.000 A 
ATOM      9  C   UNL     1       4.898   3.553  13.101  0.00  0.00    +0.000 A 
ATOM     10  C   UNL     1       5.627   3.272  11.948  0.00  0.00    +0.000 A 
ATOM     11  C   UNL     1       6.962   3.643  11.876  0.00  0.00    +0.000 A 
ATOM     12  C   UNL     1       7.559   4.295  12.957  0.00  0.00    +0.000 A 
ATOM     13  C   UNL     1       6.832   4.592  14.125  0.00  0.00    +0.000 A 
ATOM     14  S   UNL     1       7.690   5.512  15.381  0.00  0.00    +0.000 S 
ENDROOT
BRANCH   1  19
ATOM     15  O   UNL     1       0.829   2.098  18.918  0.00  0.00    +0.000 OA
ATOM     16  C   UNL     1       1.575   3.046  18.758  0.00  0.00    +0.000 C 
ATOM     17  O   UNL     1       1.191   4.350  18.806  0.00  0.00    +0.000 OA
ATOM     18  C   UNL     1       2.318   5.172  18.541  0.00  0.00    +0.000 C 
ATOM     19  C   UNL     1       3.448   4.227  18.411  0.00  0.00    +0.000 C 
ATOM     20  C   UNL     1       3.024   2.967  18.502  0.00  0.00    +0.000 C 
ATOM     21 BR   UNL     1       3.957   1.394  18.421  0.00  0.00    +0.000 Br
BRANCH  18  22
ATOM     22  O   UNL     1       2.496   6.112  19.581  0.00  0.00    +0.000 OA
ATOM     23  H   UNL     1       3.384   5.984  19.953  0.00  0.00    +0.000 HD
ENDBRANCH  18  22
ENDBRANCH   1  19
TORSDOF 2
ENDMDL
MODEL 8
REMARK VINA RESULT:      -5.8      3.528      5.478
REMARK  Name = 
REMARK  2 active torsions:
REMARK  status: ('A' for Active; 'I' for Inactive)
REMARK    1  A    between atoms: C_4  and  O_5
REMARK    2  A    between atoms: C_6  and  C_7
REMARK                            x       y       z     vdW  Elec       q    Type
REMARK                         _______ _______ _______ _____ _____    ______ ____
ROOT
ATOM      1  C   UNL     1       3.801   3.922  18.714  0.00  0.00    +0.000 A 
ATOM      2  C   UNL     1       4.400   3.169  17.696  0.00  0.00    +0.000 A 
ATOM      3  C   UNL     1       4.790   3.784  16.513  0.00  0.00    +0.000 A 
ATOM      4  C   UNL     1       4.566   5.148  16.337  0.00  0.00    +0.000 A 
ATOM      5  C   UNL     1       3.973   5.933  17.346  0.00  0.00    +0.000 A 
ATOM      6  C   UNL     1       3.608   5.325  18.557  0.00  0.00    +0.000 A 
ATOM      7  S   UNL     1       3.006   6.244  19.970  0.00  0.00    +0.000 S 
ATOM      8  C   UNL     1       2.277   7.718  19.322  0.00  0.00    +0.000 A 
ATOM      9  C   UNL     1       1.354   8.357  20.170  0.00  0.00    +0.000 A 
ATOM     10  C   UNL     1       0.770   9.572  19.816  0.00  0.00    +0.000 A 
ATOM     11  C   UNL     1       1.098  10.159  18.603  0.00  0.00    +0.000 A 
ATOM     12  C   UNL     1       2.007   9.529  17.751  0.00  0.00    +0.000 A 
ATOM     13  C   UNL     1       2.609   8.306  18.099  0.00  0.00    +0.000 A 
ATOM     14  S   UNL     1       3.822   7.668  16.966  0.00  0.00    +0.000 S 
ENDROOT
BRANCH   1  19
ATOM     15  O   UNL     1       1.414   1.819  22.322  0.00  0.00    +0.000 OA
ATOM     16  C   UNL     1       2.326   2.201  21.612  0.00  0.00    +0.000 C 
ATOM     17  O   UNL     1       3.635   1.874  21.791  0.00  0.00    +0.000 OA
ATOM     18  C   UNL     1       4.412   2.527  20.798  0.00  0.00    +0.000 C 
ATOM     19  C   UNL     1       3.423   3.218  19.944  0.00  0.00    +0.000 C 
ATOM     20  C   UNL     1       2.191   3.065  20.427  0.00  0.00    +0.000 C 
ATOM     21 BR   UNL     1       0.585   3.682  19.799  0.00  0.00    +0.000 Br
BRANCH  18  22
ATOM     22  O   UNL     1       5.197   1.587  20.093  0.00  0.00    +0.000 OA
ATOM     23  H   UNL     1       5.968   1.369  20.641  0.00  0.00    +0.000 HD
ENDBRANCH  18  22
ENDBRANCH   1  19
TORSDOF 2
ENDMDL
MODEL 9
REMARK VINA RESULT:      -5.8     11.434     13.421
REMARK  Name = 
REMARK  2 active torsions:
REMARK  status: ('A' for Active; 'I' for Inactive)
REMARK    1  A    between atoms: C_4  and  O_5
REMARK    2  A    between atoms: C_6  and  C_7
REMARK                            x       y       z     vdW  Elec       q    Type
REMARK                         _______ _______ _______ _____ _____    ______ ____
ROOT
ATOM      1  C   UNL     1      -4.939  13.096  21.772  0.00  0.00    +0.000 A 
ATOM      2  C   UNL     1      -5.576  13.187  23.016  0.00  0.00    +0.000 A 
ATOM      3  C   UNL     1      -4.904  12.808  24.171  0.00  0.00    +0.000 A 
ATOM      4  C   UNL     1      -3.601  12.320  24.084  0.00  0.00    +0.000 A 
ATOM      5  C   UNL     1      -2.932  12.225  22.848  0.00  0.00    +0.000 A 
ATOM      6  C   UNL     1      -3.593  12.638  21.681  0.00  0.00    +0.000 A 
ATOM      7  S   UNL     1      -2.793  12.725  20.082  0.00  0.00    +0.000 S 
ATOM      8  C   UNL     1      -1.473  11.552  20.130  0.00  0.00    +0.000 A 
ATOM      9  C   UNL     1      -1.005  11.117  18.876  0.00  0.00    +0.000 A 
ATOM     10  C   UNL     1       0.086  10.259  18.770  0.00  0.00    +0.000 A 
ATOM     11  C   UNL     1       0.720   9.816  19.921  0.00  0.00    +0.000 A 
ATOM     12  C   UNL     1       0.260  10.234  21.171  0.00  0.00    +0.000 A 
ATOM     13  C   UNL     1      -0.837  11.108  21.292  0.00  0.00    +0.000 A 
ATOM     14  S   UNL     1      -1.251  11.637  22.938  0.00  0.00    +0.000 S 
ENDROOT
BRANCH   1  19
ATOM     15  O   UNL     1      -7.916  13.361  18.003  0.00  0.00    +0.000 OA
ATOM     16  C   UNL     1      -7.107  13.675  18.856  0.00  0.00    +0.000 C 
ATOM     17  O   UNL     1      -6.631  14.936  19.044  0.00  0.00    +0.000 OA
ATOM     18  C   UNL     1      -5.683  14.917  20.101  0.00  0.00    +0.000 C 
ATOM     19  C   UNL     1      -5.698  13.523  20.591  0.00  0.00    +0.000 C 
ATOM     20  C   UNL     1      -6.506  12.768  19.848  0.00  0.00    +0.000 C 
ATOM     21 BR   UNL     1      -6.922  10.990  19.982  0.00  0.00    +0.000 Br
BRANCH  18  22
ATOM     22  O   UNL     1      -6.035  15.860  21.093  0.00  0.00    +0.000 OA
ATOM     23  H   UNL     1      -6.744  16.420  20.737  0.00  0.00    +0.000 HD
ENDBRANCH  18  22
ENDBRANCH   1  19
TORSDOF 2
ENDMDL
