MODEL 1
REMARK VINA RESULT:      -8.6      0.000      0.000
REMARK  Name = 
REMARK  6 active torsions:
REMARK  status: ('A' for Active; 'I' for Inactive)
REMARK    1  A    between atoms: C_1  and  C_2
REMARK    2  A    between atoms: C_2  and  C_3
REMARK    3  A    between atoms: C_2  and  C_4
REMARK    4  A    between atoms: C_4  and  N_5
REMARK    5  A    between atoms: C_4  and  C_20
REMARK    6  A    between atoms: C_9  and  C_10
REMARK                            x       y       z     vdW  Elec       q    Type
REMARK                         _______ _______ _______ _____ _____    ______ ____
ROOT
ATOM      1  N   UNL     1       7.094   6.948  16.794  0.00  0.00    +0.000 N 
ATOM      2  C   UNL     1       7.740   7.811  17.601  0.00  0.00    +0.000 A 
ATOM      3  N   UNL     1       8.402   7.644  18.725  0.00  0.00    +0.000 NA
ATOM      4  N   UNL     1       8.922   8.882  19.060  0.00  0.00    +0.000 NA
ATOM      5  C   UNL     1       8.528   9.727  18.126  0.00  0.00    +0.000 A 
ATOM      6  O   UNL     1       7.741   9.110  17.182  0.00  0.00    +0.000 OA
ATOM      7  H   UNL     1       6.497   7.397  16.108  0.00  0.00    +0.000 HD
ENDROOT
BRANCH   5   8
ATOM      8  C   UNL     1       8.915  11.166  18.058  0.00  0.00    +0.000 A 
ATOM      9  C   UNL     1       8.150  12.144  17.449  0.00  0.00    +0.000 A 
ATOM     10  N   UNL     1       8.832  13.331  17.549  0.00  0.00    +0.000 N 
ATOM     11  C   UNL     1      10.023  13.128  18.187  0.00  0.00    +0.000 A 
ATOM     12  N   UNL     1      10.935  14.095  18.407  0.00  0.00    +0.000 NA
ATOM     13  C   UNL     1      12.042  13.641  19.038  0.00  0.00    +0.000 A 
ATOM     14  C   UNL     1      12.259  12.333  19.449  0.00  0.00    +0.000 A 
ATOM     15  C   UNL     1      11.275  11.372  19.202  0.00  0.00    +0.000 A 
ATOM     16  C   UNL     1      10.109  11.781  18.534  0.00  0.00    +0.000 A 
ATOM     17  H   UNL     1       8.538  14.230  17.194  0.00  0.00    +0.000 HD
ENDBRANCH   5   8
BRANCH   1  18
ATOM     18  C   UNL     1       6.540   5.713  17.348  0.00  0.00    +0.000 C 
BRANCH  18  19
ATOM     19  C   UNL     1       5.151   6.026  17.910  0.00  0.00    +0.000 A 
ATOM     20  C   UNL     1       4.715   5.406  19.092  0.00  0.00    +0.000 A 
ATOM     21  C   UNL     1       3.463   5.707  19.639  0.00  0.00    +0.000 A 
ATOM     22  C   UNL     1       2.623   6.624  19.011  0.00  0.00    +0.000 A 
ATOM     23  C   UNL     1       3.042   7.261  17.850  0.00  0.00    +0.000 A 
ATOM     24  C   UNL     1       4.302   6.980  17.320  0.00  0.00    +0.000 A 
ENDBRANCH  18  19
BRANCH  18  26
ATOM     25  C   UNL     1       5.265   3.753  16.131  0.00  0.00    +0.000 C 
ATOM     26  C   UNL     1       6.573   4.529  16.324  0.00  0.00    +0.000 C 
ATOM     27  C   UNL     1       7.067   4.981  14.943  0.00  0.00    +0.000 C 
ENDBRANCH  18  26
ENDBRANCH   1  18
TORSDOF 4
ENDMDL
MODEL 2
REMARK VINA RESULT:      -8.4      4.792      7.515
REMARK  Name = 
REMARK  6 active torsions:
REMARK  status: ('A' for Active; 'I' for Inactive)
REMARK    1  A    between atoms: C_1  and  C_2
REMARK    2  A    between atoms: C_2  and  C_3
REMARK    3  A    between atoms: C_2  and  C_4
REMARK    4  A    between atoms: C_4  and  N_5
REMARK    5  A    between atoms: C_4  and  C_20
REMARK    6  A    between atoms: C_9  and  C_10
REMARK                            x       y       z     vdW  Elec       q    Type
REMARK                         _______ _______ _______ _____ _____    ______ ____
ROOT
ATOM      1  N   UNL     1       3.150   6.125  18.409  0.00  0.00    +0.000 N 
ATOM      2  C   UNL     1       2.681   7.369  18.197  0.00  0.00    +0.000 A 
ATOM      3  N   UNL     1       2.536   8.086  17.104  0.00  0.00    +0.000 NA
ATOM      4  N   UNL     1       1.924   9.266  17.489  0.00  0.00    +0.000 NA
ATOM      5  C   UNL     1       1.750   9.199  18.795  0.00  0.00    +0.000 A 
ATOM      6  O   UNL     1       2.244   8.023  19.313  0.00  0.00    +0.000 OA
ATOM      7  H   UNL     1       3.337   5.917  19.383  0.00  0.00    +0.000 HD
ENDROOT
BRANCH   5   8
ATOM      8  C   UNL     1       1.065  10.234  19.621  0.00  0.00    +0.000 A 
ATOM      9  C   UNL     1       1.030  11.580  19.302  0.00  0.00    +0.000 A 
ATOM     10  N   UNL     1       0.349  12.230  20.300  0.00  0.00    +0.000 N 
ATOM     11  C   UNL     1      -0.033  11.333  21.259  0.00  0.00    +0.000 A 
ATOM     12  N   UNL     1      -0.689  11.669  22.386  0.00  0.00    +0.000 NA
ATOM     13  C   UNL     1      -0.936  10.608  23.187  0.00  0.00    +0.000 A 
ATOM     14  C   UNL     1      -0.584   9.292  22.919  0.00  0.00    +0.000 A 
ATOM     15  C   UNL     1       0.090   9.000  21.730  0.00  0.00    +0.000 A 
ATOM     16  C   UNL     1       0.389  10.066  20.864  0.00  0.00    +0.000 A 
ATOM     17  H   UNL     1       0.162  13.220  20.359  0.00  0.00    +0.000 HD
ENDBRANCH   5   8
BRANCH   1  18
ATOM     18  C   UNL     1       4.123   5.550  17.479  0.00  0.00    +0.000 C 
BRANCH  18  19
ATOM     19  C   UNL     1       5.517   6.021  17.900  0.00  0.00    +0.000 A 
ATOM     20  C   UNL     1       6.169   5.408  18.983  0.00  0.00    +0.000 A 
ATOM     21  C   UNL     1       7.457   5.801  19.359  0.00  0.00    +0.000 A 
ATOM     22  C   UNL     1       8.113   6.818  18.667  0.00  0.00    +0.000 A 
ATOM     23  C   UNL     1       7.492   7.425  17.582  0.00  0.00    +0.000 A 
ATOM     24  C   UNL     1       6.218   7.013  17.192  0.00  0.00    +0.000 A 
ENDBRANCH  18  19
BRANCH  18  26
ATOM     25  C   UNL     1       2.551   3.454  17.184  0.00  0.00    +0.000 C 
ATOM     26  C   UNL     1       3.976   3.997  17.344  0.00  0.00    +0.000 C 
ATOM     27  C   UNL     1       4.830   3.440  16.198  0.00  0.00    +0.000 C 
ENDBRANCH  18  26
ENDBRANCH   1  18
TORSDOF 4
ENDMDL
MODEL 3
REMARK VINA RESULT:      -8.3      5.629      8.889
REMARK  Name = 
REMARK  6 active torsions:
REMARK  status: ('A' for Active; 'I' for Inactive)
REMARK    1  A    between atoms: C_1  and  C_2
REMARK    2  A    between atoms: C_2  and  C_3
REMARK    3  A    between atoms: C_2  and  C_4
REMARK    4  A    between atoms: C_4  and  N_5
REMARK    5  A    between atoms: C_4  and  C_20
REMARK    6  A    between atoms: C_9  and  C_10
REMARK                            x       y       z     vdW  Elec       q    Type
REMARK                         _______ _______ _______ _____ _____    ______ ____
ROOT
ATOM      1  N   UNL     1       2.767   7.407  18.254  0.00  0.00    +0.000 N 
ATOM      2  C   UNL     1       1.931   8.153  19.001  0.00  0.00    +0.000 A 
ATOM      3  N   UNL     1       1.907   8.435  20.285  0.00  0.00    +0.000 NA
ATOM      4  N   UNL     1       0.859   9.320  20.471  0.00  0.00    +0.000 NA
ATOM      5  C   UNL     1       0.303   9.508  19.289  0.00  0.00    +0.000 A 
ATOM      6  O   UNL     1       0.923   8.763  18.313  0.00  0.00    +0.000 OA
ATOM      7  H   UNL     1       2.414   7.201  17.326  0.00  0.00    +0.000 HD
ENDROOT
BRANCH   5   8
ATOM      8  C   UNL     1      -0.828  10.441  19.015  0.00  0.00    +0.000 A 
ATOM      9  C   UNL     1      -1.182  11.491  19.843  0.00  0.00    +0.000 A 
ATOM     10  N   UNL     1      -2.281  12.104  19.295  0.00  0.00    +0.000 N 
ATOM     11  C   UNL     1      -2.647  11.457  18.148  0.00  0.00    +0.000 A 
ATOM     12  N   UNL     1      -3.712  11.798  17.397  0.00  0.00    +0.000 NA
ATOM     13  C   UNL     1      -3.879  10.993  16.324  0.00  0.00    +0.000 A 
ATOM     14  C   UNL     1      -3.064   9.924  15.979  0.00  0.00    +0.000 A 
ATOM     15  C   UNL     1      -1.968   9.620  16.791  0.00  0.00    +0.000 A 
ATOM     16  C   UNL     1      -1.752  10.412  17.931  0.00  0.00    +0.000 A 
ATOM     17  H   UNL     1      -2.780  12.898  19.668  0.00  0.00    +0.000 HD
ENDBRANCH   5   8
BRANCH   1  18
ATOM     18  C   UNL     1       3.499   6.301  18.871  0.00  0.00    +0.000 C 
BRANCH  18  19
ATOM     19  C   UNL     1       2.507   5.166  19.139  0.00  0.00    +0.000 A 
ATOM     20  C   UNL     1       2.057   4.362  18.080  0.00  0.00    +0.000 A 
ATOM     21  C   UNL     1       1.179   3.298  18.312  0.00  0.00    +0.000 A 
ATOM     22  C   UNL     1       0.729   3.025  19.602  0.00  0.00    +0.000 A 
ATOM     23  C   UNL     1       1.177   3.798  20.666  0.00  0.00    +0.000 A 
ATOM     24  C   UNL     1       2.073   4.842  20.437  0.00  0.00    +0.000 A 
ENDBRANCH  18  19
BRANCH  18  26
ATOM     25  C   UNL     1       5.400   6.966  17.170  0.00  0.00    +0.000 C 
ATOM     26  C   UNL     1       4.758   5.880  18.042  0.00  0.00    +0.000 C 
ATOM     27  C   UNL     1       5.852   5.274  18.931  0.00  0.00    +0.000 C 
ENDBRANCH  18  26
ENDBRANCH   1  18
TORSDOF 4
ENDMDL
MODEL 4
REMARK VINA RESULT:      -8.3      5.915      8.907
REMARK  Name = 
REMARK  6 active torsions:
REMARK  status: ('A' for Active; 'I' for Inactive)
REMARK    1  A    between atoms: C_1  and  C_2
REMARK    2  A    between atoms: C_2  and  C_3
REMARK    3  A    between atoms: C_2  and  C_4
REMARK    4  A    between atoms: C_4  and  N_5
REMARK    5  A    between atoms: C_4  and  C_20
REMARK    6  A    between atoms: C_9  and  C_10
REMARK                            x       y       z     vdW  Elec       q    Type
REMARK                         _______ _______ _______ _____ _____    ______ ____
ROOT
ATOM      1  N   UNL     1       2.742   7.647  18.061  0.00  0.00    +0.000 N 
ATOM      2  C   UNL     1       1.872   8.403  18.759  0.00  0.00    +0.000 A 
ATOM      3  N   UNL     1       1.830   8.762  20.023  0.00  0.00    +0.000 NA
ATOM      4  N   UNL     1       0.745   9.612  20.151  0.00  0.00    +0.000 NA
ATOM      5  C   UNL     1       0.187   9.703  18.958  0.00  0.00    +0.000 A 
ATOM      6  O   UNL     1       0.843   8.925  18.031  0.00  0.00    +0.000 OA
ATOM      7  H   UNL     1       2.403   7.370  17.147  0.00  0.00    +0.000 HD
ENDROOT
BRANCH   5   8
ATOM      8  C   UNL     1      -0.980  10.569  18.623  0.00  0.00    +0.000 A 
ATOM      9  C   UNL     1      -1.396  11.638  19.396  0.00  0.00    +0.000 A 
ATOM     10  N   UNL     1      -2.512  12.174  18.803  0.00  0.00    +0.000 N 
ATOM     11  C   UNL     1      -2.829  11.457  17.683  0.00  0.00    +0.000 A 
ATOM     12  N   UNL     1      -3.896  11.714  16.901  0.00  0.00    +0.000 NA
ATOM     13  C   UNL     1      -4.008  10.853  15.865  0.00  0.00    +0.000 A 
ATOM     14  C   UNL     1      -3.139   9.808  15.584  0.00  0.00    +0.000 A 
ATOM     15  C   UNL     1      -2.044   9.592  16.424  0.00  0.00    +0.000 A 
ATOM     16  C   UNL     1      -1.884  10.446  17.529  0.00  0.00    +0.000 A 
ATOM     17  H   UNL     1      -3.053  12.960  19.131  0.00  0.00    +0.000 HD
ENDBRANCH   5   8
BRANCH   1  18
ATOM     18  C   UNL     1       3.517   6.614  18.748  0.00  0.00    +0.000 C 
BRANCH  18  19
ATOM     19  C   UNL     1       2.593   5.421  19.006  0.00  0.00    +0.000 A 
ATOM     20  C   UNL     1       2.264   5.059  20.322  0.00  0.00    +0.000 A 
ATOM     21  C   UNL     1       1.393   3.994  20.576  0.00  0.00    +0.000 A 
ATOM     22  C   UNL     1       0.845   3.267  19.521  0.00  0.00    +0.000 A 
ATOM     23  C   UNL     1       1.144   3.621  18.211  0.00  0.00    +0.000 A 
ATOM     24  C   UNL     1       1.991   4.700  17.959  0.00  0.00    +0.000 A 
ENDBRANCH  18  19
BRANCH  18  26
ATOM     25  C   UNL     1       5.357   4.822  18.154  0.00  0.00    +0.000 C 
ATOM     26  C   UNL     1       4.841   6.257  17.993  0.00  0.00    +0.000 C 
ATOM     27  C   UNL     1       4.743   6.562  16.492  0.00  0.00    +0.000 C 
ENDBRANCH  18  26
ENDBRANCH   1  18
TORSDOF 4
ENDMDL
MODEL 5
REMARK VINA RESULT:      -8.2      4.784      7.862
REMARK  Name = 
REMARK  6 active torsions:
REMARK  status: ('A' for Active; 'I' for Inactive)
REMARK    1  A    between atoms: C_1  and  C_2
REMARK    2  A    between atoms: C_2  and  C_3
REMARK    3  A    between atoms: C_2  and  C_4
REMARK    4  A    between atoms: C_4  and  N_5
REMARK    5  A    between atoms: C_4  and  C_20
REMARK    6  A    between atoms: C_9  and  C_10
REMARK                            x       y       z     vdW  Elec       q    Type
REMARK                         _______ _______ _______ _____ _____    ______ ____
ROOT
ATOM      1  N   UNL     1       3.247   5.827  18.290  0.00  0.00    +0.000 N 
ATOM      2  C   UNL     1       2.707   7.043  18.497  0.00  0.00    +0.000 A 
ATOM      3  N   UNL     1       2.498   8.065  17.696  0.00  0.00    +0.000 NA
ATOM      4  N   UNL     1       1.833   9.019  18.447  0.00  0.00    +0.000 NA
ATOM      5  C   UNL     1       1.694   8.522  19.661  0.00  0.00    +0.000 A 
ATOM      6  O   UNL     1       2.262   7.273  19.766  0.00  0.00    +0.000 OA
ATOM      7  H   UNL     1       3.469   5.326  19.144  0.00  0.00    +0.000 HD
ENDROOT
BRANCH   5   8
ATOM      8  C   UNL     1       0.975   9.193  20.782  0.00  0.00    +0.000 A 
ATOM      9  C   UNL     1       1.099   8.826  22.110  0.00  0.00    +0.000 A 
ATOM     10  N   UNL     1       0.269   9.634  22.847  0.00  0.00    +0.000 N 
ATOM     11  C   UNL     1      -0.397  10.492  22.017  0.00  0.00    +0.000 A 
ATOM     12  N   UNL     1      -1.312  11.388  22.436  0.00  0.00    +0.000 NA
ATOM     13  C   UNL     1      -1.846  12.107  21.424  0.00  0.00    +0.000 A 
ATOM     14  C   UNL     1      -1.514  11.985  20.081  0.00  0.00    +0.000 A 
ATOM     15  C   UNL     1      -0.553  11.044  19.704  0.00  0.00    +0.000 A 
ATOM     16  C   UNL     1       0.027  10.255  20.712  0.00  0.00    +0.000 A 
ATOM     17  H   UNL     1       0.130   9.608  23.847  0.00  0.00    +0.000 HD
ENDBRANCH   5   8
BRANCH   1  18
ATOM     18  C   UNL     1       4.226   5.642  17.220  0.00  0.00    +0.000 C 
BRANCH  18  19
ATOM     19  C   UNL     1       5.598   6.066  17.752  0.00  0.00    +0.000 A 
ATOM     20  C   UNL     1       6.167   5.393  18.845  0.00  0.00    +0.000 A 
ATOM     21  C   UNL     1       7.434   5.745  19.322  0.00  0.00    +0.000 A 
ATOM     22  C   UNL     1       8.150   6.778  18.722  0.00  0.00    +0.000 A 
ATOM     23  C   UNL     1       7.612   7.445  17.627  0.00  0.00    +0.000 A 
ATOM     24  C   UNL     1       6.360   7.076  17.136  0.00  0.00    +0.000 A 
ENDBRANCH  18  19
BRANCH  18  26
ATOM     25  C   UNL     1       5.472   3.698  15.947  0.00  0.00    +0.000 C 
ATOM     26  C   UNL     1       4.185   4.199  16.613  0.00  0.00    +0.000 C 
ATOM     27  C   UNL     1       3.747   3.155  17.649  0.00  0.00    +0.000 C 
ENDBRANCH  18  26
ENDBRANCH   1  18
TORSDOF 4
ENDMDL
MODEL 6
REMARK VINA RESULT:      -8.1      4.972      7.617
REMARK  Name = 
REMARK  6 active torsions:
REMARK  status: ('A' for Active; 'I' for Inactive)
REMARK    1  A    between atoms: C_1  and  C_2
REMARK    2  A    between atoms: C_2  and  C_3
REMARK    3  A    between atoms: C_2  and  C_4
REMARK    4  A    between atoms: C_4  and  N_5
REMARK    5  A    between atoms: C_4  and  C_20
REMARK    6  A    between atoms: C_9  and  C_10
REMARK                            x       y       z     vdW  Elec       q    Type
REMARK                         _______ _______ _______ _____ _____    ______ ____
ROOT
ATOM      1  N   UNL     1       3.110   5.834  18.754  0.00  0.00    +0.000 N 
ATOM      2  C   UNL     1       2.628   7.053  18.442  0.00  0.00    +0.000 A 
ATOM      3  N   UNL     1       2.408   7.647  17.289  0.00  0.00    +0.000 NA
ATOM      4  N   UNL     1       1.825   8.867  17.585  0.00  0.00    +0.000 NA
ATOM      5  C   UNL     1       1.742   8.943  18.900  0.00  0.00    +0.000 A 
ATOM      6  O   UNL     1       2.269   7.826  19.507  0.00  0.00    +0.000 OA
ATOM      7  H   UNL     1       3.364   5.732  19.730  0.00  0.00    +0.000 HD
ENDROOT
BRANCH   5   8
ATOM      8  C   UNL     1       1.116  10.068  19.653  0.00  0.00    +0.000 A 
ATOM      9  C   UNL     1       1.163  11.390  19.249  0.00  0.00    +0.000 A 
ATOM     10  N   UNL     1       0.518  12.141  20.199  0.00  0.00    +0.000 N 
ATOM     11  C   UNL     1       0.079  11.332  21.209  0.00  0.00    +0.000 A 
ATOM     12  N   UNL     1      -0.561  11.776  22.308  0.00  0.00    +0.000 NA
ATOM     13  C   UNL     1      -0.874  10.785  23.173  0.00  0.00    +0.000 A 
ATOM     14  C   UNL     1      -0.599   9.436  22.991  0.00  0.00    +0.000 A 
ATOM     15  C   UNL     1       0.061   9.030  21.828  0.00  0.00    +0.000 A 
ATOM     16  C   UNL     1       0.426  10.019  20.899  0.00  0.00    +0.000 A 
ATOM     17  H   UNL     1       0.390  13.143  20.195  0.00  0.00    +0.000 HD
ENDBRANCH   5   8
BRANCH   1  18
ATOM     18  C   UNL     1       4.015   5.154  17.828  0.00  0.00    +0.000 C 
BRANCH  18  19
ATOM     19  C   UNL     1       5.430   5.685  18.072  0.00  0.00    +0.000 A 
ATOM     20  C   UNL     1       5.984   6.636  17.199  0.00  0.00    +0.000 A 
ATOM     21  C   UNL     1       7.262   7.158  17.427  0.00  0.00    +0.000 A 
ATOM     22  C   UNL     1       8.010   6.734  18.523  0.00  0.00    +0.000 A 
ATOM     23  C   UNL     1       7.473   5.807  19.408  0.00  0.00    +0.000 A 
ATOM     24  C   UNL     1       6.189   5.307  19.195  0.00  0.00    +0.000 A 
ENDBRANCH  18  19
BRANCH  18  26
ATOM     25  C   UNL     1       3.853   2.975  19.303  0.00  0.00    +0.000 C 
ATOM     26  C   UNL     1       3.886   3.596  17.901  0.00  0.00    +0.000 C 
ATOM     27  C   UNL     1       2.664   3.086  17.126  0.00  0.00    +0.000 C 
ENDBRANCH  18  26
ENDBRANCH   1  18
TORSDOF 4
ENDMDL
MODEL 7
REMARK VINA RESULT:      -8.0      0.807      1.017
REMARK  Name = 
REMARK  6 active torsions:
REMARK  status: ('A' for Active; 'I' for Inactive)
REMARK    1  A    between atoms: C_1  and  C_2
REMARK    2  A    between atoms: C_2  and  C_3
REMARK    3  A    between atoms: C_2  and  C_4
REMARK    4  A    between atoms: C_4  and  N_5
REMARK    5  A    between atoms: C_4  and  C_20
REMARK    6  A    between atoms: C_9  and  C_10
REMARK                            x       y       z     vdW  Elec       q    Type
REMARK                         _______ _______ _______ _____ _____    ______ ____
ROOT
ATOM      1  N   UNL     1       6.585   7.361  17.091  0.00  0.00    +0.000 N 
ATOM      2  C   UNL     1       7.477   8.124  17.751  0.00  0.00    +0.000 A 
ATOM      3  N   UNL     1       8.388   7.837  18.655  0.00  0.00    +0.000 NA
ATOM      4  N   UNL     1       9.067   9.016  18.912  0.00  0.00    +0.000 NA
ATOM      5  C   UNL     1       8.514   9.948  18.159  0.00  0.00    +0.000 A 
ATOM      6  O   UNL     1       7.469   9.447  17.417  0.00  0.00    +0.000 OA
ATOM      7  H   UNL     1       5.869   7.892  16.608  0.00  0.00    +0.000 HD
ENDROOT
BRANCH   5   8
ATOM      8  C   UNL     1       8.978  11.362  18.072  0.00  0.00    +0.000 A 
ATOM      9  C   UNL     1       8.285  12.365  17.417  0.00  0.00    +0.000 A 
ATOM     10  N   UNL     1       9.024  13.517  17.513  0.00  0.00    +0.000 N 
ATOM     11  C   UNL     1      10.182  13.267  18.195  0.00  0.00    +0.000 A 
ATOM     12  N   UNL     1      11.137  14.190  18.423  0.00  0.00    +0.000 NA
ATOM     13  C   UNL     1      12.197  13.695  19.100  0.00  0.00    +0.000 A 
ATOM     14  C   UNL     1      12.333  12.387  19.546  0.00  0.00    +0.000 A 
ATOM     15  C   UNL     1      11.308  11.474  19.288  0.00  0.00    +0.000 A 
ATOM     16  C   UNL     1      10.187  11.927  18.573  0.00  0.00    +0.000 A 
ATOM     17  H   UNL     1       8.789  14.421  17.130  0.00  0.00    +0.000 HD
ENDBRANCH   5   8
BRANCH   1  18
ATOM     18  C   UNL     1       6.099   6.123  17.701  0.00  0.00    +0.000 C 
BRANCH  18  19
ATOM     19  C   UNL     1       4.571   6.195  17.768  0.00  0.00    +0.000 A 
ATOM     20  C   UNL     1       3.814   5.014  17.839  0.00  0.00    +0.000 A 
ATOM     21  C   UNL     1       2.420   5.062  17.936  0.00  0.00    +0.000 A 
ATOM     22  C   UNL     1       1.757   6.288  17.955  0.00  0.00    +0.000 A 
ATOM     23  C   UNL     1       2.489   7.468  17.903  0.00  0.00    +0.000 A 
ATOM     24  C   UNL     1       3.881   7.419  17.833  0.00  0.00    +0.000 A 
ENDBRANCH  18  19
BRANCH  18  26
ATOM     25  C   UNL     1       6.902   4.953  15.480  0.00  0.00    +0.000 C 
ATOM     26  C   UNL     1       6.657   4.845  16.990  0.00  0.00    +0.000 C 
ATOM     27  C   UNL     1       7.949   4.343  17.648  0.00  0.00    +0.000 C 
ENDBRANCH  18  26
ENDBRANCH   1  18
TORSDOF 4
ENDMDL
MODEL 8
REMARK VINA RESULT:      -8.0      4.870      7.415
REMARK  Name = 
REMARK  6 active torsions:
REMARK  status: ('A' for Active; 'I' for Inactive)
REMARK    1  A    between atoms: C_1  and  C_2
REMARK    2  A    between atoms: C_2  and  C_3
REMARK    3  A    between atoms: C_2  and  C_4
REMARK    4  A    between atoms: C_4  and  N_5
REMARK    5  A    between atoms: C_4  and  C_20
REMARK    6  A    between atoms: C_9  and  C_10
REMARK                            x       y       z     vdW  Elec       q    Type
REMARK                         _______ _______ _______ _____ _____    ______ ____
ROOT
ATOM      1  N   UNL     1       3.265   5.837  18.767  0.00  0.00    +0.000 N 
ATOM      2  C   UNL     1       2.596   7.006  18.777  0.00  0.00    +0.000 A 
ATOM      3  N   UNL     1       2.183   7.796  17.810  0.00  0.00    +0.000 NA
ATOM      4  N   UNL     1       1.477   8.820  18.418  0.00  0.00    +0.000 NA
ATOM      5  C   UNL     1       1.519   8.595  19.717  0.00  0.00    +0.000 A 
ATOM      6  O   UNL     1       2.249   7.466  20.013  0.00  0.00    +0.000 OA
ATOM      7  H   UNL     1       3.628   5.565  19.673  0.00  0.00    +0.000 HD
ENDROOT
BRANCH   5   8
ATOM      8  C   UNL     1       0.830   9.420  20.751  0.00  0.00    +0.000 A 
ATOM      9  C   UNL     1       0.085   8.894  21.790  0.00  0.00    +0.000 A 
ATOM     10  N   UNL     1      -0.424   9.944  22.513  0.00  0.00    +0.000 N 
ATOM     11  C   UNL     1      -0.038  11.126  21.947  0.00  0.00    +0.000 A 
ATOM     12  N   UNL     1      -0.407  12.338  22.405  0.00  0.00    +0.000 NA
ATOM     13  C   UNL     1       0.085  13.354  21.662  0.00  0.00    +0.000 A 
ATOM     14  C   UNL     1       0.899  13.220  20.545  0.00  0.00    +0.000 A 
ATOM     15  C   UNL     1       1.257  11.938  20.118  0.00  0.00    +0.000 A 
ATOM     16  C   UNL     1       0.761  10.841  20.842  0.00  0.00    +0.000 A 
ATOM     17  H   UNL     1      -1.016   9.886  23.329  0.00  0.00    +0.000 HD
ENDBRANCH   5   8
BRANCH   1  18
ATOM     18  C   UNL     1       4.153   5.520  17.649  0.00  0.00    +0.000 C 
BRANCH  18  19
ATOM     19  C   UNL     1       5.556   6.022  18.000  0.00  0.00    +0.000 A 
ATOM     20  C   UNL     1       6.281   5.414  19.037  0.00  0.00    +0.000 A 
ATOM     21  C   UNL     1       7.578   5.837  19.348  0.00  0.00    +0.000 A 
ATOM     22  C   UNL     1       8.168   6.879  18.635  0.00  0.00    +0.000 A 
ATOM     23  C   UNL     1       7.474   7.482  17.594  0.00  0.00    +0.000 A 
ATOM     24  C   UNL     1       6.191   7.042  17.267  0.00  0.00    +0.000 A 
ENDBRANCH  18  19
BRANCH  18  26
ATOM     25  C   UNL     1       2.690   3.405  17.070  0.00  0.00    +0.000 C 
ATOM     26  C   UNL     1       4.089   4.009  17.243  0.00  0.00    +0.000 C 
ATOM     27  C   UNL     1       4.891   3.726  15.966  0.00  0.00    +0.000 C 
ENDBRANCH  18  26
ENDBRANCH   1  18
TORSDOF 4
ENDMDL
MODEL 9
REMARK VINA RESULT:      -7.9      6.283      9.514
REMARK  Name = 
REMARK  6 active torsions:
REMARK  status: ('A' for Active; 'I' for Inactive)
REMARK    1  A    between atoms: C_1  and  C_2
REMARK    2  A    between atoms: C_2  and  C_3
REMARK    3  A    between atoms: C_2  and  C_4
REMARK    4  A    between atoms: C_4  and  N_5
REMARK    5  A    between atoms: C_4  and  C_20
REMARK    6  A    between atoms: C_9  and  C_10
REMARK                            x       y       z     vdW  Elec       q    Type
REMARK                         _______ _______ _______ _____ _____    ______ ____
ROOT
ATOM      1  N   UNL     1       0.621  10.201  19.328  0.00  0.00    +0.000 N 
ATOM      2  C   UNL     1       1.468   9.415  18.636  0.00  0.00    +0.000 A 
ATOM      3  N   UNL     1       2.275   9.658  17.626  0.00  0.00    +0.000 NA
ATOM      4  N   UNL     1       2.964   8.483  17.385  0.00  0.00    +0.000 NA
ATOM      5  C   UNL     1       2.520   7.594  18.254  0.00  0.00    +0.000 A 
ATOM      6  O   UNL     1       1.538   8.120  19.062  0.00  0.00    +0.000 OA
ATOM      7  H   UNL     1      -0.024   9.688  19.918  0.00  0.00    +0.000 HD
ENDROOT
BRANCH   5   8
ATOM      8  C   UNL     1       3.037   6.202  18.393  0.00  0.00    +0.000 A 
ATOM      9  C   UNL     1       3.921   5.613  17.506  0.00  0.00    +0.000 A 
ATOM     10  N   UNL     1       4.144   4.327  17.929  0.00  0.00    +0.000 N 
ATOM     11  C   UNL     1       3.406   4.075  19.052  0.00  0.00    +0.000 A 
ATOM     12  N   UNL     1       3.382   2.887  19.687  0.00  0.00    +0.000 NA
ATOM     13  C   UNL     1       2.560   2.882  20.760  0.00  0.00    +0.000 A 
ATOM     14  C   UNL     1       1.809   3.959  21.211  0.00  0.00    +0.000 A 
ATOM     15  C   UNL     1       1.879   5.170  20.517  0.00  0.00    +0.000 A 
ATOM     16  C   UNL     1       2.705   5.232  19.382  0.00  0.00    +0.000 A 
ATOM     17  H   UNL     1       4.736   3.639  17.488  0.00  0.00    +0.000 HD
ENDBRANCH   5   8
BRANCH   1  18
ATOM     18  C   UNL     1       0.036  11.377  18.685  0.00  0.00    +0.000 C 
BRANCH  18  19
ATOM     19  C   UNL     1      -1.429  11.065  18.367  0.00  0.00    +0.000 A 
ATOM     20  C   UNL     1      -2.451  11.867  18.899  0.00  0.00    +0.000 A 
ATOM     21  C   UNL     1      -3.792  11.618  18.591  0.00  0.00    +0.000 A 
ATOM     22  C   UNL     1      -4.136  10.558  17.754  0.00  0.00    +0.000 A 
ATOM     23  C   UNL     1      -3.139   9.763  17.203  0.00  0.00    +0.000 A 
ATOM     24  C   UNL     1      -1.800  10.029  17.490  0.00  0.00    +0.000 A 
ENDBRANCH  18  19
BRANCH  18  26
ATOM     25  C   UNL     1       1.064  12.547  20.812  0.00  0.00    +0.000 C 
ATOM     26  C   UNL     1       0.253  12.685  19.518  0.00  0.00    +0.000 C 
ATOM     27  C   UNL     1       0.886  13.801  18.675  0.00  0.00    +0.000 C 
ENDBRANCH  18  26
ENDBRANCH   1  18
TORSDOF 4
ENDMDL
