MODEL 1
REMARK VINA RESULT:      -7.8      0.000      0.000
REMARK  Name = 
REMARK  3 active torsions:
REMARK  status: ('A' for Active; 'I' for Inactive)
REMARK    1  A    between atoms: C_1  and  C_2
REMARK    2  A    between atoms: C_16  and  C_17
REMARK    3  A    between atoms: C_16  and  C_18
REMARK                            x       y       z     vdW  Elec       q    Type
REMARK                         _______ _______ _______ _____ _____    ______ ____
ROOT
ATOM      1  C   UNL     1       6.942   5.575  19.585  0.00  0.00    +0.000 C 
ATOM      2  C   UNL     1       7.142   5.223  18.110  0.00  0.00    +0.000 C 
ATOM      3  C   UNL     1       7.375   6.533  17.341  0.00  0.00    +0.000 C 
ATOM      4  O   UNL     1       7.821   6.285  16.009  0.00  0.00    +0.000 OA
ATOM      5  C   UNL     1       7.068   5.326  15.376  0.00  0.00    +0.000 A 
ATOM      6  C   UNL     1       7.254   5.265  13.990  0.00  0.00    +0.000 A 
ATOM      7  C   UNL     1       6.541   4.346  13.228  0.00  0.00    +0.000 A 
ATOM      8  C   UNL     1       5.678   3.461  13.858  0.00  0.00    +0.000 A 
ATOM      9  C   UNL     1       5.526   3.495  15.250  0.00  0.00    +0.000 A 
ATOM     10  C   UNL     1       6.185   4.450  16.045  0.00  0.00    +0.000 A 
ATOM     11  N   UNL     1       6.001   4.526  17.464  0.00  0.00    +0.000 N 
ATOM     12  C   UNL     1       4.955   3.957  18.170  0.00  0.00    +0.000 C 
ATOM     13  N   UNL     1       5.040   3.405  19.338  0.00  0.00    +0.000 NA
ATOM     14  C   UNL     1       3.833   2.981  19.856  0.00  0.00    +0.000 C 
ATOM     15  O   UNL     1       3.724   2.498  20.980  0.00  0.00    +0.000 OA
ATOM     16  C   UNL     1       2.648   3.150  18.921  0.00  0.00    +0.000 C 
ATOM     17  C   UNL     1       2.140   1.778  18.481  0.00  0.00    +0.000 C 
ATOM     18  C   UNL     1       1.550   4.004  19.546  0.00  0.00    +0.000 C 
ATOM     19  S   UNL     1       3.324   4.065  17.510  0.00  0.00    +0.000 S 
ENDROOT
TORSDOF 0
ENDMDL
MODEL 2
REMARK VINA RESULT:      -7.3      2.399      6.261
REMARK  Name = 
REMARK  3 active torsions:
REMARK  status: ('A' for Active; 'I' for Inactive)
REMARK    1  A    between atoms: C_1  and  C_2
REMARK    2  A    between atoms: C_16  and  C_17
REMARK    3  A    between atoms: C_16  and  C_18
REMARK                            x       y       z     vdW  Elec       q    Type
REMARK                         _______ _______ _______ _____ _____    ______ ____
ROOT
ATOM      1  C   UNL     1       2.266   7.940  18.214  0.00  0.00    +0.000 C 
ATOM      2  C   UNL     1       2.058   6.608  18.937  0.00  0.00    +0.000 C 
ATOM      3  C   UNL     1       1.754   6.917  20.412  0.00  0.00    +0.000 C 
ATOM      4  O   UNL     1       1.297   5.756  21.105  0.00  0.00    +0.000 OA
ATOM      5  C   UNL     1       2.081   4.657  20.855  0.00  0.00    +0.000 A 
ATOM      6  C   UNL     1       1.876   3.587  21.735  0.00  0.00    +0.000 A 
ATOM      7  C   UNL     1       2.616   2.418  21.599  0.00  0.00    +0.000 A 
ATOM      8  C   UNL     1       3.529   2.304  20.560  0.00  0.00    +0.000 A 
ATOM      9  C   UNL     1       3.703   3.360  19.657  0.00  0.00    +0.000 A 
ATOM     10  C   UNL     1       3.014   4.578  19.797  0.00  0.00    +0.000 A 
ATOM     11  N   UNL     1       3.219   5.682  18.908  0.00  0.00    +0.000 N 
ATOM     12  C   UNL     1       4.301   5.840  18.059  0.00  0.00    +0.000 C 
ATOM     13  N   UNL     1       4.260   6.332  16.862  0.00  0.00    +0.000 NA
ATOM     14  C   UNL     1       5.494   6.452  16.254  0.00  0.00    +0.000 C 
ATOM     15  O   UNL     1       5.642   6.960  15.146  0.00  0.00    +0.000 OA
ATOM     16  C   UNL     1       6.654   5.895  17.061  0.00  0.00    +0.000 C 
ATOM     17  C   UNL     1       7.216   4.656  16.366  0.00  0.00    +0.000 C 
ATOM     18  C   UNL     1       7.722   6.951  17.320  0.00  0.00    +0.000 C 
ATOM     19  S   UNL     1       5.914   5.454  18.655  0.00  0.00    +0.000 S 
ENDROOT
TORSDOF 0
ENDMDL
MODEL 3
REMARK VINA RESULT:      -6.6      2.317      5.995
REMARK  Name = 
REMARK  3 active torsions:
REMARK  status: ('A' for Active; 'I' for Inactive)
REMARK    1  A    between atoms: C_1  and  C_2
REMARK    2  A    between atoms: C_16  and  C_17
REMARK    3  A    between atoms: C_16  and  C_18
REMARK                            x       y       z     vdW  Elec       q    Type
REMARK                         _______ _______ _______ _____ _____    ______ ____
ROOT
ATOM      1  C   UNL     1       2.716   7.973  19.178  0.00  0.00    +0.000 C 
ATOM      2  C   UNL     1       2.153   6.551  19.132  0.00  0.00    +0.000 C 
ATOM      3  C   UNL     1       1.524   6.249  20.501  0.00  0.00    +0.000 C 
ATOM      4  O   UNL     1       0.754   5.049  20.469  0.00  0.00    +0.000 OA
ATOM      5  C   UNL     1       1.423   4.016  19.858  0.00  0.00    +0.000 A 
ATOM      6  C   UNL     1       0.858   2.753  20.072  0.00  0.00    +0.000 A 
ATOM      7  C   UNL     1       1.445   1.621  19.519  0.00  0.00    +0.000 A 
ATOM      8  C   UNL     1       2.571   1.757  18.720  0.00  0.00    +0.000 A 
ATOM      9  C   UNL     1       3.111   3.026  18.473  0.00  0.00    +0.000 A 
ATOM     10  C   UNL     1       2.577   4.186  19.062  0.00  0.00    +0.000 A 
ATOM     11  N   UNL     1       3.149   5.484  18.856  0.00  0.00    +0.000 N 
ATOM     12  C   UNL     1       4.424   5.733  18.379  0.00  0.00    +0.000 C 
ATOM     13  N   UNL     1       4.759   6.690  17.574  0.00  0.00    +0.000 NA
ATOM     14  C   UNL     1       6.112   6.766  17.311  0.00  0.00    +0.000 C 
ATOM     15  O   UNL     1       6.607   7.654  16.623  0.00  0.00    +0.000 OA
ATOM     16  C   UNL     1       6.940   5.655  17.933  0.00  0.00    +0.000 C 
ATOM     17  C   UNL     1       7.492   4.748  16.835  0.00  0.00    +0.000 C 
ATOM     18  C   UNL     1       8.037   6.206  18.838  0.00  0.00    +0.000 C 
ATOM     19  S   UNL     1       5.763   4.755  18.976  0.00  0.00    +0.000 S 
ENDROOT
TORSDOF 0
ENDMDL
MODEL 4
REMARK VINA RESULT:      -6.5      1.936      6.127
REMARK  Name = 
REMARK  3 active torsions:
REMARK  status: ('A' for Active; 'I' for Inactive)
REMARK    1  A    between atoms: C_1  and  C_2
REMARK    2  A    between atoms: C_16  and  C_17
REMARK    3  A    between atoms: C_16  and  C_18
REMARK                            x       y       z     vdW  Elec       q    Type
REMARK                         _______ _______ _______ _____ _____    ______ ____
ROOT
ATOM      1  C   UNL     1       4.590   1.792  19.341  0.00  0.00    +0.000 C 
ATOM      2  C   UNL     1       3.710   2.906  19.912  0.00  0.00    +0.000 C 
ATOM      3  C   UNL     1       2.245   2.541  19.623  0.00  0.00    +0.000 C 
ATOM      4  O   UNL     1       1.346   3.388  20.337  0.00  0.00    +0.000 OA
ATOM      5  C   UNL     1       1.682   4.715  20.230  0.00  0.00    +0.000 A 
ATOM      6  C   UNL     1       0.679   5.602  20.638  0.00  0.00    +0.000 A 
ATOM      7  C   UNL     1       0.887   6.975  20.567  0.00  0.00    +0.000 A 
ATOM      8  C   UNL     1       2.112   7.458  20.130  0.00  0.00    +0.000 A 
ATOM      9  C   UNL     1       3.129   6.568  19.762  0.00  0.00    +0.000 A 
ATOM     10  C   UNL     1       2.934   5.176  19.765  0.00  0.00    +0.000 A 
ATOM     11  N   UNL     1       3.951   4.258  19.345  0.00  0.00    +0.000 N 
ATOM     12  C   UNL     1       5.064   4.582  18.590  0.00  0.00    +0.000 C 
ATOM     13  N   UNL     1       6.251   4.087  18.737  0.00  0.00    +0.000 NA
ATOM     14  C   UNL     1       7.169   4.523  17.803  0.00  0.00    +0.000 C 
ATOM     15  O   UNL     1       8.322   4.101  17.757  0.00  0.00    +0.000 OA
ATOM     16  C   UNL     1       6.643   5.573  16.841  0.00  0.00    +0.000 C 
ATOM     17  C   UNL     1       7.335   6.909  17.108  0.00  0.00    +0.000 C 
ATOM     18  C   UNL     1       6.778   5.129  15.389  0.00  0.00    +0.000 C 
ATOM     19  S   UNL     1       4.875   5.681  17.224  0.00  0.00    +0.000 S 
ENDROOT
TORSDOF 0
ENDMDL
MODEL 5
REMARK VINA RESULT:      -5.9     14.474     16.123
REMARK  Name = 
REMARK  3 active torsions:
REMARK  status: ('A' for Active; 'I' for Inactive)
REMARK    1  A    between atoms: C_1  and  C_2
REMARK    2  A    between atoms: C_16  and  C_17
REMARK    3  A    between atoms: C_16  and  C_18
REMARK                            x       y       z     vdW  Elec       q    Type
REMARK                         _______ _______ _______ _____ _____    ______ ____
ROOT
ATOM      1  C   UNL     1      -6.836  10.565  19.119  0.00  0.00    +0.000 C 
ATOM      2  C   UNL     1      -7.211  11.920  18.514  0.00  0.00    +0.000 C 
ATOM      3  C   UNL     1      -6.180  12.249  17.422  0.00  0.00    +0.000 C 
ATOM      4  O   UNL     1      -6.592  13.364  16.634  0.00  0.00    +0.000 OA
ATOM      5  C   UNL     1      -7.029  14.414  17.403  0.00  0.00    +0.000 A 
ATOM      6  C   UNL     1      -7.147  15.627  16.715  0.00  0.00    +0.000 A 
ATOM      7  C   UNL     1      -7.568  16.773  17.381  0.00  0.00    +0.000 A 
ATOM      8  C   UNL     1      -7.911  16.694  18.724  0.00  0.00    +0.000 A 
ATOM      9  C   UNL     1      -7.833  15.470  19.400  0.00  0.00    +0.000 A 
ATOM     10  C   UNL     1      -7.356  14.304  18.773  0.00  0.00    +0.000 A 
ATOM     11  N   UNL     1      -7.226  13.058  19.468  0.00  0.00    +0.000 N 
ATOM     12  C   UNL     1      -7.206  12.903  20.843  0.00  0.00    +0.000 C 
ATOM     13  N   UNL     1      -7.750  11.932  21.504  0.00  0.00    +0.000 NA
ATOM     14  C   UNL     1      -7.519  11.971  22.865  0.00  0.00    +0.000 C 
ATOM     15  O   UNL     1      -7.905  11.091  23.630  0.00  0.00    +0.000 OA
ATOM     16  C   UNL     1      -6.758  13.195  23.343  0.00  0.00    +0.000 C 
ATOM     17  C   UNL     1      -7.680  14.077  24.184  0.00  0.00    +0.000 C 
ATOM     18  C   UNL     1      -5.482  12.815  24.084  0.00  0.00    +0.000 C 
ATOM     19  S   UNL     1      -6.280  14.044  21.815  0.00  0.00    +0.000 S 
ENDROOT
TORSDOF 0
ENDMDL
MODEL 6
REMARK VINA RESULT:      -5.8      9.518     12.054
REMARK  Name = 
REMARK  3 active torsions:
REMARK  status: ('A' for Active; 'I' for Inactive)
REMARK    1  A    between atoms: C_1  and  C_2
REMARK    2  A    between atoms: C_16  and  C_17
REMARK    3  A    between atoms: C_16  and  C_18
REMARK                            x       y       z     vdW  Elec       q    Type
REMARK                         _______ _______ _______ _____ _____    ______ ____
ROOT
ATOM      1  C   UNL     1      10.957  16.842  17.736  0.00  0.00    +0.000 C 
ATOM      2  C   UNL     1       9.427  16.832  17.739  0.00  0.00    +0.000 C 
ATOM      3  C   UNL     1       8.952  17.910  18.726  0.00  0.00    +0.000 C 
ATOM      4  O   UNL     1       7.550  18.147  18.607  0.00  0.00    +0.000 OA
ATOM      5  C   UNL     1       6.825  16.981  18.574  0.00  0.00    +0.000 A 
ATOM      6  C   UNL     1       5.450  17.148  18.772  0.00  0.00    +0.000 A 
ATOM      7  C   UNL     1       4.603  16.045  18.775  0.00  0.00    +0.000 A 
ATOM      8  C   UNL     1       5.128  14.782  18.538  0.00  0.00    +0.000 A 
ATOM      9  C   UNL     1       6.498  14.622  18.298  0.00  0.00    +0.000 A 
ATOM     10  C   UNL     1       7.392  15.707  18.345  0.00  0.00    +0.000 A 
ATOM     11  N   UNL     1       8.802  15.549  18.149  0.00  0.00    +0.000 N 
ATOM     12  C   UNL     1       9.496  14.355  18.237  0.00  0.00    +0.000 C 
ATOM     13  N   UNL     1      10.485  13.995  17.482  0.00  0.00    +0.000 NA
ATOM     14  C   UNL     1      11.053  12.786  17.827  0.00  0.00    +0.000 C 
ATOM     15  O   UNL     1      12.042  12.330  17.258  0.00  0.00    +0.000 OA
ATOM     16  C   UNL     1      10.352  12.057  18.960  0.00  0.00    +0.000 C 
ATOM     17  C   UNL     1       9.686  10.791  18.423  0.00  0.00    +0.000 C 
ATOM     18  C   UNL     1      11.299  11.768  20.119  0.00  0.00    +0.000 C 
ATOM     19  S   UNL     1       9.108  13.237  19.544  0.00  0.00    +0.000 S 
ENDROOT
TORSDOF 0
ENDMDL
MODEL 7
REMARK VINA RESULT:      -5.7      9.996     12.108
REMARK  Name = 
REMARK  3 active torsions:
REMARK  status: ('A' for Active; 'I' for Inactive)
REMARK    1  A    between atoms: C_1  and  C_2
REMARK    2  A    between atoms: C_16  and  C_17
REMARK    3  A    between atoms: C_16  and  C_18
REMARK                            x       y       z     vdW  Elec       q    Type
REMARK                         _______ _______ _______ _____ _____    ______ ____
ROOT
ATOM      1  C   UNL     1      -0.812  10.006  17.620  0.00  0.00    +0.000 C 
ATOM      2  C   UNL     1      -2.292  10.391  17.679  0.00  0.00    +0.000 C 
ATOM      3  C   UNL     1      -2.667  11.027  16.332  0.00  0.00    +0.000 C 
ATOM      4  O   UNL     1      -4.078  11.184  16.203  0.00  0.00    +0.000 OA
ATOM      5  C   UNL     1      -4.647  11.738  17.324  0.00  0.00    +0.000 A 
ATOM      6  C   UNL     1      -5.956  12.199  17.142  0.00  0.00    +0.000 A 
ATOM      7  C   UNL     1      -6.641  12.794  18.196  0.00  0.00    +0.000 A 
ATOM      8  C   UNL     1      -6.033  12.887  19.440  0.00  0.00    +0.000 A 
ATOM      9  C   UNL     1      -4.739  12.387  19.630  0.00  0.00    +0.000 A 
ATOM     10  C   UNL     1      -3.994  11.832  18.573  0.00  0.00    +0.000 A 
ATOM     11  N   UNL     1      -2.652  11.361  18.744  0.00  0.00    +0.000 N 
ATOM     12  C   UNL     1      -1.817  11.682  19.800  0.00  0.00    +0.000 C 
ATOM     13  N   UNL     1      -0.980  10.880  20.377  0.00  0.00    +0.000 NA
ATOM     14  C   UNL     1      -0.209  11.470  21.357  0.00  0.00    +0.000 C 
ATOM     15  O   UNL     1       0.680  10.869  21.955  0.00  0.00    +0.000 OA
ATOM     16  C   UNL     1      -0.552  12.921  21.644  0.00  0.00    +0.000 C 
ATOM     17  C   UNL     1      -1.161  13.039  23.040  0.00  0.00    +0.000 C 
ATOM     18  C   UNL     1       0.653  13.836  21.457  0.00  0.00    +0.000 C 
ATOM     19  S   UNL     1      -1.772  13.348  20.375  0.00  0.00    +0.000 S 
ENDROOT
TORSDOF 0
ENDMDL
MODEL 8
REMARK VINA RESULT:      -5.7     10.193     12.408
REMARK  Name = 
REMARK  3 active torsions:
REMARK  status: ('A' for Active; 'I' for Inactive)
REMARK    1  A    between atoms: C_1  and  C_2
REMARK    2  A    between atoms: C_16  and  C_17
REMARK    3  A    between atoms: C_16  and  C_18
REMARK                            x       y       z     vdW  Elec       q    Type
REMARK                         _______ _______ _______ _____ _____    ______ ____
ROOT
ATOM      1  C   UNL     1      10.067  17.781  19.090  0.00  0.00    +0.000 C 
ATOM      2  C   UNL     1       8.615  17.477  18.716  0.00  0.00    +0.000 C 
ATOM      3  C   UNL     1       7.713  18.088  19.801  0.00  0.00    +0.000 C 
ATOM      4  O   UNL     1       6.342  18.076  19.407  0.00  0.00    +0.000 OA
ATOM      5  C   UNL     1       5.956  16.860  18.899  0.00  0.00    +0.000 A 
ATOM      6  C   UNL     1       4.570  16.691  18.791  0.00  0.00    +0.000 A 
ATOM      7  C   UNL     1       4.046  15.499  18.303  0.00  0.00    +0.000 A 
ATOM      8  C   UNL     1       4.908  14.496  17.883  0.00  0.00    +0.000 A 
ATOM      9  C   UNL     1       6.294  14.683  17.953  0.00  0.00    +0.000 A 
ATOM     10  C   UNL     1       6.859  15.852  18.495  0.00  0.00    +0.000 A 
ATOM     11  N   UNL     1       8.275  16.035  18.616  0.00  0.00    +0.000 N 
ATOM     12  C   UNL     1       9.223  15.028  18.560  0.00  0.00    +0.000 C 
ATOM     13  N   UNL     1      10.389  15.115  18.003  0.00  0.00    +0.000 NA
ATOM     14  C   UNL     1      11.175  13.990  18.152  0.00  0.00    +0.000 C 
ATOM     15  O   UNL     1      12.332  13.930  17.745  0.00  0.00    +0.000 OA
ATOM     16  C   UNL     1      10.492  12.828  18.853  0.00  0.00    +0.000 C 
ATOM     17  C   UNL     1      10.276  11.686  17.862  0.00  0.00    +0.000 C 
ATOM     18  C   UNL     1      11.259  12.385  20.093  0.00  0.00    +0.000 C 
ATOM     19  S   UNL     1       8.905  13.511  19.398  0.00  0.00    +0.000 S 
ENDROOT
TORSDOF 0
ENDMDL
MODEL 9
REMARK VINA RESULT:      -5.7      8.473     10.037
REMARK  Name = 
REMARK  3 active torsions:
REMARK  status: ('A' for Active; 'I' for Inactive)
REMARK    1  A    between atoms: C_1  and  C_2
REMARK    2  A    between atoms: C_16  and  C_17
REMARK    3  A    between atoms: C_16  and  C_18
REMARK                            x       y       z     vdW  Elec       q    Type
REMARK                         _______ _______ _______ _____ _____    ______ ____
ROOT
ATOM      1  C   UNL     1      -0.991  10.698  23.016  0.00  0.00    +0.000 C 
ATOM      2  C   UNL     1      -0.393   9.869  21.878  0.00  0.00    +0.000 C 
ATOM      3  C   UNL     1       0.741   9.014  22.465  0.00  0.00    +0.000 C 
ATOM      4  O   UNL     1       1.186   8.027  21.537  0.00  0.00    +0.000 OA
ATOM      5  C   UNL     1       1.394   8.546  20.282  0.00  0.00    +0.000 A 
ATOM      6  C   UNL     1       2.118   7.712  19.423  0.00  0.00    +0.000 A 
ATOM      7  C   UNL     1       2.409   8.125  18.127  0.00  0.00    +0.000 A 
ATOM      8  C   UNL     1       1.938   9.352  17.680  0.00  0.00    +0.000 A 
ATOM      9  C   UNL     1       1.178  10.166  18.528  0.00  0.00    +0.000 A 
ATOM     10  C   UNL     1       0.915   9.807  19.862  0.00  0.00    +0.000 A 
ATOM     11  N   UNL     1       0.179  10.654  20.754  0.00  0.00    +0.000 N 
ATOM     12  C   UNL     1      -0.056  12.005  20.568  0.00  0.00    +0.000 C 
ATOM     13  N   UNL     1      -1.149  12.632  20.864  0.00  0.00    +0.000 NA
ATOM     14  C   UNL     1      -1.099  13.995  20.650  0.00  0.00    +0.000 C 
ATOM     15  O   UNL     1      -2.025  14.748  20.941  0.00  0.00    +0.000 OA
ATOM     16  C   UNL     1       0.189  14.489  20.015  0.00  0.00    +0.000 C 
ATOM     17  C   UNL     1      -0.094  14.986  18.598  0.00  0.00    +0.000 C 
ATOM     18  C   UNL     1       0.876  15.544  20.875  0.00  0.00    +0.000 C 
ATOM     19  S   UNL     1       1.256  13.025  19.979  0.00  0.00    +0.000 S 
ENDROOT
TORSDOF 0
ENDMDL
