MODEL 1
REMARK VINA RESULT:      -7.3      0.000      0.000
REMARK  Name = 
REMARK  2 active torsions:
REMARK  status: ('A' for Active; 'I' for Inactive)
REMARK    1  A    between atoms: C_1  and  N_2
REMARK    2  A    between atoms: C_9  and  C_10
REMARK                            x       y       z     vdW  Elec       q    Type
REMARK                         _______ _______ _______ _____ _____    ______ ____
ROOT
ATOM      1  C   UNL     1       1.507   8.791  20.367  0.00  0.00    +0.000 C 
ATOM      2  N   UNL     1       1.982   7.824  19.408  0.00  0.00    +0.000 N 
ATOM      3  C   UNL     1       2.249   6.508  19.695  0.00  0.00    +0.000 A 
ATOM      4  C   UNL     1       1.527   5.785  20.788  0.00  0.00    +0.000 A 
ATOM      5  C   UNL     1       1.849   4.511  21.033  0.00  0.00    +0.000 A 
ATOM      6  C   UNL     1       2.838   3.886  20.251  0.00  0.00    +0.000 A 
ATOM      7  N   UNL     1       3.322   2.666  20.306  0.00  0.00    +0.000 NA
ATOM      8  C   UNL     1       4.245   2.613  19.296  0.00  0.00    +0.000 A 
ATOM      9  C   UNL     1       4.337   3.811  18.601  0.00  0.00    +0.000 A 
ATOM     10  N   UNL     1       3.422   4.635  19.242  0.00  0.00    +0.000 N 
ATOM     11  N   UNL     1       3.162   5.948  18.947  0.00  0.00    +0.000 NA
ATOM     12  H   UNL     1       2.653   8.194  18.740  0.00  0.00    +0.000 HD
ENDROOT
BRANCH   9  13
ATOM     13  C   UNL     1       5.198   4.174  17.468  0.00  0.00    +0.000 A 
ATOM     14  C   UNL     1       4.703   4.255  16.157  0.00  0.00    +0.000 A 
ATOM     15  C   UNL     1       5.541   4.600  15.092  0.00  0.00    +0.000 A 
ATOM     16  C   UNL     1       6.884   4.852  15.331  0.00  0.00    +0.000 A 
ATOM     17  F   UNL     1       7.688   5.182  14.311  0.00  0.00    +0.000 F 
ATOM     18  C   UNL     1       7.406   4.764  16.614  0.00  0.00    +0.000 A 
ATOM     19  C   UNL     1       6.565   4.426  17.678  0.00  0.00    +0.000 A 
ENDBRANCH   9  13
TORSDOF 1
ENDMDL
MODEL 2
REMARK VINA RESULT:      -7.3      3.620      6.233
REMARK  Name = 
REMARK  2 active torsions:
REMARK  status: ('A' for Active; 'I' for Inactive)
REMARK    1  A    between atoms: C_1  and  N_2
REMARK    2  A    between atoms: C_9  and  C_10
REMARK                            x       y       z     vdW  Elec       q    Type
REMARK                         _______ _______ _______ _____ _____    ______ ____
ROOT
ATOM      1  C   UNL     1       6.104   3.319  12.046  0.00  0.00    +0.000 C 
ATOM      2  N   UNL     1       5.324   3.755  13.178  0.00  0.00    +0.000 N 
ATOM      3  C   UNL     1       5.853   4.182  14.371  0.00  0.00    +0.000 A 
ATOM      4  C   UNL     1       7.201   4.825  14.442  0.00  0.00    +0.000 A 
ATOM      5  C   UNL     1       7.671   5.199  15.637  0.00  0.00    +0.000 A 
ATOM      6  C   UNL     1       6.881   4.993  16.783  0.00  0.00    +0.000 A 
ATOM      7  N   UNL     1       7.125   5.264  18.045  0.00  0.00    +0.000 NA
ATOM      8  C   UNL     1       5.998   4.863  18.711  0.00  0.00    +0.000 A 
ATOM      9  C   UNL     1       5.038   4.338  17.855  0.00  0.00    +0.000 A 
ATOM     10  N   UNL     1       5.632   4.418  16.604  0.00  0.00    +0.000 N 
ATOM     11  N   UNL     1       5.096   3.990  15.418  0.00  0.00    +0.000 NA
ATOM     12  H   UNL     1       4.473   3.221  13.328  0.00  0.00    +0.000 HD
ENDROOT
BRANCH   9  13
ATOM     13  C   UNL     1       3.708   3.794  18.160  0.00  0.00    +0.000 A 
ATOM     14  C   UNL     1       2.532   4.502  17.865  0.00  0.00    +0.000 A 
ATOM     15  C   UNL     1       1.276   3.967  18.165  0.00  0.00    +0.000 A 
ATOM     16  C   UNL     1       1.189   2.724  18.776  0.00  0.00    +0.000 A 
ATOM     17  F   UNL     1      -0.014   2.210  19.065  0.00  0.00    +0.000 F 
ATOM     18  C   UNL     1       2.334   2.007  19.095  0.00  0.00    +0.000 A 
ATOM     19  C   UNL     1       3.589   2.542  18.786  0.00  0.00    +0.000 A 
ENDBRANCH   9  13
TORSDOF 1
ENDMDL
MODEL 3
REMARK VINA RESULT:      -7.2      0.769      1.362
REMARK  Name = 
REMARK  2 active torsions:
REMARK  status: ('A' for Active; 'I' for Inactive)
REMARK    1  A    between atoms: C_1  and  N_2
REMARK    2  A    between atoms: C_9  and  C_10
REMARK                            x       y       z     vdW  Elec       q    Type
REMARK                         _______ _______ _______ _____ _____    ______ ____
ROOT
ATOM      1  C   UNL     1       1.651   8.060  21.010  0.00  0.00    +0.000 C 
ATOM      2  N   UNL     1       2.094   7.332  19.846  0.00  0.00    +0.000 N 
ATOM      3  C   UNL     1       2.139   5.963  19.754  0.00  0.00    +0.000 A 
ATOM      4  C   UNL     1       1.202   5.096  20.533  0.00  0.00    +0.000 A 
ATOM      5  C   UNL     1       1.311   3.769  20.417  0.00  0.00    +0.000 A 
ATOM      6  C   UNL     1       2.287   3.229  19.559  0.00  0.00    +0.000 A 
ATOM      7  N   UNL     1       2.586   1.979  19.289  0.00  0.00    +0.000 NA
ATOM      8  C   UNL     1       3.603   2.055  18.376  0.00  0.00    +0.000 A 
ATOM      9  C   UNL     1       3.943   3.366  18.070  0.00  0.00    +0.000 A 
ATOM     10  N   UNL     1       3.084   4.121  18.857  0.00  0.00    +0.000 N 
ATOM     11  N   UNL     1       3.046   5.488  18.942  0.00  0.00    +0.000 NA
ATOM     12  H   UNL     1       2.883   7.756  19.365  0.00  0.00    +0.000 HD
ENDROOT
BRANCH   9  13
ATOM     13  C   UNL     1       4.971   3.880  17.156  0.00  0.00    +0.000 A 
ATOM     14  C   UNL     1       6.220   4.324  17.619  0.00  0.00    +0.000 A 
ATOM     15  C   UNL     1       7.183   4.811  16.731  0.00  0.00    +0.000 A 
ATOM     16  C   UNL     1       6.899   4.869  15.375  0.00  0.00    +0.000 A 
ATOM     17  F   UNL     1       7.822   5.336  14.523  0.00  0.00    +0.000 F 
ATOM     18  C   UNL     1       5.668   4.452  14.889  0.00  0.00    +0.000 A 
ATOM     19  C   UNL     1       4.707   3.959  15.777  0.00  0.00    +0.000 A 
ENDBRANCH   9  13
TORSDOF 1
ENDMDL
MODEL 4
REMARK VINA RESULT:      -7.2      3.615      6.315
REMARK  Name = 
REMARK  2 active torsions:
REMARK  status: ('A' for Active; 'I' for Inactive)
REMARK    1  A    between atoms: C_1  and  N_2
REMARK    2  A    between atoms: C_9  and  C_10
REMARK                            x       y       z     vdW  Elec       q    Type
REMARK                         _______ _______ _______ _____ _____    ______ ____
ROOT
ATOM      1  C   UNL     1       6.232   3.245  11.968  0.00  0.00    +0.000 C 
ATOM      2  N   UNL     1       5.421   3.671  13.082  0.00  0.00    +0.000 N 
ATOM      3  C   UNL     1       5.917   4.152  14.268  0.00  0.00    +0.000 A 
ATOM      4  C   UNL     1       7.231   4.862  14.335  0.00  0.00    +0.000 A 
ATOM      5  C   UNL     1       7.670   5.287  15.524  0.00  0.00    +0.000 A 
ATOM      6  C   UNL     1       6.880   5.071  16.668  0.00  0.00    +0.000 A 
ATOM      7  N   UNL     1       7.099   5.385  17.925  0.00  0.00    +0.000 NA
ATOM      8  C   UNL     1       5.986   4.946  18.591  0.00  0.00    +0.000 A 
ATOM      9  C   UNL     1       5.061   4.354  17.741  0.00  0.00    +0.000 A 
ATOM     10  N   UNL     1       5.663   4.432  16.493  0.00  0.00    +0.000 N 
ATOM     11  N   UNL     1       5.159   3.949  15.313  0.00  0.00    +0.000 NA
ATOM     12  H   UNL     1       4.594   3.100  13.238  0.00  0.00    +0.000 HD
ENDROOT
BRANCH   9  13
ATOM     13  C   UNL     1       3.756   3.754  18.047  0.00  0.00    +0.000 A 
ATOM     14  C   UNL     1       3.617   2.387  18.336  0.00  0.00    +0.000 A 
ATOM     15  C   UNL     1       2.364   1.837  18.623  0.00  0.00    +0.000 A 
ATOM     16  C   UNL     1       1.239   2.649  18.610  0.00  0.00    +0.000 A 
ATOM     17  F   UNL     1       0.038   2.123  18.885  0.00  0.00    +0.000 F 
ATOM     18  C   UNL     1       1.343   4.001  18.312  0.00  0.00    +0.000 A 
ATOM     19  C   UNL     1       2.598   4.551  18.032  0.00  0.00    +0.000 A 
ENDBRANCH   9  13
TORSDOF 1
ENDMDL
MODEL 5
REMARK VINA RESULT:      -7.0      0.527      1.197
REMARK  Name = 
REMARK  2 active torsions:
REMARK  status: ('A' for Active; 'I' for Inactive)
REMARK    1  A    between atoms: C_1  and  N_2
REMARK    2  A    between atoms: C_9  and  C_10
REMARK                            x       y       z     vdW  Elec       q    Type
REMARK                         _______ _______ _______ _____ _____    ______ ____
ROOT
ATOM      1  C   UNL     1       1.513   9.155  19.712  0.00  0.00    +0.000 C 
ATOM      2  N   UNL     1       2.015   8.104  18.861  0.00  0.00    +0.000 N 
ATOM      3  C   UNL     1       2.335   6.840  19.290  0.00  0.00    +0.000 A 
ATOM      4  C   UNL     1       1.653   6.218  20.467  0.00  0.00    +0.000 A 
ATOM      5  C   UNL     1       2.026   4.993  20.850  0.00  0.00    +0.000 A 
ATOM      6  C   UNL     1       3.029   4.320  20.129  0.00  0.00    +0.000 A 
ATOM      7  N   UNL     1       3.561   3.133  20.314  0.00  0.00    +0.000 NA
ATOM      8  C   UNL     1       4.474   3.000  19.303  0.00  0.00    +0.000 A 
ATOM      9  C   UNL     1       4.514   4.115  18.476  0.00  0.00    +0.000 A 
ATOM     10  N   UNL     1       3.574   4.972  19.033  0.00  0.00    +0.000 N 
ATOM     11  N   UNL     1       3.261   6.233  18.597  0.00  0.00    +0.000 NA
ATOM     12  H   UNL     1       2.664   8.420  18.146  0.00  0.00    +0.000 HD
ENDROOT
BRANCH   9  13
ATOM     13  C   UNL     1       5.348   4.378  17.297  0.00  0.00    +0.000 A 
ATOM     14  C   UNL     1       6.533   5.126  17.379  0.00  0.00    +0.000 A 
ATOM     15  C   UNL     1       7.311   5.366  16.243  0.00  0.00    +0.000 A 
ATOM     16  C   UNL     1       6.901   4.871  15.013  0.00  0.00    +0.000 A 
ATOM     17  F   UNL     1       7.646   5.102  13.924  0.00  0.00    +0.000 F 
ATOM     18  C   UNL     1       5.726   4.142  14.898  0.00  0.00    +0.000 A 
ATOM     19  C   UNL     1       4.953   3.897  16.037  0.00  0.00    +0.000 A 
ENDBRANCH   9  13
TORSDOF 1
ENDMDL
MODEL 6
REMARK VINA RESULT:      -6.7      3.747      6.625
REMARK  Name = 
REMARK  2 active torsions:
REMARK  status: ('A' for Active; 'I' for Inactive)
REMARK    1  A    between atoms: C_1  and  N_2
REMARK    2  A    between atoms: C_9  and  C_10
REMARK                            x       y       z     vdW  Elec       q    Type
REMARK                         _______ _______ _______ _____ _____    ______ ____
ROOT
ATOM      1  C   UNL     1       6.359   2.370  11.552  0.00  0.00    +0.000 C 
ATOM      2  N   UNL     1       5.507   2.978  12.545  0.00  0.00    +0.000 N 
ATOM      3  C   UNL     1       5.947   3.801  13.552  0.00  0.00    +0.000 A 
ATOM      4  C   UNL     1       7.172   4.644  13.392  0.00  0.00    +0.000 A 
ATOM      5  C   UNL     1       7.563   5.407  14.418  0.00  0.00    +0.000 A 
ATOM      6  C   UNL     1       6.805   5.409  15.604  0.00  0.00    +0.000 A 
ATOM      7  N   UNL     1       6.990   6.059  16.730  0.00  0.00    +0.000 NA
ATOM      8  C   UNL     1       5.935   5.689  17.521  0.00  0.00    +0.000 A 
ATOM      9  C   UNL     1       5.082   4.799  16.881  0.00  0.00    +0.000 A 
ATOM     10  N   UNL     1       5.668   4.617  15.637  0.00  0.00    +0.000 N 
ATOM     11  N   UNL     1       5.220   3.793  14.637  0.00  0.00    +0.000 NA
ATOM     12  H   UNL     1       4.751   2.379  12.869  0.00  0.00    +0.000 HD
ENDROOT
BRANCH   9  13
ATOM     13  C   UNL     1       3.855   4.159  17.373  0.00  0.00    +0.000 A 
ATOM     14  C   UNL     1       2.700   4.901  17.671  0.00  0.00    +0.000 A 
ATOM     15  C   UNL     1       1.544   4.271  18.140  0.00  0.00    +0.000 A 
ATOM     16  C   UNL     1       1.538   2.897  18.327  0.00  0.00    +0.000 A 
ATOM     17  F   UNL     1       0.430   2.293  18.776  0.00  0.00    +0.000 F 
ATOM     18  C   UNL     1       2.669   2.139  18.056  0.00  0.00    +0.000 A 
ATOM     19  C   UNL     1       3.823   2.769  17.580  0.00  0.00    +0.000 A 
ENDBRANCH   9  13
TORSDOF 1
ENDMDL
MODEL 7
REMARK VINA RESULT:      -6.5      1.917      2.310
REMARK  Name = 
REMARK  2 active torsions:
REMARK  status: ('A' for Active; 'I' for Inactive)
REMARK    1  A    between atoms: C_1  and  N_2
REMARK    2  A    between atoms: C_9  and  C_10
REMARK                            x       y       z     vdW  Elec       q    Type
REMARK                         _______ _______ _______ _____ _____    ______ ____
ROOT
ATOM      1  C   UNL     1       0.391   7.823  21.652  0.00  0.00    +0.000 C 
ATOM      2  N   UNL     1       1.329   7.479  20.611  0.00  0.00    +0.000 N 
ATOM      3  C   UNL     1       1.820   6.216  20.391  0.00  0.00    +0.000 A 
ATOM      4  C   UNL     1       1.028   4.997  20.744  0.00  0.00    +0.000 A 
ATOM      5  C   UNL     1       1.571   3.795  20.526  0.00  0.00    +0.000 A 
ATOM      6  C   UNL     1       2.856   3.711  19.959  0.00  0.00    +0.000 A 
ATOM      7  N   UNL     1       3.589   2.662  19.662  0.00  0.00    +0.000 NA
ATOM      8  C   UNL     1       4.736   3.181  19.123  0.00  0.00    +0.000 A 
ATOM      9  C   UNL     1       4.718   4.570  19.079  0.00  0.00    +0.000 A 
ATOM     10  N   UNL     1       3.492   4.901  19.638  0.00  0.00    +0.000 N 
ATOM     11  N   UNL     1       3.010   6.166  19.853  0.00  0.00    +0.000 NA
ATOM     12  H   UNL     1       2.044   8.182  20.447  0.00  0.00    +0.000 HD
ENDROOT
BRANCH   9  13
ATOM     13  C   UNL     1       5.739   5.505  18.590  0.00  0.00    +0.000 A 
ATOM     14  C   UNL     1       7.001   5.609  19.196  0.00  0.00    +0.000 A 
ATOM     15  C   UNL     1       7.957   6.508  18.714  0.00  0.00    +0.000 A 
ATOM     16  C   UNL     1       7.651   7.319  17.631  0.00  0.00    +0.000 A 
ATOM     17  F   UNL     1       8.567   8.181  17.169  0.00  0.00    +0.000 F 
ATOM     18  C   UNL     1       6.406   7.251  17.021  0.00  0.00    +0.000 A 
ATOM     19  C   UNL     1       5.454   6.345  17.500  0.00  0.00    +0.000 A 
ENDBRANCH   9  13
TORSDOF 1
ENDMDL
MODEL 8
REMARK VINA RESULT:      -6.5      3.477      6.158
REMARK  Name = 
REMARK  2 active torsions:
REMARK  status: ('A' for Active; 'I' for Inactive)
REMARK    1  A    between atoms: C_1  and  N_2
REMARK    2  A    between atoms: C_9  and  C_10
REMARK                            x       y       z     vdW  Elec       q    Type
REMARK                         _______ _______ _______ _____ _____    ______ ____
ROOT
ATOM      1  C   UNL     1       1.174   1.572  19.142  0.00  0.00    +0.000 C 
ATOM      2  N   UNL     1       1.057   2.945  18.716  0.00  0.00    +0.000 N 
ATOM      3  C   UNL     1       2.086   3.689  18.194  0.00  0.00    +0.000 A 
ATOM      4  C   UNL     1       3.211   3.050  17.444  0.00  0.00    +0.000 A 
ATOM      5  C   UNL     1       4.194   3.826  16.979  0.00  0.00    +0.000 A 
ATOM      6  C   UNL     1       4.135   5.216  17.192  0.00  0.00    +0.000 A 
ATOM      7  N   UNL     1       4.971   6.168  16.844  0.00  0.00    +0.000 NA
ATOM      8  C   UNL     1       4.393   7.322  17.300  0.00  0.00    +0.000 A 
ATOM      9  C   UNL     1       3.182   7.090  17.939  0.00  0.00    +0.000 A 
ATOM     10  N   UNL     1       3.032   5.712  17.871  0.00  0.00    +0.000 N 
ATOM     11  N   UNL     1       2.001   4.977  18.395  0.00  0.00    +0.000 NA
ATOM     12  H   UNL     1       0.459   3.516  19.308  0.00  0.00    +0.000 HD
ENDROOT
BRANCH   9  13
ATOM     13  C   UNL     1       2.258   8.041  18.570  0.00  0.00    +0.000 A 
ATOM     14  C   UNL     1       1.931   7.964  19.933  0.00  0.00    +0.000 A 
ATOM     15  C   UNL     1       1.047   8.879  20.512  0.00  0.00    +0.000 A 
ATOM     16  C   UNL     1       0.474   9.870  19.728  0.00  0.00    +0.000 A 
ATOM     17  F   UNL     1      -0.374  10.747  20.282  0.00  0.00    +0.000 F 
ATOM     18  C   UNL     1       0.765   9.961  18.374  0.00  0.00    +0.000 A 
ATOM     19  C   UNL     1       1.655   9.049  17.798  0.00  0.00    +0.000 A 
ENDBRANCH   9  13
TORSDOF 1
ENDMDL
MODEL 9
REMARK VINA RESULT:      -6.4      3.480      6.045
REMARK  Name = 
REMARK  2 active torsions:
REMARK  status: ('A' for Active; 'I' for Inactive)
REMARK    1  A    between atoms: C_1  and  N_2
REMARK    2  A    between atoms: C_9  and  C_10
REMARK                            x       y       z     vdW  Elec       q    Type
REMARK                         _______ _______ _______ _____ _____    ______ ____
ROOT
ATOM      1  C   UNL     1       1.003   1.571  19.130  0.00  0.00    +0.000 C 
ATOM      2  N   UNL     1       0.939   2.945  18.696  0.00  0.00    +0.000 N 
ATOM      3  C   UNL     1       2.001   3.652  18.187  0.00  0.00    +0.000 A 
ATOM      4  C   UNL     1       3.116   2.971  17.459  0.00  0.00    +0.000 A 
ATOM      5  C   UNL     1       4.132   3.712  17.007  0.00  0.00    +0.000 A 
ATOM      6  C   UNL     1       4.116   5.105  17.212  0.00  0.00    +0.000 A 
ATOM      7  N   UNL     1       4.989   6.025  16.873  0.00  0.00    +0.000 NA
ATOM      8  C   UNL     1       4.443   7.201  17.314  0.00  0.00    +0.000 A 
ATOM      9  C   UNL     1       3.214   7.013  17.934  0.00  0.00    +0.000 A 
ATOM     10  N   UNL     1       3.019   5.640  17.870  0.00  0.00    +0.000 N 
ATOM     11  N   UNL     1       1.956   4.943  18.381  0.00  0.00    +0.000 NA
ATOM     12  H   UNL     1       0.351   3.539  19.275  0.00  0.00    +0.000 HD
ENDROOT
BRANCH   9  13
ATOM     13  C   UNL     1       2.312   7.998  18.545  0.00  0.00    +0.000 A 
ATOM     14  C   UNL     1       1.800   9.085  17.820  0.00  0.00    +0.000 A 
ATOM     15  C   UNL     1       0.944  10.011  18.423  0.00  0.00    +0.000 A 
ATOM     16  C   UNL     1       0.607   9.864  19.760  0.00  0.00    +0.000 A 
ATOM     17  F   UNL     1      -0.213  10.752  20.339  0.00  0.00    +0.000 F 
ATOM     18  C   UNL     1       1.110   8.809  20.508  0.00  0.00    +0.000 A 
ATOM     19  C   UNL     1       1.960   7.879  19.901  0.00  0.00    +0.000 A 
ENDBRANCH   9  13
TORSDOF 1
ENDMDL
