MODEL 1
REMARK VINA RESULT:      -7.8      0.000      0.000
REMARK  Name = 
REMARK  8 active torsions:
REMARK  status: ('A' for Active; 'I' for Inactive)
REMARK    1  A    between atoms: C_1  and  O_2
REMARK    2  A    between atoms: O_2  and  C_3
REMARK    3  A    between atoms: C_3  and  C_5
REMARK    4  A    between atoms: C_8  and  C_9
REMARK    5  A    between atoms: C_9  and  O_10
REMARK    6  A    between atoms: O_10  and  C_11
REMARK    7  A    between atoms: C_17  and  C_18
REMARK    8  A    between atoms: N_19  and  N_20
REMARK                            x       y       z     vdW  Elec       q    Type
REMARK                         _______ _______ _______ _____ _____    ______ ____
ROOT
ATOM      1  C   UNL     1       4.181   6.097  17.542  0.00  0.00    +0.000 A 
ATOM      2  C   UNL     1       4.560   6.776  16.372  0.00  0.00    +0.000 A 
ATOM      3  C   UNL     1       5.238   6.120  15.341  0.00  0.00    +0.000 A 
ATOM      4  C   UNL     1       5.574   4.782  15.488  0.00  0.00    +0.000 A 
ATOM      5 BR   UNL     1       6.459   3.882  14.081  0.00  0.00    +0.000 Br
ATOM      6  C   UNL     1       5.258   4.100  16.657  0.00  0.00    +0.000 A 
ATOM      7  C   UNL     1       4.564   4.752  17.694  0.00  0.00    +0.000 A 
ENDROOT
BRANCH   7   8
ATOM      8  C   UNL     1       4.220   3.955  18.900  0.00  0.00    +0.000 C 
ATOM      9  N   UNL     1       3.056   3.386  18.985  0.00  0.00    +0.000 NA
BRANCH   9  10
ATOM     10  N   UNL     1       2.767   2.728  20.148  0.00  0.00    +0.000 N 
ATOM     11  C   UNL     1       1.604   2.975  20.820  0.00  0.00    +0.000 C 
ATOM     12  N   UNL     1       0.632   3.691  20.370  0.00  0.00    +0.000 NA
ATOM     13  N   UNL     1       1.501   2.406  22.041  0.00  0.00    +0.000 N 
ATOM     14  H   UNL     1       3.538   2.489  20.766  0.00  0.00    +0.000 HD
ATOM     15  H   UNL     1       0.968   3.999  19.443  0.00  0.00    +0.000 HD
ATOM     16  H   UNL     1       1.631   1.403  22.016  0.00  0.00    +0.000 HD
ATOM     17  H   UNL     1       0.571   2.612  22.401  0.00  0.00    +0.000 HD
ENDBRANCH   9  10
ENDBRANCH   7   8
BRANCH   1  18
ATOM     18  O   UNL     1       3.482   6.707  18.555  0.00  0.00    +0.000 OA
BRANCH  18  19
ATOM     19  C   UNL     1       2.554   7.719  18.126  0.00  0.00    +0.000 C 
BRANCH  19  23
ATOM     20  C   UNL     1       0.453   9.589  21.407  0.00  0.00    +0.000 A 
ATOM     21  C   UNL     1       0.466  10.180  20.139  0.00  0.00    +0.000 A 
ATOM     22  C   UNL     1       1.137   9.559  19.086  0.00  0.00    +0.000 A 
ATOM     23  C   UNL     1       1.818   8.345  19.286  0.00  0.00    +0.000 A 
ATOM     24  C   UNL     1       1.771   7.741  20.547  0.00  0.00    +0.000 A 
ATOM     25  C   UNL     1       1.101   8.362  21.602  0.00  0.00    +0.000 A 
BRANCH  20  26
ATOM     26  C   UNL     1      -0.256  10.300  22.502  0.00  0.00    +0.000 C 
ATOM     27  O   UNL     1      -0.088  10.056  23.686  0.00  0.00    +0.000 OA
BRANCH  26  29
ATOM     28  C   UNL     1      -0.911  12.540  22.525  0.00  0.00    +0.000 C 
ATOM     29  O   UNL     1      -1.102  11.230  21.992  0.00  0.00    +0.000 OA
ENDBRANCH  26  29
ENDBRANCH  20  26
ENDBRANCH  19  23
ENDBRANCH  18  19
ENDBRANCH   1  18
TORSDOF 7
ENDMDL
MODEL 2
REMARK VINA RESULT:      -7.5      0.732      1.218
REMARK  Name = 
REMARK  8 active torsions:
REMARK  status: ('A' for Active; 'I' for Inactive)
REMARK    1  A    between atoms: C_1  and  O_2
REMARK    2  A    between atoms: O_2  and  C_3
REMARK    3  A    between atoms: C_3  and  C_5
REMARK    4  A    between atoms: C_8  and  C_9
REMARK    5  A    between atoms: C_9  and  O_10
REMARK    6  A    between atoms: O_10  and  C_11
REMARK    7  A    between atoms: C_17  and  C_18
REMARK    8  A    between atoms: N_19  and  N_20
REMARK                            x       y       z     vdW  Elec       q    Type
REMARK                         _______ _______ _______ _____ _____    ______ ____
ROOT
ATOM      1  C   UNL     1       3.942   6.119  17.462  0.00  0.00    +0.000 A 
ATOM      2  C   UNL     1       4.618   6.859  16.479  0.00  0.00    +0.000 A 
ATOM      3  C   UNL     1       5.329   6.226  15.455  0.00  0.00    +0.000 A 
ATOM      4  C   UNL     1       5.396   4.840  15.427  0.00  0.00    +0.000 A 
ATOM      5 BR   UNL     1       6.325   3.980  14.024  0.00  0.00    +0.000 Br
ATOM      6  C   UNL     1       4.780   4.084  16.418  0.00  0.00    +0.000 A 
ATOM      7  C   UNL     1       4.053   4.716  17.444  0.00  0.00    +0.000 A 
ENDROOT
BRANCH   7   8
ATOM      8  C   UNL     1       3.383   3.849  18.448  0.00  0.00    +0.000 C 
ATOM      9  N   UNL     1       2.150   4.081  18.779  0.00  0.00    +0.000 NA
BRANCH   9  10
ATOM     10  N   UNL     1       1.609   3.298  19.761  0.00  0.00    +0.000 N 
ATOM     11  C   UNL     1       1.828   3.579  21.079  0.00  0.00    +0.000 C 
ATOM     12  N   UNL     1       2.398   4.648  21.518  0.00  0.00    +0.000 NA
ATOM     13  N   UNL     1       1.399   2.645  21.956  0.00  0.00    +0.000 N 
ATOM     14  H   UNL     1       1.513   2.302  19.579  0.00  0.00    +0.000 HD
ATOM     15  H   UNL     1       2.624   5.173  20.657  0.00  0.00    +0.000 HD
ATOM     16  H   UNL     1       0.416   2.434  21.849  0.00  0.00    +0.000 HD
ATOM     17  H   UNL     1       1.562   3.005  22.894  0.00  0.00    +0.000 HD
ENDBRANCH   9  10
ENDBRANCH   7   8
BRANCH   1  18
ATOM     18  O   UNL     1       3.206   6.714  18.458  0.00  0.00    +0.000 OA
BRANCH  18  19
ATOM     19  C   UNL     1       2.437   7.855  18.042  0.00  0.00    +0.000 C 
BRANCH  19  23
ATOM     20  C   UNL     1       0.473   9.727  21.407  0.00  0.00    +0.000 A 
ATOM     21  C   UNL     1       1.099   8.483  21.547  0.00  0.00    +0.000 A 
ATOM     22  C   UNL     1       1.740   7.897  20.456  0.00  0.00    +0.000 A 
ATOM     23  C   UNL     1       1.755   8.536  19.204  0.00  0.00    +0.000 A 
ATOM     24  C   UNL     1       1.160   9.796  19.079  0.00  0.00    +0.000 A 
ATOM     25  C   UNL     1       0.517  10.384  20.169  0.00  0.00    +0.000 A 
BRANCH  20  26
ATOM     26  C   UNL     1      -0.215  10.300  22.591  0.00  0.00    +0.000 C 
ATOM     27  O   UNL     1      -0.781   9.624  23.437  0.00  0.00    +0.000 OA
BRANCH  26  29
ATOM     28  C   UNL     1      -1.351  12.316  22.895  0.00  0.00    +0.000 C 
ATOM     29  O   UNL     1      -0.126  11.653  22.582  0.00  0.00    +0.000 OA
ENDBRANCH  26  29
ENDBRANCH  20  26
ENDBRANCH  19  23
ENDBRANCH  18  19
ENDBRANCH   1  18
TORSDOF 7
ENDMDL
MODEL 3
REMARK VINA RESULT:      -7.4      0.932      1.086
REMARK  Name = 
REMARK  8 active torsions:
REMARK  status: ('A' for Active; 'I' for Inactive)
REMARK    1  A    between atoms: C_1  and  O_2
REMARK    2  A    between atoms: O_2  and  C_3
REMARK    3  A    between atoms: C_3  and  C_5
REMARK    4  A    between atoms: C_8  and  C_9
REMARK    5  A    between atoms: C_9  and  O_10
REMARK    6  A    between atoms: O_10  and  C_11
REMARK    7  A    between atoms: C_17  and  C_18
REMARK    8  A    between atoms: N_19  and  N_20
REMARK                            x       y       z     vdW  Elec       q    Type
REMARK                         _______ _______ _______ _____ _____    ______ ____
ROOT
ATOM      1  C   UNL     1       3.964   6.235  17.394  0.00  0.00    +0.000 A 
ATOM      2  C   UNL     1       4.710   6.922  16.422  0.00  0.00    +0.000 A 
ATOM      3  C   UNL     1       5.417   6.236  15.430  0.00  0.00    +0.000 A 
ATOM      4  C   UNL     1       5.410   4.848  15.424  0.00  0.00    +0.000 A 
ATOM      5 BR   UNL     1       6.333   3.916  14.064  0.00  0.00    +0.000 Br
ATOM      6  C   UNL     1       4.722   4.142  16.405  0.00  0.00    +0.000 A 
ATOM      7  C   UNL     1       3.999   4.829  17.398  0.00  0.00    +0.000 A 
ENDROOT
BRANCH   7   8
ATOM      8  C   UNL     1       3.252   4.014  18.393  0.00  0.00    +0.000 C 
ATOM      9  N   UNL     1       3.854   3.592  19.462  0.00  0.00    +0.000 NA
BRANCH   9  10
ATOM     10  N   UNL     1       3.140   2.786  20.304  0.00  0.00    +0.000 N 
ATOM     11  C   UNL     1       2.279   3.320  21.220  0.00  0.00    +0.000 C 
ATOM     12  N   UNL     1       1.940   4.562  21.273  0.00  0.00    +0.000 NA
ATOM     13  N   UNL     1       1.763   2.450  22.115  0.00  0.00    +0.000 N 
ATOM     14  H   UNL     1       3.576   1.926  20.625  0.00  0.00    +0.000 HD
ATOM     15  H   UNL     1       2.470   4.991  20.497  0.00  0.00    +0.000 HD
ATOM     16  H   UNL     1       1.293   1.670  21.674  0.00  0.00    +0.000 HD
ATOM     17  H   UNL     1       1.095   2.958  22.690  0.00  0.00    +0.000 HD
ENDBRANCH   9  10
ENDBRANCH   7   8
BRANCH   1  18
ATOM     18  O   UNL     1       3.231   6.885  18.356  0.00  0.00    +0.000 OA
BRANCH  18  19
ATOM     19  C   UNL     1       2.228   7.782  17.851  0.00  0.00    +0.000 C 
BRANCH  19  23
ATOM     20  C   UNL     1       0.745  10.502  20.865  0.00  0.00    +0.000 A 
ATOM     21  C   UNL     1       0.901  10.922  19.540  0.00  0.00    +0.000 A 
ATOM     22  C   UNL     1       1.368  10.030  18.574  0.00  0.00    +0.000 A 
ATOM     23  C   UNL     1       1.701   8.708  18.920  0.00  0.00    +0.000 A 
ATOM     24  C   UNL     1       1.509   8.283  20.239  0.00  0.00    +0.000 A 
ATOM     25  C   UNL     1       1.042   9.175  21.206  0.00  0.00    +0.000 A 
BRANCH  20  26
ATOM     26  C   UNL     1       0.266  11.494  21.860  0.00  0.00    +0.000 C 
ATOM     27  O   UNL     1       0.383  12.702  21.721  0.00  0.00    +0.000 OA
BRANCH  26  29
ATOM     28  C   UNL     1      -1.633  11.287  23.201  0.00  0.00    +0.000 C 
ATOM     29  O   UNL     1      -0.299  10.866  22.921  0.00  0.00    +0.000 OA
ENDBRANCH  26  29
ENDBRANCH  20  26
ENDBRANCH  19  23
ENDBRANCH  18  19
ENDBRANCH   1  18
TORSDOF 7
ENDMDL
MODEL 4
REMARK VINA RESULT:      -7.3      0.764      1.409
REMARK  Name = 
REMARK  8 active torsions:
REMARK  status: ('A' for Active; 'I' for Inactive)
REMARK    1  A    between atoms: C_1  and  O_2
REMARK    2  A    between atoms: O_2  and  C_3
REMARK    3  A    between atoms: C_3  and  C_5
REMARK    4  A    between atoms: C_8  and  C_9
REMARK    5  A    between atoms: C_9  and  O_10
REMARK    6  A    between atoms: O_10  and  C_11
REMARK    7  A    between atoms: C_17  and  C_18
REMARK    8  A    between atoms: N_19  and  N_20
REMARK                            x       y       z     vdW  Elec       q    Type
REMARK                         _______ _______ _______ _____ _____    ______ ____
ROOT
ATOM      1  C   UNL     1       4.330   6.081  17.737  0.00  0.00    +0.000 A 
ATOM      2  C   UNL     1       4.710   6.794  16.588  0.00  0.00    +0.000 A 
ATOM      3  C   UNL     1       5.271   6.144  15.484  0.00  0.00    +0.000 A 
ATOM      4  C   UNL     1       5.487   4.774  15.536  0.00  0.00    +0.000 A 
ATOM      5 BR   UNL     1       6.210   3.887  14.032  0.00  0.00    +0.000 Br
ATOM      6  C   UNL     1       5.168   4.053  16.680  0.00  0.00    +0.000 A 
ATOM      7  C   UNL     1       4.591   4.700  17.790  0.00  0.00    +0.000 A 
ENDROOT
BRANCH   7   8
ATOM      8  C   UNL     1       4.236   3.864  18.966  0.00  0.00    +0.000 C 
ATOM      9  N   UNL     1       3.067   3.304  19.028  0.00  0.00    +0.000 NA
BRANCH   9  10
ATOM     10  N   UNL     1       2.767   2.608  20.166  0.00  0.00    +0.000 N 
ATOM     11  C   UNL     1       1.657   2.914  20.900  0.00  0.00    +0.000 C 
ATOM     12  N   UNL     1       0.734   3.734  20.532  0.00  0.00    +0.000 NA
ATOM     13  N   UNL     1       1.554   2.289  22.093  0.00  0.00    +0.000 N 
ATOM     14  H   UNL     1       3.538   2.270  20.736  0.00  0.00    +0.000 HD
ATOM     15  H   UNL     1       1.059   4.064  19.608  0.00  0.00    +0.000 HD
ATOM     16  H   UNL     1       1.594   1.281  22.009  0.00  0.00    +0.000 HD
ATOM     17  H   UNL     1       0.659   2.551  22.503  0.00  0.00    +0.000 HD
ENDBRANCH   9  10
ENDBRANCH   7   8
BRANCH   1  18
ATOM     18  O   UNL     1       3.743   6.688  18.821  0.00  0.00    +0.000 OA
BRANCH  18  19
ATOM     19  C   UNL     1       2.308   6.753  18.775  0.00  0.00    +0.000 C 
BRANCH  19  23
ATOM     20  C   UNL     1       0.754  10.463  20.358  0.00  0.00    +0.000 A 
ATOM     21  C   UNL     1       0.912   9.345  21.184  0.00  0.00    +0.000 A 
ATOM     22  C   UNL     1       1.427   8.158  20.663  0.00  0.00    +0.000 A 
ATOM     23  C   UNL     1       1.779   8.063  19.305  0.00  0.00    +0.000 A 
ATOM     24  C   UNL     1       1.654   9.195  18.492  0.00  0.00    +0.000 A 
ATOM     25  C   UNL     1       1.138  10.384  19.012  0.00  0.00    +0.000 A 
BRANCH  20  26
ATOM     26  C   UNL     1       0.182  11.696  20.954  0.00  0.00    +0.000 C 
ATOM     27  O   UNL     1       0.545  12.823  20.654  0.00  0.00    +0.000 OA
BRANCH  26  29
ATOM     28  C   UNL     1      -1.052  12.429  22.795  0.00  0.00    +0.000 C 
ATOM     29  O   UNL     1      -0.774  11.383  21.864  0.00  0.00    +0.000 OA
ENDBRANCH  26  29
ENDBRANCH  20  26
ENDBRANCH  19  23
ENDBRANCH  18  19
ENDBRANCH   1  18
TORSDOF 7
ENDMDL
MODEL 5
REMARK VINA RESULT:      -7.3      5.010      8.862
REMARK  Name = 
REMARK  8 active torsions:
REMARK  status: ('A' for Active; 'I' for Inactive)
REMARK    1  A    between atoms: C_1  and  O_2
REMARK    2  A    between atoms: O_2  and  C_3
REMARK    3  A    between atoms: C_3  and  C_5
REMARK    4  A    between atoms: C_8  and  C_9
REMARK    5  A    between atoms: C_9  and  O_10
REMARK    6  A    between atoms: O_10  and  C_11
REMARK    7  A    between atoms: C_17  and  C_18
REMARK    8  A    between atoms: N_19  and  N_20
REMARK                            x       y       z     vdW  Elec       q    Type
REMARK                         _______ _______ _______ _____ _____    ______ ____
ROOT
ATOM      1  C   UNL     1       1.166   9.045  19.955  0.00  0.00    +0.000 A 
ATOM      2  C   UNL     1       1.491   9.002  21.321  0.00  0.00    +0.000 A 
ATOM      3  C   UNL     1       0.714   9.670  22.272  0.00  0.00    +0.000 A 
ATOM      4  C   UNL     1      -0.380  10.417  21.858  0.00  0.00    +0.000 A 
ATOM      5 BR   UNL     1      -1.453  11.291  23.144  0.00  0.00    +0.000 Br
ATOM      6  C   UNL     1      -0.692  10.519  20.507  0.00  0.00    +0.000 A 
ATOM      7  C   UNL     1       0.078   9.839  19.546  0.00  0.00    +0.000 A 
ENDROOT
BRANCH   7   8
ATOM      8  C   UNL     1      -0.335   9.956  18.123  0.00  0.00    +0.000 C 
ATOM      9  N   UNL     1      -1.492  10.465  17.829  0.00  0.00    +0.000 NA
BRANCH   9  10
ATOM     10  N   UNL     1      -1.850  10.479  16.509  0.00  0.00    +0.000 N 
ATOM     11  C   UNL     1      -3.033  11.033  16.112  0.00  0.00    +0.000 C 
ATOM     12  N   UNL     1      -3.819  11.713  16.874  0.00  0.00    +0.000 NA
ATOM     13  N   UNL     1      -3.367  10.835  14.818  0.00  0.00    +0.000 N 
ATOM     14  H   UNL     1      -1.566   9.694  15.929  0.00  0.00    +0.000 HD
ATOM     15  H   UNL     1      -3.337  11.706  17.787  0.00  0.00    +0.000 HD
ATOM     16  H   UNL     1      -2.652  11.155  14.178  0.00  0.00    +0.000 HD
ATOM     17  H   UNL     1      -4.227  11.350  14.638  0.00  0.00    +0.000 HD
ENDBRANCH   9  10
ENDBRANCH   7   8
BRANCH   1  18
ATOM     18  O   UNL     1       1.889   8.369  19.003  0.00  0.00    +0.000 OA
BRANCH  18  19
ATOM     19  C   UNL     1       2.235   7.018  19.352  0.00  0.00    +0.000 C 
BRANCH  19  23
ATOM     20  C   UNL     1       5.081   5.223  16.639  0.00  0.00    +0.000 A 
ATOM     21  C   UNL     1       4.276   4.425  17.460  0.00  0.00    +0.000 A 
ATOM     22  C   UNL     1       3.353   5.017  18.322  0.00  0.00    +0.000 A 
ATOM     23  C   UNL     1       3.228   6.416  18.388  0.00  0.00    +0.000 A 
ATOM     24  C   UNL     1       4.009   7.207  17.539  0.00  0.00    +0.000 A 
ATOM     25  C   UNL     1       4.934   6.616  16.677  0.00  0.00    +0.000 A 
BRANCH  20  26
ATOM     26  C   UNL     1       6.064   4.546  15.755  0.00  0.00    +0.000 C 
ATOM     27  O   UNL     1       5.751   3.767  14.869  0.00  0.00    +0.000 OA
BRANCH  26  29
ATOM     28  C   UNL     1       7.721   4.523  17.398  0.00  0.00    +0.000 C 
ATOM     29  O   UNL     1       7.327   4.914  16.083  0.00  0.00    +0.000 OA
ENDBRANCH  26  29
ENDBRANCH  20  26
ENDBRANCH  19  23
ENDBRANCH  18  19
ENDBRANCH   1  18
TORSDOF 7
ENDMDL
MODEL 6
REMARK VINA RESULT:      -7.3      1.432      2.003
REMARK  Name = 
REMARK  8 active torsions:
REMARK  status: ('A' for Active; 'I' for Inactive)
REMARK    1  A    between atoms: C_1  and  O_2
REMARK    2  A    between atoms: O_2  and  C_3
REMARK    3  A    between atoms: C_3  and  C_5
REMARK    4  A    between atoms: C_8  and  C_9
REMARK    5  A    between atoms: C_9  and  O_10
REMARK    6  A    between atoms: O_10  and  C_11
REMARK    7  A    between atoms: C_17  and  C_18
REMARK    8  A    between atoms: N_19  and  N_20
REMARK                            x       y       z     vdW  Elec       q    Type
REMARK                         _______ _______ _______ _____ _____    ______ ____
ROOT
ATOM      1  C   UNL     1       4.399   6.005  17.622  0.00  0.00    +0.000 A 
ATOM      2  C   UNL     1       4.768   6.724  16.474  0.00  0.00    +0.000 A 
ATOM      3  C   UNL     1       5.306   6.080  15.356  0.00  0.00    +0.000 A 
ATOM      4  C   UNL     1       5.512   4.708  15.393  0.00  0.00    +0.000 A 
ATOM      5 BR   UNL     1       6.205   3.828  13.871  0.00  0.00    +0.000 Br
ATOM      6  C   UNL     1       5.204   3.979  16.536  0.00  0.00    +0.000 A 
ATOM      7  C   UNL     1       4.650   4.621  17.659  0.00  0.00    +0.000 A 
ENDROOT
BRANCH   7   8
ATOM      8  C   UNL     1       4.306   3.778  18.834  0.00  0.00    +0.000 C 
ATOM      9  N   UNL     1       3.087   3.359  18.990  0.00  0.00    +0.000 NA
BRANCH   9  10
ATOM     10  N   UNL     1       2.811   2.650  20.126  0.00  0.00    +0.000 N 
ATOM     11  C   UNL     1       1.708   2.936  20.878  0.00  0.00    +0.000 C 
ATOM     12  N   UNL     1       0.770   3.748  20.529  0.00  0.00    +0.000 NA
ATOM     13  N   UNL     1       1.629   2.299  22.067  0.00  0.00    +0.000 N 
ATOM     14  H   UNL     1       3.594   2.317  20.683  0.00  0.00    +0.000 HD
ATOM     15  H   UNL     1       1.078   4.089  19.604  0.00  0.00    +0.000 HD
ATOM     16  H   UNL     1       1.681   1.293  21.974  0.00  0.00    +0.000 HD
ATOM     17  H   UNL     1       0.737   2.547  22.491  0.00  0.00    +0.000 HD
ENDBRANCH   9  10
ENDBRANCH   7   8
BRANCH   1  18
ATOM     18  O   UNL     1       3.834   6.607  18.720  0.00  0.00    +0.000 OA
BRANCH  18  19
ATOM     19  C   UNL     1       2.402   6.725  18.675  0.00  0.00    +0.000 C 
BRANCH  19  23
ATOM     20  C   UNL     1       1.022  10.757  19.395  0.00  0.00    +0.000 A 
ATOM     21  C   UNL     1       0.899   9.774  20.383  0.00  0.00    +0.000 A 
ATOM     22  C   UNL     1       1.360   8.480  20.142  0.00  0.00    +0.000 A 
ATOM     23  C   UNL     1       1.939   8.143  18.905  0.00  0.00    +0.000 A 
ATOM     24  C   UNL     1       2.093   9.139  17.935  0.00  0.00    +0.000 A 
ATOM     25  C   UNL     1       1.631  10.434  18.175  0.00  0.00    +0.000 A 
BRANCH  20  26
ATOM     26  C   UNL     1       0.495  12.114  19.691  0.00  0.00    +0.000 C 
ATOM     27  O   UNL     1      -0.685  12.352  19.891  0.00  0.00    +0.000 OA
BRANCH  26  29
ATOM     28  C   UNL     1       1.096  14.339  19.329  0.00  0.00    +0.000 C 
ATOM     29  O   UNL     1       1.503  13.022  19.696  0.00  0.00    +0.000 OA
ENDBRANCH  26  29
ENDBRANCH  20  26
ENDBRANCH  19  23
ENDBRANCH  18  19
ENDBRANCH   1  18
TORSDOF 7
ENDMDL
MODEL 7
REMARK VINA RESULT:      -7.3      5.015      8.752
REMARK  Name = 
REMARK  8 active torsions:
REMARK  status: ('A' for Active; 'I' for Inactive)
REMARK    1  A    between atoms: C_1  and  O_2
REMARK    2  A    between atoms: O_2  and  C_3
REMARK    3  A    between atoms: C_3  and  C_5
REMARK    4  A    between atoms: C_8  and  C_9
REMARK    5  A    between atoms: C_9  and  O_10
REMARK    6  A    between atoms: O_10  and  C_11
REMARK    7  A    between atoms: C_17  and  C_18
REMARK    8  A    between atoms: N_19  and  N_20
REMARK                            x       y       z     vdW  Elec       q    Type
REMARK                         _______ _______ _______ _____ _____    ______ ____
ROOT
ATOM      1  C   UNL     1       1.100   9.032  20.012  0.00  0.00    +0.000 A 
ATOM      2  C   UNL     1       1.418   8.941  21.377  0.00  0.00    +0.000 A 
ATOM      3  C   UNL     1       0.663   9.610  22.344  0.00  0.00    +0.000 A 
ATOM      4  C   UNL     1      -0.402  10.406  21.947  0.00  0.00    +0.000 A 
ATOM      5 BR   UNL     1      -1.448  11.283  23.254  0.00  0.00    +0.000 Br
ATOM      6  C   UNL     1      -0.707  10.556  20.600  0.00  0.00    +0.000 A 
ATOM      7  C   UNL     1       0.043   9.875  19.622  0.00  0.00    +0.000 A 
ENDROOT
BRANCH   7   8
ATOM      8  C   UNL     1      -0.361  10.045  18.202  0.00  0.00    +0.000 C 
ATOM      9  N   UNL     1      -1.309  10.878  17.898  0.00  0.00    +0.000 NA
BRANCH   9  10
ATOM     10  N   UNL     1      -1.689  10.938  16.586  0.00  0.00    +0.000 N 
ATOM     11  C   UNL     1      -2.889  10.428  16.182  0.00  0.00    +0.000 C 
ATOM     12  N   UNL     1      -3.815  10.008  16.974  0.00  0.00    +0.000 NA
ATOM     13  N   UNL     1      -3.086  10.380  14.846  0.00  0.00    +0.000 N 
ATOM     14  H   UNL     1      -0.966  10.860  15.875  0.00  0.00    +0.000 HD
ATOM     15  H   UNL     1      -3.411  10.152  17.914  0.00  0.00    +0.000 HD
ATOM     16  H   UNL     1      -2.974  11.283  14.404  0.00  0.00    +0.000 HD
ATOM     17  H   UNL     1      -4.034  10.047  14.684  0.00  0.00    +0.000 HD
ENDBRANCH   9  10
ENDBRANCH   7   8
BRANCH   1  18
ATOM     18  O   UNL     1       1.802   8.356  19.044  0.00  0.00    +0.000 OA
BRANCH  18  19
ATOM     19  C   UNL     1       2.161   7.007  19.387  0.00  0.00    +0.000 C 
BRANCH  19  23
ATOM     20  C   UNL     1       5.813   5.697  17.482  0.00  0.00    +0.000 A 
ATOM     21  C   UNL     1       5.379   5.109  18.675  0.00  0.00    +0.000 A 
ATOM     22  C   UNL     1       4.193   5.532  19.272  0.00  0.00    +0.000 A 
ATOM     23  C   UNL     1       3.425   6.560  18.695  0.00  0.00    +0.000 A 
ATOM     24  C   UNL     1       3.844   7.119  17.483  0.00  0.00    +0.000 A 
ATOM     25  C   UNL     1       5.032   6.697  16.885  0.00  0.00    +0.000 A 
BRANCH  20  26
ATOM     26  C   UNL     1       7.094   5.228  16.897  0.00  0.00    +0.000 C 
ATOM     27  O   UNL     1       7.863   4.473  17.471  0.00  0.00    +0.000 OA
BRANCH  26  29
ATOM     28  C   UNL     1       7.061   4.835  14.596  0.00  0.00    +0.000 C 
ATOM     29  O   UNL     1       7.274   5.760  15.662  0.00  0.00    +0.000 OA
ENDBRANCH  26  29
ENDBRANCH  20  26
ENDBRANCH  19  23
ENDBRANCH  18  19
ENDBRANCH   1  18
TORSDOF 7
ENDMDL
MODEL 8
REMARK VINA RESULT:      -7.3      1.162      1.324
REMARK  Name = 
REMARK  8 active torsions:
REMARK  status: ('A' for Active; 'I' for Inactive)
REMARK    1  A    between atoms: C_1  and  O_2
REMARK    2  A    between atoms: O_2  and  C_3
REMARK    3  A    between atoms: C_3  and  C_5
REMARK    4  A    between atoms: C_8  and  C_9
REMARK    5  A    between atoms: C_9  and  O_10
REMARK    6  A    between atoms: O_10  and  C_11
REMARK    7  A    between atoms: C_17  and  C_18
REMARK    8  A    between atoms: N_19  and  N_20
REMARK                            x       y       z     vdW  Elec       q    Type
REMARK                         _______ _______ _______ _____ _____    ______ ____
ROOT
ATOM      1  C   UNL     1       4.353   6.027  17.528  0.00  0.00    +0.000 A 
ATOM      2  C   UNL     1       4.748   6.743  16.386  0.00  0.00    +0.000 A 
ATOM      3  C   UNL     1       5.324   6.098  15.289  0.00  0.00    +0.000 A 
ATOM      4  C   UNL     1       5.540   4.727  15.339  0.00  0.00    +0.000 A 
ATOM      5 BR   UNL     1       6.284   3.845  13.843  0.00  0.00    +0.000 Br
ATOM      6  C   UNL     1       5.206   4.003  16.477  0.00  0.00    +0.000 A 
ATOM      7  C   UNL     1       4.614   4.646  17.580  0.00  0.00    +0.000 A 
ENDROOT
BRANCH   7   8
ATOM      8  C   UNL     1       4.243   3.806  18.749  0.00  0.00    +0.000 C 
ATOM      9  N   UNL     1       3.053   3.293  18.821  0.00  0.00    +0.000 NA
BRANCH   9  10
ATOM     10  N   UNL     1       2.742   2.592  19.953  0.00  0.00    +0.000 N 
ATOM     11  C   UNL     1       1.830   3.075  20.846  0.00  0.00    +0.000 C 
ATOM     12  N   UNL     1       1.082   4.105  20.649  0.00  0.00    +0.000 NA
ATOM     13  N   UNL     1       1.732   2.394  22.009  0.00  0.00    +0.000 N 
ATOM     14  H   UNL     1       3.479   2.048  20.394  0.00  0.00    +0.000 HD
ATOM     15  H   UNL     1       1.358   4.428  19.708  0.00  0.00    +0.000 HD
ATOM     16  H   UNL     1       1.531   1.413  21.869  0.00  0.00    +0.000 HD
ATOM     17  H   UNL     1       0.979   2.814  22.550  0.00  0.00    +0.000 HD
ENDBRANCH   9  10
ENDBRANCH   7   8
BRANCH   1  18
ATOM     18  O   UNL     1       3.751   6.631  18.606  0.00  0.00    +0.000 OA
BRANCH  18  19
ATOM     19  C   UNL     1       2.320   6.741  18.516  0.00  0.00    +0.000 C 
BRANCH  19  23
ATOM     20  C   UNL     1       0.908  10.527  20.051  0.00  0.00    +0.000 A 
ATOM     21  C   UNL     1       1.192  10.370  18.690  0.00  0.00    +0.000 A 
ATOM     22  C   UNL     1       1.634   9.139  18.206  0.00  0.00    +0.000 A 
ATOM     23  C   UNL     1       1.815   8.048  19.076  0.00  0.00    +0.000 A 
ATOM     24  C   UNL     1       1.495   8.201  20.429  0.00  0.00    +0.000 A 
ATOM     25  C   UNL     1       1.053   9.433  20.915  0.00  0.00    +0.000 A 
BRANCH  20  26
ATOM     26  C   UNL     1       0.461  11.863  20.522  0.00  0.00    +0.000 C 
ATOM     27  O   UNL     1       0.874  12.393  21.541  0.00  0.00    +0.000 OA
BRANCH  26  29
ATOM     28  C   UNL     1      -0.870  13.707  20.001  0.00  0.00    +0.000 C 
ATOM     29  O   UNL     1      -0.457  12.382  19.669  0.00  0.00    +0.000 OA
ENDBRANCH  26  29
ENDBRANCH  20  26
ENDBRANCH  19  23
ENDBRANCH  18  19
ENDBRANCH   1  18
TORSDOF 7
ENDMDL
MODEL 9
REMARK VINA RESULT:      -7.2      5.104      8.827
REMARK  Name = 
REMARK  8 active torsions:
REMARK  status: ('A' for Active; 'I' for Inactive)
REMARK    1  A    between atoms: C_1  and  O_2
REMARK    2  A    between atoms: O_2  and  C_3
REMARK    3  A    between atoms: C_3  and  C_5
REMARK    4  A    between atoms: C_8  and  C_9
REMARK    5  A    between atoms: C_9  and  O_10
REMARK    6  A    between atoms: O_10  and  C_11
REMARK    7  A    between atoms: C_17  and  C_18
REMARK    8  A    between atoms: N_19  and  N_20
REMARK                            x       y       z     vdW  Elec       q    Type
REMARK                         _______ _______ _______ _____ _____    ______ ____
ROOT
ATOM      1  C   UNL     1       0.005  10.004  20.701  0.00  0.00    +0.000 A 
ATOM      2  C   UNL     1       0.052  10.153  22.097  0.00  0.00    +0.000 A 
ATOM      3  C   UNL     1      -0.741  11.100  22.753  0.00  0.00    +0.000 A 
ATOM      4  C   UNL     1      -1.566  11.932  22.008  0.00  0.00    +0.000 A 
ATOM      5 BR   UNL     1      -2.666  13.187  22.893  0.00  0.00    +0.000 Br
ATOM      6  C   UNL     1      -1.592  11.841  20.622  0.00  0.00    +0.000 A 
ATOM      7  C   UNL     1      -0.806  10.881  19.958  0.00  0.00    +0.000 A 
ENDROOT
BRANCH   7   8
ATOM      8  C   UNL     1      -0.912  10.808  18.477  0.00  0.00    +0.000 C 
ATOM      9  N   UNL     1      -1.911  10.184  17.933  0.00  0.00    +0.000 NA
BRANCH   9  10
ATOM     10  N   UNL     1      -1.918  10.085  16.569  0.00  0.00    +0.000 N 
ATOM     11  C   UNL     1      -2.906  10.671  15.831  0.00  0.00    +0.000 C 
ATOM     12  N   UNL     1      -3.796  11.476  16.301  0.00  0.00    +0.000 NA
ATOM     13  N   UNL     1      -2.915  10.362  14.516  0.00  0.00    +0.000 N 
ATOM     14  H   UNL     1      -1.567   9.227  16.152  0.00  0.00    +0.000 HD
ATOM     15  H   UNL     1      -3.565  11.532  17.306  0.00  0.00    +0.000 HD
ATOM     16  H   UNL     1      -2.035  10.566  14.062  0.00  0.00    +0.000 HD
ATOM     17  H   UNL     1      -3.651  10.911  14.075  0.00  0.00    +0.000 HD
ENDBRANCH   9  10
ENDBRANCH   7   8
BRANCH   1  18
ATOM     18  O   UNL     1       0.746   9.058  20.035  0.00  0.00    +0.000 OA
BRANCH  18  19
ATOM     19  C   UNL     1       1.385   8.085  20.879  0.00  0.00    +0.000 C 
BRANCH  19  23
ATOM     20  C   UNL     1       3.017   4.836  18.544  0.00  0.00    +0.000 A 
ATOM     21  C   UNL     1       3.115   6.157  18.094  0.00  0.00    +0.000 A 
ATOM     22  C   UNL     1       2.596   7.197  18.864  0.00  0.00    +0.000 A 
ATOM     23  C   UNL     1       1.957   6.934  20.090  0.00  0.00    +0.000 A 
ATOM     24  C   UNL     1       1.895   5.614  20.551  0.00  0.00    +0.000 A 
ATOM     25  C   UNL     1       2.413   4.572  19.781  0.00  0.00    +0.000 A 
BRANCH  20  26
ATOM     26  C   UNL     1       3.566   3.761  17.678  0.00  0.00    +0.000 C 
ATOM     27  O   UNL     1       3.553   2.578  17.979  0.00  0.00    +0.000 OA
BRANCH  26  29
ATOM     28  C   UNL     1       5.431   3.917  16.284  0.00  0.00    +0.000 C 
ATOM     29  O   UNL     1       4.076   4.287  16.536  0.00  0.00    +0.000 OA
ENDBRANCH  26  29
ENDBRANCH  20  26
ENDBRANCH  19  23
ENDBRANCH  18  19
ENDBRANCH   1  18
TORSDOF 7
ENDMDL
