MODEL 1
REMARK VINA RESULT:      -8.2      0.000      0.000
REMARK  Name = 
REMARK  8 active torsions:
REMARK  status: ('A' for Active; 'I' for Inactive)
REMARK    1  A    between atoms: C_4  and  C_5
REMARK    2  A    between atoms: C_5  and  C_6
REMARK    3  A    between atoms: C_6  and  C_7
REMARK    4  A    between atoms: C_7  and  C_8
REMARK    5  A    between atoms: C_11  and  C_12
REMARK    6  A    between atoms: C_12  and  C_13
REMARK    7  A    between atoms: C_13  and  C_14
REMARK    8  A    between atoms: C_14  and  C_15
REMARK                            x       y       z     vdW  Elec       q    Type
REMARK                         _______ _______ _______ _____ _____    ______ ____
ROOT
ATOM      1  C   UNL     1       7.821   6.308  17.749  0.00  0.00    +0.000 C 
ATOM      2  C   UNL     1       7.486   5.658  19.082  0.00  0.00    +0.000 C 
ATOM      3  C   UNL     1       5.988   5.430  18.993  0.00  0.00    +0.000 C 
ATOM      4  C   UNL     1       5.743   5.170  17.505  0.00  0.00    +0.000 C 
ATOM      5  N   UNL     1       7.000   5.520  16.822  0.00  0.00    +0.000 NA
ATOM      6  H   UNL     1       6.847   6.015  15.947  0.00  0.00    +0.000 HD
ENDROOT
BRANCH   1   7
ATOM      7  C   UNL     1       7.480   7.807  17.643  0.00  0.00    +0.000 C 
BRANCH   7   8
ATOM      8  C   UNL     1       8.383   8.685  18.503  0.00  0.00    +0.000 C 
BRANCH   8   9
ATOM      9  C   UNL     1       8.478  10.104  17.939  0.00  0.00    +0.000 C 
BRANCH   9  13
ATOM     10  C   UNL     1      11.642  12.347  19.812  0.00  0.00    +0.000 A 
ATOM     11  C   UNL     1      10.640  11.773  20.589  0.00  0.00    +0.000 A 
ATOM     12  C   UNL     1       9.625  11.030  19.985  0.00  0.00    +0.000 A 
ATOM     13  C   UNL     1       9.608  10.855  18.595  0.00  0.00    +0.000 A 
ATOM     14  C   UNL     1      10.618  11.442  17.819  0.00  0.00    +0.000 A 
ATOM     15  C   UNL     1      11.631  12.183  18.428  0.00  0.00    +0.000 A 
ENDBRANCH   9  13
ENDBRANCH   8   9
ENDBRANCH   7   8
ENDBRANCH   1   7
BRANCH   4  16
ATOM     16  C   UNL     1       4.516   5.925  16.969  0.00  0.00    +0.000 C 
BRANCH  16  17
ATOM     17  C   UNL     1       3.774   6.756  18.020  0.00  0.00    +0.000 C 
BRANCH  17  18
ATOM     18  C   UNL     1       2.278   6.446  18.068  0.00  0.00    +0.000 C 
BRANCH  18  19
ATOM     19  C   UNL     1       2.019   5.214  18.895  0.00  0.00    +0.000 A 
ATOM     20  C   UNL     1       1.462   4.075  18.299  0.00  0.00    +0.000 A 
ATOM     21  C   UNL     1       1.172   2.951  19.071  0.00  0.00    +0.000 A 
ATOM     22  C   UNL     1       1.434   2.959  20.440  0.00  0.00    +0.000 A 
ATOM     23  C   UNL     1       1.987   4.091  21.037  0.00  0.00    +0.000 A 
ATOM     24  C   UNL     1       2.280   5.215  20.270  0.00  0.00    +0.000 A 
ENDBRANCH  18  19
ENDBRANCH  17  18
ENDBRANCH  16  17
ENDBRANCH   4  16
TORSDOF 8
ENDMDL
MODEL 2
REMARK VINA RESULT:      -8.0      3.259      5.637
REMARK  Name = 
REMARK  8 active torsions:
REMARK  status: ('A' for Active; 'I' for Inactive)
REMARK    1  A    between atoms: C_4  and  C_5
REMARK    2  A    between atoms: C_5  and  C_6
REMARK    3  A    between atoms: C_6  and  C_7
REMARK    4  A    between atoms: C_7  and  C_8
REMARK    5  A    between atoms: C_11  and  C_12
REMARK    6  A    between atoms: C_12  and  C_13
REMARK    7  A    between atoms: C_13  and  C_14
REMARK    8  A    between atoms: C_14  and  C_15
REMARK                            x       y       z     vdW  Elec       q    Type
REMARK                         _______ _______ _______ _____ _____    ______ ____
ROOT
ATOM      1  C   UNL     1       2.915   2.417  17.845  0.00  0.00    +0.000 C 
ATOM      2  C   UNL     1       3.748   1.842  18.980  0.00  0.00    +0.000 C 
ATOM      3  C   UNL     1       3.167   2.508  20.213  0.00  0.00    +0.000 C 
ATOM      4  C   UNL     1       1.689   2.697  19.867  0.00  0.00    +0.000 C 
ATOM      5  N   UNL     1       1.569   2.400  18.429  0.00  0.00    +0.000 NA
ATOM      6  H   UNL     1       0.945   3.041  17.946  0.00  0.00    +0.000 HD
ENDROOT
BRANCH   1   7
ATOM      7  C   UNL     1       3.301   3.842  17.402  0.00  0.00    +0.000 C 
BRANCH   7   8
ATOM      8  C   UNL     1       4.597   3.884  16.600  0.00  0.00    +0.000 C 
BRANCH   8   9
ATOM      9  C   UNL     1       4.971   5.319  16.224  0.00  0.00    +0.000 C 
BRANCH   9  13
ATOM     10  C   UNL     1       8.160   6.765  18.731  0.00  0.00    +0.000 A 
ATOM     11  C   UNL     1       7.597   7.599  17.768  0.00  0.00    +0.000 A 
ATOM     12  C   UNL     1       6.552   7.137  16.968  0.00  0.00    +0.000 A 
ATOM     13  C   UNL     1       6.059   5.835  17.129  0.00  0.00    +0.000 A 
ATOM     14  C   UNL     1       6.635   5.001  18.098  0.00  0.00    +0.000 A 
ATOM     15  C   UNL     1       7.681   5.467  18.895  0.00  0.00    +0.000 A 
ENDBRANCH   9  13
ENDBRANCH   8   9
ENDBRANCH   7   8
ENDBRANCH   1   7
BRANCH   4  16
ATOM     16  C   UNL     1       1.164   4.089  20.258  0.00  0.00    +0.000 C 
BRANCH  16  17
ATOM     17  C   UNL     1       2.259   5.119  20.551  0.00  0.00    +0.000 C 
BRANCH  17  18
ATOM     18  C   UNL     1       1.695   6.465  21.007  0.00  0.00    +0.000 C 
BRANCH  18  19
ATOM     19  C   UNL     1       1.770   7.476  19.894  0.00  0.00    +0.000 A 
ATOM     20  C   UNL     1       2.514   7.197  18.741  0.00  0.00    +0.000 A 
ATOM     21  C   UNL     1       2.629   8.151  17.732  0.00  0.00    +0.000 A 
ATOM     22  C   UNL     1       2.003   9.388  17.869  0.00  0.00    +0.000 A 
ATOM     23  C   UNL     1       1.262   9.672  19.016  0.00  0.00    +0.000 A 
ATOM     24  C   UNL     1       1.143   8.722  20.025  0.00  0.00    +0.000 A 
ENDBRANCH  18  19
ENDBRANCH  17  18
ENDBRANCH  16  17
ENDBRANCH   4  16
TORSDOF 8
ENDMDL
MODEL 3
REMARK VINA RESULT:      -7.9      3.683      5.621
REMARK  Name = 
REMARK  8 active torsions:
REMARK  status: ('A' for Active; 'I' for Inactive)
REMARK    1  A    between atoms: C_4  and  C_5
REMARK    2  A    between atoms: C_5  and  C_6
REMARK    3  A    between atoms: C_6  and  C_7
REMARK    4  A    between atoms: C_7  and  C_8
REMARK    5  A    between atoms: C_11  and  C_12
REMARK    6  A    between atoms: C_12  and  C_13
REMARK    7  A    between atoms: C_13  and  C_14
REMARK    8  A    between atoms: C_14  and  C_15
REMARK                            x       y       z     vdW  Elec       q    Type
REMARK                         _______ _______ _______ _____ _____    ______ ____
ROOT
ATOM      1  C   UNL     1       6.529   6.806  17.430  0.00  0.00    +0.000 C 
ATOM      2  C   UNL     1       7.620   5.924  18.018  0.00  0.00    +0.000 C 
ATOM      3  C   UNL     1       7.284   4.546  17.480  0.00  0.00    +0.000 C 
ATOM      4  C   UNL     1       6.659   4.828  16.111  0.00  0.00    +0.000 C 
ATOM      5  N   UNL     1       6.431   6.282  16.063  0.00  0.00    +0.000 NA
ATOM      6  H   UNL     1       5.542   6.526  15.634  0.00  0.00    +0.000 HD
ENDROOT
BRANCH   1   7
ATOM      7  C   UNL     1       5.165   6.731  18.145  0.00  0.00    +0.000 C 
BRANCH   7   8
ATOM      8  C   UNL     1       4.043   7.395  17.355  0.00  0.00    +0.000 C 
BRANCH   8   9
ATOM      9  C   UNL     1       2.675   6.851  17.768  0.00  0.00    +0.000 C 
BRANCH   9  13
ATOM     10  C   UNL     1       0.917   9.523  20.652  0.00  0.00    +0.000 A 
ATOM     11  C   UNL     1       1.027   9.910  19.319  0.00  0.00    +0.000 A 
ATOM     12  C   UNL     1       1.580   9.038  18.381  0.00  0.00    +0.000 A 
ATOM     13  C   UNL     1       2.025   7.768  18.772  0.00  0.00    +0.000 A 
ATOM     14  C   UNL     1       1.915   7.388  20.117  0.00  0.00    +0.000 A 
ATOM     15  C   UNL     1       1.362   8.265  21.051  0.00  0.00    +0.000 A 
ENDBRANCH   9  13
ENDBRANCH   8   9
ENDBRANCH   7   8
ENDBRANCH   1   7
BRANCH   4  16
ATOM     16  C   UNL     1       5.393   3.993  15.857  0.00  0.00    +0.000 C 
BRANCH  16  17
ATOM     17  C   UNL     1       4.771   3.385  17.118  0.00  0.00    +0.000 C 
BRANCH  17  18
ATOM     18  C   UNL     1       3.243   3.376  17.075  0.00  0.00    +0.000 C 
BRANCH  18  19
ATOM     19  C   UNL     1       2.673   3.501  18.463  0.00  0.00    +0.000 A 
ATOM     20  C   UNL     1       3.520   3.435  19.577  0.00  0.00    +0.000 A 
ATOM     21  C   UNL     1       2.991   3.498  20.865  0.00  0.00    +0.000 A 
ATOM     22  C   UNL     1       1.615   3.624  21.047  0.00  0.00    +0.000 A 
ATOM     23  C   UNL     1       0.768   3.689  19.942  0.00  0.00    +0.000 A 
ATOM     24  C   UNL     1       1.292   3.628  18.655  0.00  0.00    +0.000 A 
ENDBRANCH  18  19
ENDBRANCH  17  18
ENDBRANCH  16  17
ENDBRANCH   4  16
TORSDOF 8
ENDMDL
MODEL 4
REMARK VINA RESULT:      -7.9      0.888      1.015
REMARK  Name = 
REMARK  8 active torsions:
REMARK  status: ('A' for Active; 'I' for Inactive)
REMARK    1  A    between atoms: C_4  and  C_5
REMARK    2  A    between atoms: C_5  and  C_6
REMARK    3  A    between atoms: C_6  and  C_7
REMARK    4  A    between atoms: C_7  and  C_8
REMARK    5  A    between atoms: C_11  and  C_12
REMARK    6  A    between atoms: C_12  and  C_13
REMARK    7  A    between atoms: C_13  and  C_14
REMARK    8  A    between atoms: C_14  and  C_15
REMARK                            x       y       z     vdW  Elec       q    Type
REMARK                         _______ _______ _______ _____ _____    ______ ____
ROOT
ATOM      1  C   UNL     1       8.023   7.126  17.675  0.00  0.00    +0.000 C 
ATOM      2  C   UNL     1       7.795   6.205  18.864  0.00  0.00    +0.000 C 
ATOM      3  C   UNL     1       6.405   5.651  18.616  0.00  0.00    +0.000 C 
ATOM      4  C   UNL     1       6.299   5.591  17.090  0.00  0.00    +0.000 C 
ATOM      5  N   UNL     1       7.463   6.332  16.575  0.00  0.00    +0.000 NA
ATOM      6  H   UNL     1       7.234   6.916  15.775  0.00  0.00    +0.000 HD
ENDROOT
BRANCH   1   7
ATOM      7  C   UNL     1       7.331   8.501  17.766  0.00  0.00    +0.000 C 
BRANCH   7   8
ATOM      8  C   UNL     1       8.318   9.663  17.774  0.00  0.00    +0.000 C 
BRANCH   8   9
ATOM      9  C   UNL     1       9.043   9.767  19.117  0.00  0.00    +0.000 C 
BRANCH   9  13
ATOM     10  C   UNL     1      11.792  13.081  19.043  0.00  0.00    +0.000 A 
ATOM     11  C   UNL     1      11.242  12.659  20.250  0.00  0.00    +0.000 A 
ATOM     12  C   UNL     1      10.365  11.574  20.277  0.00  0.00    +0.000 A 
ATOM     13  C   UNL     1      10.036  10.900  19.093  0.00  0.00    +0.000 A 
ATOM     14  C   UNL     1      10.590  11.336  17.881  0.00  0.00    +0.000 A 
ATOM     15  C   UNL     1      11.467  12.421  17.859  0.00  0.00    +0.000 A 
ENDBRANCH   9  13
ENDBRANCH   8   9
ENDBRANCH   7   8
ENDBRANCH   1   7
BRANCH   4  16
ATOM     16  C   UNL     1       4.950   6.116  16.571  0.00  0.00    +0.000 C 
BRANCH  16  17
ATOM     17  C   UNL     1       3.762   5.836  17.497  0.00  0.00    +0.000 C 
BRANCH  17  18
ATOM     18  C   UNL     1       3.240   4.405  17.368  0.00  0.00    +0.000 C 
BRANCH  18  19
ATOM     19  C   UNL     1       2.550   3.976  18.635  0.00  0.00    +0.000 A 
ATOM     20  C   UNL     1       1.361   3.238  18.571  0.00  0.00    +0.000 A 
ATOM     21  C   UNL     1       0.691   2.884  19.741  0.00  0.00    +0.000 A 
ATOM     22  C   UNL     1       1.203   3.266  20.980  0.00  0.00    +0.000 A 
ATOM     23  C   UNL     1       2.386   4.002  21.049  0.00  0.00    +0.000 A 
ATOM     24  C   UNL     1       3.058   4.356  19.884  0.00  0.00    +0.000 A 
ENDBRANCH  18  19
ENDBRANCH  17  18
ENDBRANCH  16  17
ENDBRANCH   4  16
TORSDOF 8
ENDMDL
MODEL 5
REMARK VINA RESULT:      -7.9      0.887      9.240
REMARK  Name = 
REMARK  8 active torsions:
REMARK  status: ('A' for Active; 'I' for Inactive)
REMARK    1  A    between atoms: C_4  and  C_5
REMARK    2  A    between atoms: C_5  and  C_6
REMARK    3  A    between atoms: C_6  and  C_7
REMARK    4  A    between atoms: C_7  and  C_8
REMARK    5  A    between atoms: C_11  and  C_12
REMARK    6  A    between atoms: C_12  and  C_13
REMARK    7  A    between atoms: C_13  and  C_14
REMARK    8  A    between atoms: C_14  and  C_15
REMARK                            x       y       z     vdW  Elec       q    Type
REMARK                         _______ _______ _______ _____ _____    ______ ____
ROOT
ATOM      1  C   UNL     1       5.880   5.159  18.932  0.00  0.00    +0.000 C 
ATOM      2  C   UNL     1       6.038   4.488  17.576  0.00  0.00    +0.000 C 
ATOM      3  C   UNL     1       6.695   5.561  16.728  0.00  0.00    +0.000 C 
ATOM      4  C   UNL     1       7.560   6.337  17.724  0.00  0.00    +0.000 C 
ATOM      5  N   UNL     1       7.159   5.867  19.061  0.00  0.00    +0.000 NA
ATOM      6  H   UNL     1       7.100   6.621  19.741  0.00  0.00    +0.000 HD
ENDROOT
BRANCH   1   7
ATOM      7  C   UNL     1       4.697   6.140  19.047  0.00  0.00    +0.000 C 
BRANCH   7   8
ATOM      8  C   UNL     1       3.843   6.192  17.785  0.00  0.00    +0.000 C 
BRANCH   8   9
ATOM      9  C   UNL     1       2.357   6.041  18.112  0.00  0.00    +0.000 C 
BRANCH   9  13
ATOM     10  C   UNL     1       1.557   1.961  19.233  0.00  0.00    +0.000 A 
ATOM     11  C   UNL     1       1.222   3.000  20.097  0.00  0.00    +0.000 A 
ATOM     12  C   UNL     1       1.464   4.323  19.727  0.00  0.00    +0.000 A 
ATOM     13  C   UNL     1       2.042   4.615  18.484  0.00  0.00    +0.000 A 
ATOM     14  C   UNL     1       2.381   3.563  17.623  0.00  0.00    +0.000 A 
ATOM     15  C   UNL     1       2.137   2.241  17.997  0.00  0.00    +0.000 A 
ENDBRANCH   9  13
ENDBRANCH   8   9
ENDBRANCH   7   8
ENDBRANCH   1   7
BRANCH   4  16
ATOM     16  C   UNL     1       7.446   7.860  17.542  0.00  0.00    +0.000 C 
BRANCH  16  17
ATOM     17  C   UNL     1       8.462   8.673  18.351  0.00  0.00    +0.000 C 
BRANCH  17  18
ATOM     18  C   UNL     1       8.489  10.148  17.950  0.00  0.00    +0.000 C 
BRANCH  18  19
ATOM     19  C   UNL     1       9.627  10.861  18.631  0.00  0.00    +0.000 A 
ATOM     20  C   UNL     1       9.613  11.039  20.020  0.00  0.00    +0.000 A 
ATOM     21  C   UNL     1      10.638  11.744  20.648  0.00  0.00    +0.000 A 
ATOM     22  C   UNL     1      11.681  12.277  19.893  0.00  0.00    +0.000 A 
ATOM     23  C   UNL     1      11.699  12.104  18.509  0.00  0.00    +0.000 A 
ATOM     24  C   UNL     1      10.679  11.399  17.879  0.00  0.00    +0.000 A 
ENDBRANCH  18  19
ENDBRANCH  17  18
ENDBRANCH  16  17
ENDBRANCH   4  16
TORSDOF 8
ENDMDL
MODEL 6
REMARK VINA RESULT:      -7.8      1.157      1.610
REMARK  Name = 
REMARK  8 active torsions:
REMARK  status: ('A' for Active; 'I' for Inactive)
REMARK    1  A    between atoms: C_4  and  C_5
REMARK    2  A    between atoms: C_5  and  C_6
REMARK    3  A    between atoms: C_6  and  C_7
REMARK    4  A    between atoms: C_7  and  C_8
REMARK    5  A    between atoms: C_11  and  C_12
REMARK    6  A    between atoms: C_12  and  C_13
REMARK    7  A    between atoms: C_13  and  C_14
REMARK    8  A    between atoms: C_14  and  C_15
REMARK                            x       y       z     vdW  Elec       q    Type
REMARK                         _______ _______ _______ _____ _____    ______ ____
ROOT
ATOM      1  C   UNL     1       7.932   5.634  18.298  0.00  0.00    +0.000 C 
ATOM      2  C   UNL     1       7.310   5.402  19.666  0.00  0.00    +0.000 C 
ATOM      3  C   UNL     1       5.845   5.169  19.350  0.00  0.00    +0.000 C 
ATOM      4  C   UNL     1       5.868   4.490  17.979  0.00  0.00    +0.000 C 
ATOM      5  N   UNL     1       7.251   4.616  17.488  0.00  0.00    +0.000 NA
ATOM      6  H   UNL     1       7.298   4.837  16.497  0.00  0.00    +0.000 HD
ENDROOT
BRANCH   1   7
ATOM      7  C   UNL     1       7.715   7.040  17.705  0.00  0.00    +0.000 C 
BRANCH   7   8
ATOM      8  C   UNL     1       8.279   8.149  18.586  0.00  0.00    +0.000 C 
BRANCH   8   9
ATOM      9  C   UNL     1       8.363   9.474  17.825  0.00  0.00    +0.000 C 
BRANCH   9  13
ATOM     10  C   UNL     1      10.950  12.272  19.832  0.00  0.00    +0.000 A 
ATOM     11  C   UNL     1      10.090  11.464  20.571  0.00  0.00    +0.000 A 
ATOM     12  C   UNL     1       9.265  10.544  19.923  0.00  0.00    +0.000 A 
ATOM     13  C   UNL     1       9.297  10.426  18.527  0.00  0.00    +0.000 A 
ATOM     14  C   UNL     1      10.162  11.248  17.790  0.00  0.00    +0.000 A 
ATOM     15  C   UNL     1      10.985  12.166  18.443  0.00  0.00    +0.000 A 
ENDBRANCH   9  13
ENDBRANCH   8   9
ENDBRANCH   7   8
ENDBRANCH   1   7
BRANCH   4  16
ATOM     16  C   UNL     1       4.815   5.066  17.017  0.00  0.00    +0.000 C 
BRANCH  16  17
ATOM     17  C   UNL     1       3.549   4.215  16.881  0.00  0.00    +0.000 C 
BRANCH  17  18
ATOM     18  C   UNL     1       3.613   2.927  17.702  0.00  0.00    +0.000 C 
BRANCH  18  19
ATOM     19  C   UNL     1       2.837   3.076  18.984  0.00  0.00    +0.000 A 
ATOM     20  C   UNL     1       3.353   2.562  20.180  0.00  0.00    +0.000 A 
ATOM     21  C   UNL     1       2.615   2.651  21.359  0.00  0.00    +0.000 A 
ATOM     22  C   UNL     1       1.357   3.252  21.349  0.00  0.00    +0.000 A 
ATOM     23  C   UNL     1       0.838   3.765  20.160  0.00  0.00    +0.000 A 
ATOM     24  C   UNL     1       1.573   3.679  18.982  0.00  0.00    +0.000 A 
ENDBRANCH  18  19
ENDBRANCH  17  18
ENDBRANCH  16  17
ENDBRANCH   4  16
TORSDOF 8
ENDMDL
MODEL 7
REMARK VINA RESULT:      -7.8      1.194      9.260
REMARK  Name = 
REMARK  8 active torsions:
REMARK  status: ('A' for Active; 'I' for Inactive)
REMARK    1  A    between atoms: C_4  and  C_5
REMARK    2  A    between atoms: C_5  and  C_6
REMARK    3  A    between atoms: C_6  and  C_7
REMARK    4  A    between atoms: C_7  and  C_8
REMARK    5  A    between atoms: C_11  and  C_12
REMARK    6  A    between atoms: C_12  and  C_13
REMARK    7  A    between atoms: C_13  and  C_14
REMARK    8  A    between atoms: C_14  and  C_15
REMARK                            x       y       z     vdW  Elec       q    Type
REMARK                         _______ _______ _______ _____ _____    ______ ____
ROOT
ATOM      1  C   UNL     1       5.795   4.493  17.810  0.00  0.00    +0.000 C 
ATOM      2  C   UNL     1       6.363   4.241  16.422  0.00  0.00    +0.000 C 
ATOM      3  C   UNL     1       7.018   5.563  16.067  0.00  0.00    +0.000 C 
ATOM      4  C   UNL     1       7.499   6.109  17.414  0.00  0.00    +0.000 C 
ATOM      5  N   UNL     1       6.881   5.252  18.441  0.00  0.00    +0.000 NA
ATOM      6  H   UNL     1       6.549   5.779  19.244  0.00  0.00    +0.000 HD
ENDROOT
BRANCH   1   7
ATOM      7  C   UNL     1       4.477   5.291  17.847  0.00  0.00    +0.000 C 
BRANCH   7   8
ATOM      8  C   UNL     1       3.314   4.548  17.199  0.00  0.00    +0.000 C 
BRANCH   8   9
ATOM      9  C   UNL     1       3.259   3.091  17.662  0.00  0.00    +0.000 C 
BRANCH   9  13
ATOM     10  C   UNL     1       1.480   2.930  21.581  0.00  0.00    +0.000 A 
ATOM     11  C   UNL     1       0.724   3.346  20.489  0.00  0.00    +0.000 A 
ATOM     12  C   UNL     1       1.294   3.380  19.216  0.00  0.00    +0.000 A 
ATOM     13  C   UNL     1       2.628   2.996  19.028  0.00  0.00    +0.000 A 
ATOM     14  C   UNL     1       3.384   2.584  20.134  0.00  0.00    +0.000 A 
ATOM     15  C   UNL     1       2.809   2.551  21.405  0.00  0.00    +0.000 A 
ENDBRANCH   9  13
ENDBRANCH   8   9
ENDBRANCH   7   8
ENDBRANCH   1   7
BRANCH   4  16
ATOM     16  C   UNL     1       7.189   7.605  17.588  0.00  0.00    +0.000 C 
BRANCH  16  17
ATOM     17  C   UNL     1       8.307   8.410  18.259  0.00  0.00    +0.000 C 
BRANCH  17  18
ATOM     18  C   UNL     1       8.313   9.878  17.832  0.00  0.00    +0.000 C 
BRANCH  18  19
ATOM     19  C   UNL     1       9.391  10.637  18.560  0.00  0.00    +0.000 A 
ATOM     20  C   UNL     1       9.351  10.745  19.956  0.00  0.00    +0.000 A 
ATOM     21  C   UNL     1      10.317  11.490  20.630  0.00  0.00    +0.000 A 
ATOM     22  C   UNL     1      11.326  12.132  19.914  0.00  0.00    +0.000 A 
ATOM     23  C   UNL     1      11.369  12.028  18.524  0.00  0.00    +0.000 A 
ATOM     24  C   UNL     1      10.408  11.284  17.848  0.00  0.00    +0.000 A 
ENDBRANCH  18  19
ENDBRANCH  17  18
ENDBRANCH  16  17
ENDBRANCH   4  16
TORSDOF 8
ENDMDL
MODEL 8
REMARK VINA RESULT:      -7.7      0.815      1.670
REMARK  Name = 
REMARK  8 active torsions:
REMARK  status: ('A' for Active; 'I' for Inactive)
REMARK    1  A    between atoms: C_4  and  C_5
REMARK    2  A    between atoms: C_5  and  C_6
REMARK    3  A    between atoms: C_6  and  C_7
REMARK    4  A    between atoms: C_7  and  C_8
REMARK    5  A    between atoms: C_11  and  C_12
REMARK    6  A    between atoms: C_12  and  C_13
REMARK    7  A    between atoms: C_13  and  C_14
REMARK    8  A    between atoms: C_14  and  C_15
REMARK                            x       y       z     vdW  Elec       q    Type
REMARK                         _______ _______ _______ _____ _____    ______ ____
ROOT
ATOM      1  C   UNL     1       7.485   6.202  17.439  0.00  0.00    +0.000 C 
ATOM      2  C   UNL     1       8.054   5.580  18.705  0.00  0.00    +0.000 C 
ATOM      3  C   UNL     1       6.843   5.461  19.611  0.00  0.00    +0.000 C 
ATOM      4  C   UNL     1       5.682   5.218  18.644  0.00  0.00    +0.000 C 
ATOM      5  N   UNL     1       6.218   5.475  17.297  0.00  0.00    +0.000 NA
ATOM      6  H   UNL     1       5.565   5.979  16.703  0.00  0.00    +0.000 HD
ENDROOT
BRANCH   1   7
ATOM      7  C   UNL     1       7.239   7.722  17.506  0.00  0.00    +0.000 C 
BRANCH   7   8
ATOM      8  C   UNL     1       8.398   8.484  18.140  0.00  0.00    +0.000 C 
BRANCH   8   9
ATOM      9  C   UNL     1       8.182   9.996  18.052  0.00  0.00    +0.000 C 
BRANCH   9  13
ATOM     10  C   UNL     1      11.572  11.995  19.800  0.00  0.00    +0.000 A 
ATOM     11  C   UNL     1      11.545  11.736  18.433  0.00  0.00    +0.000 A 
ATOM     12  C   UNL     1      10.439  11.105  17.863  0.00  0.00    +0.000 A 
ATOM     13  C   UNL     1       9.349  10.730  18.660  0.00  0.00    +0.000 A 
ATOM     14  C   UNL     1       9.387  10.991  20.037  0.00  0.00    +0.000 A 
ATOM     15  C   UNL     1      10.496  11.622  20.603  0.00  0.00    +0.000 A 
ENDBRANCH   9  13
ENDBRANCH   8   9
ENDBRANCH   7   8
ENDBRANCH   1   7
BRANCH   4  16
ATOM     16  C   UNL     1       4.442   6.061  18.988  0.00  0.00    +0.000 C 
BRANCH  16  17
ATOM     17  C   UNL     1       3.518   6.343  17.799  0.00  0.00    +0.000 C 
BRANCH  17  18
ATOM     18  C   UNL     1       2.056   6.013  18.098  0.00  0.00    +0.000 C 
BRANCH  18  19
ATOM     19  C   UNL     1       1.888   4.541  18.369  0.00  0.00    +0.000 A 
ATOM     20  C   UNL     1       1.269   4.111  19.549  0.00  0.00    +0.000 A 
ATOM     21  C   UNL     1       1.159   2.750  19.827  0.00  0.00    +0.000 A 
ATOM     22  C   UNL     1       1.668   1.812  18.931  0.00  0.00    +0.000 A 
ATOM     23  C   UNL     1       2.286   2.236  17.754  0.00  0.00    +0.000 A 
ATOM     24  C   UNL     1       2.397   3.593  17.472  0.00  0.00    +0.000 A 
ENDBRANCH  18  19
ENDBRANCH  17  18
ENDBRANCH  16  17
ENDBRANCH   4  16
TORSDOF 8
ENDMDL
MODEL 9
REMARK VINA RESULT:      -7.7      3.261      7.189
REMARK  Name = 
REMARK  8 active torsions:
REMARK  status: ('A' for Active; 'I' for Inactive)
REMARK    1  A    between atoms: C_4  and  C_5
REMARK    2  A    between atoms: C_5  and  C_6
REMARK    3  A    between atoms: C_6  and  C_7
REMARK    4  A    between atoms: C_7  and  C_8
REMARK    5  A    between atoms: C_11  and  C_12
REMARK    6  A    between atoms: C_12  and  C_13
REMARK    7  A    between atoms: C_13  and  C_14
REMARK    8  A    between atoms: C_14  and  C_15
REMARK                            x       y       z     vdW  Elec       q    Type
REMARK                         _______ _______ _______ _____ _____    ______ ____
ROOT
ATOM      1  C   UNL     1       1.479   2.331  19.746  0.00  0.00    +0.000 C 
ATOM      2  C   UNL     1       0.590   2.989  18.702  0.00  0.00    +0.000 C 
ATOM      3  C   UNL     1       1.582   3.625  17.747  0.00  0.00    +0.000 C 
ATOM      4  C   UNL     1       2.787   2.682  17.787  0.00  0.00    +0.000 C 
ATOM      5  N   UNL     1       2.543   1.761  18.910  0.00  0.00    +0.000 NA
ATOM      6  H   UNL     1       3.381   1.572  19.453  0.00  0.00    +0.000 HD
ENDROOT
BRANCH   1   7
ATOM      7  C   UNL     1       2.067   3.283  20.805  0.00  0.00    +0.000 C 
BRANCH   7   8
ATOM      8  C   UNL     1       1.652   4.735  20.594  0.00  0.00    +0.000 C 
BRANCH   8   9
ATOM      9  C   UNL     1       2.871   5.640  20.406  0.00  0.00    +0.000 C 
BRANCH   9  13
ATOM     10  C   UNL     1       1.670   9.182  18.271  0.00  0.00    +0.000 A 
ATOM     11  C   UNL     1       1.282   9.001  19.597  0.00  0.00    +0.000 A 
ATOM     12  C   UNL     1       1.687   7.863  20.294  0.00  0.00    +0.000 A 
ATOM     13  C   UNL     1       2.486   6.896  19.669  0.00  0.00    +0.000 A 
ATOM     14  C   UNL     1       2.867   7.083  18.333  0.00  0.00    +0.000 A 
ATOM     15  C   UNL     1       2.460   8.224  17.639  0.00  0.00    +0.000 A 
ENDBRANCH   9  13
ENDBRANCH   8   9
ENDBRANCH   7   8
ENDBRANCH   1   7
BRANCH   4  16
ATOM     16  C   UNL     1       4.123   3.437  17.885  0.00  0.00    +0.000 C 
BRANCH  16  17
ATOM     17  C   UNL     1       4.893   3.536  16.564  0.00  0.00    +0.000 C 
BRANCH  17  18
ATOM     18  C   UNL     1       5.102   4.981  16.111  0.00  0.00    +0.000 C 
BRANCH  18  19
ATOM     19  C   UNL     1       6.163   5.650  16.944  0.00  0.00    +0.000 A 
ATOM     20  C   UNL     1       6.908   4.902  17.864  0.00  0.00    +0.000 A 
ATOM     21  C   UNL     1       7.855   5.527  18.673  0.00  0.00    +0.000 A 
ATOM     22  C   UNL     1       8.060   6.901  18.571  0.00  0.00    +0.000 A 
ATOM     23  C   UNL     1       7.320   7.651  17.657  0.00  0.00    +0.000 A 
ATOM     24  C   UNL     1       6.375   7.031  16.846  0.00  0.00    +0.000 A 
ENDBRANCH  18  19
ENDBRANCH  17  18
ENDBRANCH  16  17
ENDBRANCH   4  16
TORSDOF 8
ENDMDL
