MODEL 1
REMARK VINA RESULT:      -7.9      0.000      0.000
REMARK  Name = 
REMARK  8 active torsions:
REMARK  status: ('A' for Active; 'I' for Inactive)
REMARK    1  A    between atoms: C_1  and  C_2
REMARK    2  A    between atoms: N_4  and  C_5
REMARK    3  A    between atoms: N_10  and  C_11
REMARK    4  A    between atoms: C_14  and  S_15
REMARK    5  A    between atoms: S_15  and  N_18
REMARK    6  A    between atoms: N_18  and  C_19
REMARK    7  A    between atoms: C_19  and  C_20
REMARK    8  A    between atoms: C_20  and  N_21
REMARK                            x       y       z     vdW  Elec       q    Type
REMARK                         _______ _______ _______ _____ _____    ______ ____
ROOT
ATOM      1  C   UNL     1       3.094   6.560  18.523  0.00  0.00    +0.000 A 
ATOM      2  C   UNL     1       3.204   5.177  18.340  0.00  0.00    +0.000 A 
ATOM      3  C   UNL     1       4.119   4.635  17.433  0.00  0.00    +0.000 A 
ATOM      4  C   UNL     1       4.954   5.481  16.706  0.00  0.00    +0.000 A 
ATOM      5  C   UNL     1       4.883   6.863  16.883  0.00  0.00    +0.000 A 
ATOM      6  C   UNL     1       3.952   7.393  17.784  0.00  0.00    +0.000 A 
ENDROOT
BRANCH   1  16
ATOM      7  C   UNL     1      -0.566  10.051  23.115  0.00  0.00    +0.000 C 
ATOM      8  C   UNL     1      -0.432  10.462  21.700  0.00  0.00    +0.000 A 
ATOM      9  N   UNL     1      -1.013  11.582  21.232  0.00  0.00    +0.000 NA
ATOM     10  N   UNL     1      -0.654  11.600  19.922  0.00  0.00    +0.000 N 
ATOM     11  C   UNL     1      -1.119  12.653  19.054  0.00  0.00    +0.000 C 
ATOM     12  C   UNL     1       0.134  10.547  19.564  0.00  0.00    +0.000 A 
ATOM     13  N   UNL     1       0.684  10.247  18.380  0.00  0.00    +0.000 NA
ATOM     14  N   UNL     1       1.399   9.110  18.385  0.00  0.00    +0.000 NA
ATOM     15  C   UNL     1       1.540   8.340  19.503  0.00  0.00    +0.000 A 
ATOM     16  N   UNL     1       2.241   7.132  19.471  0.00  0.00    +0.000 N 
ATOM     17  N   UNL     1       0.997   8.630  20.700  0.00  0.00    +0.000 NA
ATOM     18  C   UNL     1       0.285   9.778  20.695  0.00  0.00    +0.000 A 
ATOM     19  H   UNL     1       2.148   6.657  20.358  0.00  0.00    +0.000 HD
ENDBRANCH   1  16
BRANCH   4  20
ATOM     20  S   UNL     1       6.178   4.781  15.632  0.00  0.00    +0.000 S 
ATOM     21  O   UNL     1       5.949   3.352  15.590  0.00  0.00    +0.000 OA
ATOM     22  O   UNL     1       6.253   5.576  14.427  0.00  0.00    +0.000 OA
BRANCH  20  23
ATOM     23  N   UNL     1       7.617   4.996  16.488  0.00  0.00    +0.000 NA
ATOM     24  H   UNL     1       7.960   5.941  16.317  0.00  0.00    +0.000 HD
BRANCH  23  25
ATOM     25  C   UNL     1       7.619   4.587  17.907  0.00  0.00    +0.000 C 
BRANCH  25  26
ATOM     26  C   UNL     1       7.821   5.814  18.814  0.00  0.00    +0.000 C 
BRANCH  26  27
ATOM     27  N   UNL     1       7.999   5.453  20.225  0.00  0.00    +0.000 NA
ATOM     28  H   UNL     1       7.102   5.496  20.704  0.00  0.00    +0.000 HD
ATOM     29  H   UNL     1       8.580   6.160  20.676  0.00  0.00    +0.000 HD
ENDBRANCH  26  27
ENDBRANCH  25  26
ENDBRANCH  23  25
ENDBRANCH  20  23
ENDBRANCH   4  20
TORSDOF 6
ENDMDL
MODEL 2
REMARK VINA RESULT:      -7.8      1.795      2.641
REMARK  Name = 
REMARK  8 active torsions:
REMARK  status: ('A' for Active; 'I' for Inactive)
REMARK    1  A    between atoms: C_1  and  C_2
REMARK    2  A    between atoms: N_4  and  C_5
REMARK    3  A    between atoms: N_10  and  C_11
REMARK    4  A    between atoms: C_14  and  S_15
REMARK    5  A    between atoms: S_15  and  N_18
REMARK    6  A    between atoms: N_18  and  C_19
REMARK    7  A    between atoms: C_19  and  C_20
REMARK    8  A    between atoms: C_20  and  N_21
REMARK                            x       y       z     vdW  Elec       q    Type
REMARK                         _______ _______ _______ _____ _____    ______ ____
ROOT
ATOM      1  C   UNL     1       3.683   6.246  18.933  0.00  0.00    +0.000 A 
ATOM      2  C   UNL     1       4.531   5.201  19.316  0.00  0.00    +0.000 A 
ATOM      3  C   UNL     1       5.523   4.719  18.458  0.00  0.00    +0.000 A 
ATOM      4  C   UNL     1       5.690   5.297  17.201  0.00  0.00    +0.000 A 
ATOM      5  C   UNL     1       4.874   6.356  16.800  0.00  0.00    +0.000 A 
ATOM      6  C   UNL     1       3.875   6.819  17.663  0.00  0.00    +0.000 A 
ENDROOT
BRANCH   1  16
ATOM      7  C   UNL     1      -0.518   9.677  23.088  0.00  0.00    +0.000 C 
ATOM      8  C   UNL     1      -0.310  10.032  21.666  0.00  0.00    +0.000 A 
ATOM      9  N   UNL     1      -0.929  11.088  21.106  0.00  0.00    +0.000 NA
ATOM     10  N   UNL     1      -0.479  11.072  19.824  0.00  0.00    +0.000 N 
ATOM     11  C   UNL     1      -0.949  12.051  18.876  0.00  0.00    +0.000 C 
ATOM     12  C   UNL     1       0.400  10.062  19.572  0.00  0.00    +0.000 A 
ATOM     13  N   UNL     1       1.052   9.749  18.445  0.00  0.00    +0.000 NA
ATOM     14  N   UNL     1       1.839   8.665  18.555  0.00  0.00    +0.000 NA
ATOM     15  C   UNL     1       1.950   7.957  19.716  0.00  0.00    +0.000 A 
ATOM     16  N   UNL     1       2.729   6.799  19.792  0.00  0.00    +0.000 N 
ATOM     17  N   UNL     1       1.305   8.261  20.857  0.00  0.00    +0.000 NA
ATOM     18  C   UNL     1       0.520   9.355  20.747  0.00  0.00    +0.000 A 
ATOM     19  H   UNL     1       2.604   6.359  20.692  0.00  0.00    +0.000 HD
ENDBRANCH   1  16
BRANCH   4  20
ATOM     20  S   UNL     1       7.013   4.745  16.159  0.00  0.00    +0.000 S 
ATOM     21  O   UNL     1       7.365   5.848  15.289  0.00  0.00    +0.000 OA
ATOM     22  O   UNL     1       8.000   4.071  16.972  0.00  0.00    +0.000 OA
BRANCH  20  23
ATOM     23  N   UNL     1       6.276   3.592  15.171  0.00  0.00    +0.000 NA
ATOM     24  H   UNL     1       5.669   3.009  15.747  0.00  0.00    +0.000 HD
BRANCH  23  25
ATOM     25  C   UNL     1       5.657   4.079  13.921  0.00  0.00    +0.000 C 
BRANCH  25  26
ATOM     26  C   UNL     1       6.278   3.364  12.708  0.00  0.00    +0.000 C 
BRANCH  26  27
ATOM     27  N   UNL     1       7.197   4.223  11.952  0.00  0.00    +0.000 NA
ATOM     28  H   UNL     1       7.572   4.944  12.565  0.00  0.00    +0.000 HD
ATOM     29  H   UNL     1       6.668   4.725  11.238  0.00  0.00    +0.000 HD
ENDBRANCH  26  27
ENDBRANCH  25  26
ENDBRANCH  23  25
ENDBRANCH  20  23
ENDBRANCH   4  20
TORSDOF 6
ENDMDL
MODEL 3
REMARK VINA RESULT:      -7.6      2.072      2.919
REMARK  Name = 
REMARK  8 active torsions:
REMARK  status: ('A' for Active; 'I' for Inactive)
REMARK    1  A    between atoms: C_1  and  C_2
REMARK    2  A    between atoms: N_4  and  C_5
REMARK    3  A    between atoms: N_10  and  C_11
REMARK    4  A    between atoms: C_14  and  S_15
REMARK    5  A    between atoms: S_15  and  N_18
REMARK    6  A    between atoms: N_18  and  C_19
REMARK    7  A    between atoms: C_19  and  C_20
REMARK    8  A    between atoms: C_20  and  N_21
REMARK                            x       y       z     vdW  Elec       q    Type
REMARK                         _______ _______ _______ _____ _____    ______ ____
ROOT
ATOM      1  C   UNL     1       3.665   6.375  18.168  0.00  0.00    +0.000 A 
ATOM      2  C   UNL     1       3.607   5.069  17.668  0.00  0.00    +0.000 A 
ATOM      3  C   UNL     1       4.592   4.575  16.809  0.00  0.00    +0.000 A 
ATOM      4  C   UNL     1       5.667   5.387  16.452  0.00  0.00    +0.000 A 
ATOM      5  C   UNL     1       5.764   6.687  16.952  0.00  0.00    +0.000 A 
ATOM      6  C   UNL     1       4.763   7.173  17.800  0.00  0.00    +0.000 A 
ENDROOT
BRANCH   1  16
ATOM      7  C   UNL     1      -0.392   9.541  22.661  0.00  0.00    +0.000 C 
ATOM      8  C   UNL     1      -0.188  10.015  21.274  0.00  0.00    +0.000 A 
ATOM      9  N   UNL     1      -0.781  11.134  20.816  0.00  0.00    +0.000 NA
ATOM     10  N   UNL     1      -0.345  11.218  19.533  0.00  0.00    +0.000 N 
ATOM     11  C   UNL     1      -0.795  12.291  18.680  0.00  0.00    +0.000 C 
ATOM     12  C   UNL     1       0.502  10.210  19.182  0.00  0.00    +0.000 A 
ATOM     13  N   UNL     1       1.133   9.979  18.024  0.00  0.00    +0.000 NA
ATOM     14  N   UNL     1       1.889   8.868  18.027  0.00  0.00    +0.000 NA
ATOM     15  C   UNL     1       1.991   8.057  19.120  0.00  0.00    +0.000 A 
ATOM     16  N   UNL     1       2.736   6.876  19.083  0.00  0.00    +0.000 N 
ATOM     17  N   UNL     1       1.366   8.278  20.292  0.00  0.00    +0.000 NA
ATOM     18  C   UNL     1       0.613   9.399  20.289  0.00  0.00    +0.000 A 
ATOM     19  H   UNL     1       2.607   6.362  19.943  0.00  0.00    +0.000 HD
ENDBRANCH   1  16
BRANCH   4  20
ATOM     20  S   UNL     1       6.962   4.721  15.441  0.00  0.00    +0.000 S 
ATOM     21  O   UNL     1       7.448   5.795  14.601  0.00  0.00    +0.000 OA
ATOM     22  O   UNL     1       7.852   3.943  16.273  0.00  0.00    +0.000 OA
BRANCH  20  23
ATOM     23  N   UNL     1       6.147   3.658  14.414  0.00  0.00    +0.000 NA
ATOM     24  H   UNL     1       5.154   3.679  14.645  0.00  0.00    +0.000 HD
BRANCH  23  25
ATOM     25  C   UNL     1       6.447   3.761  12.971  0.00  0.00    +0.000 C 
BRANCH  25  26
ATOM     26  C   UNL     1       5.373   3.023  12.152  0.00  0.00    +0.000 C 
BRANCH  26  27
ATOM     27  N   UNL     1       5.859   1.757  11.591  0.00  0.00    +0.000 NA
ATOM     28  H   UNL     1       6.690   1.456  12.096  0.00  0.00    +0.000 HD
ATOM     29  H   UNL     1       6.170   1.918  10.632  0.00  0.00    +0.000 HD
ENDBRANCH  26  27
ENDBRANCH  25  26
ENDBRANCH  23  25
ENDBRANCH  20  23
ENDBRANCH   4  20
TORSDOF 6
ENDMDL
MODEL 4
REMARK VINA RESULT:      -7.4      1.921      2.872
REMARK  Name = 
REMARK  8 active torsions:
REMARK  status: ('A' for Active; 'I' for Inactive)
REMARK    1  A    between atoms: C_1  and  C_2
REMARK    2  A    between atoms: N_4  and  C_5
REMARK    3  A    between atoms: N_10  and  C_11
REMARK    4  A    between atoms: C_14  and  S_15
REMARK    5  A    between atoms: S_15  and  N_18
REMARK    6  A    between atoms: N_18  and  C_19
REMARK    7  A    between atoms: C_19  and  C_20
REMARK    8  A    between atoms: C_20  and  N_21
REMARK                            x       y       z     vdW  Elec       q    Type
REMARK                         _______ _______ _______ _____ _____    ______ ____
ROOT
ATOM      1  C   UNL     1       3.888   6.466  18.733  0.00  0.00    +0.000 A 
ATOM      2  C   UNL     1       4.101   7.010  17.461  0.00  0.00    +0.000 A 
ATOM      3  C   UNL     1       5.076   6.493  16.604  0.00  0.00    +0.000 A 
ATOM      4  C   UNL     1       5.843   5.402  17.008  0.00  0.00    +0.000 A 
ATOM      5  C   UNL     1       5.639   4.825  18.262  0.00  0.00    +0.000 A 
ATOM      6  C   UNL     1       4.669   5.361  19.117  0.00  0.00    +0.000 A 
ENDROOT
BRANCH   1  16
ATOM      7  C   UNL     1      -0.624   9.392  22.947  0.00  0.00    +0.000 C 
ATOM      8  C   UNL     1      -0.369   9.869  21.569  0.00  0.00    +0.000 A 
ATOM      9  N   UNL     1      -1.005  10.944  21.066  0.00  0.00    +0.000 NA
ATOM     10  N   UNL     1      -0.499  11.049  19.809  0.00  0.00    +0.000 N 
ATOM     11  C   UNL     1      -0.966  12.084  18.921  0.00  0.00    +0.000 C 
ATOM     12  C   UNL     1       0.430  10.095  19.520  0.00  0.00    +0.000 A 
ATOM     13  N   UNL     1       1.143   9.898  18.403  0.00  0.00    +0.000 NA
ATOM     14  N   UNL     1       1.966   8.838  18.462  0.00  0.00    +0.000 NA
ATOM     15  C   UNL     1       2.055   8.043  19.568  0.00  0.00    +0.000 A 
ATOM     16  N   UNL     1       2.876   6.912  19.587  0.00  0.00    +0.000 N 
ATOM     17  N   UNL     1       1.349   8.230  20.698  0.00  0.00    +0.000 NA
ATOM     18  C   UNL     1       0.527   9.300  20.639  0.00  0.00    +0.000 A 
ATOM     19  H   UNL     1       2.730   6.396  20.443  0.00  0.00    +0.000 HD
ENDBRANCH   1  16
BRANCH   4  20
ATOM     20  S   UNL     1       7.009   4.692  15.878  0.00  0.00    +0.000 S 
ATOM     21  O   UNL     1       7.319   5.701  14.888  0.00  0.00    +0.000 OA
ATOM     22  O   UNL     1       8.043   4.021  16.631  0.00  0.00    +0.000 OA
BRANCH  20  23
ATOM     23  N   UNL     1       6.104   3.515  15.074  0.00  0.00    +0.000 NA
ATOM     24  H   UNL     1       5.464   3.084  15.740  0.00  0.00    +0.000 HD
BRANCH  23  25
ATOM     25  C   UNL     1       5.486   3.908  13.790  0.00  0.00    +0.000 C 
BRANCH  25  26
ATOM     26  C   UNL     1       6.386   3.482  12.616  0.00  0.00    +0.000 C 
BRANCH  26  27
ATOM     27  N   UNL     1       5.863   2.314  11.896  0.00  0.00    +0.000 NA
ATOM     28  H   UNL     1       6.333   1.473  12.224  0.00  0.00    +0.000 HD
ATOM     29  H   UNL     1       6.112   2.396  10.910  0.00  0.00    +0.000 HD
ENDBRANCH  26  27
ENDBRANCH  25  26
ENDBRANCH  23  25
ENDBRANCH  20  23
ENDBRANCH   4  20
TORSDOF 6
ENDMDL
MODEL 5
REMARK VINA RESULT:      -7.4      2.183      3.149
REMARK  Name = 
REMARK  8 active torsions:
REMARK  status: ('A' for Active; 'I' for Inactive)
REMARK    1  A    between atoms: C_1  and  C_2
REMARK    2  A    between atoms: N_4  and  C_5
REMARK    3  A    between atoms: N_10  and  C_11
REMARK    4  A    between atoms: C_14  and  S_15
REMARK    5  A    between atoms: S_15  and  N_18
REMARK    6  A    between atoms: N_18  and  C_19
REMARK    7  A    between atoms: C_19  and  C_20
REMARK    8  A    between atoms: C_20  and  N_21
REMARK                            x       y       z     vdW  Elec       q    Type
REMARK                         _______ _______ _______ _____ _____    ______ ____
ROOT
ATOM      1  C   UNL     1       2.443   7.695  18.250  0.00  0.00    +0.000 A 
ATOM      2  C   UNL     1       3.557   7.628  17.405  0.00  0.00    +0.000 A 
ATOM      3  C   UNL     1       4.551   6.665  17.589  0.00  0.00    +0.000 A 
ATOM      4  C   UNL     1       4.431   5.737  18.622  0.00  0.00    +0.000 A 
ATOM      5  C   UNL     1       3.321   5.765  19.468  0.00  0.00    +0.000 A 
ATOM      6  C   UNL     1       2.339   6.744  19.281  0.00  0.00    +0.000 A 
ENDROOT
BRANCH   1  16
ATOM      7  C   UNL     1      -3.063  11.729  17.949  0.00  0.00    +0.000 C 
ATOM      8  C   UNL     1      -2.132  11.708  19.099  0.00  0.00    +0.000 A 
ATOM      9  N   UNL     1      -2.334  12.478  20.184  0.00  0.00    +0.000 NA
ATOM     10  N   UNL     1      -1.285  12.168  20.990  0.00  0.00    +0.000 N 
ATOM     11  C   UNL     1      -1.126  12.825  22.264  0.00  0.00    +0.000 C 
ATOM     12  C   UNL     1      -0.452  11.231  20.456  0.00  0.00    +0.000 A 
ATOM     13  N   UNL     1       0.657  10.677  20.962  0.00  0.00    +0.000 NA
ATOM     14  N   UNL     1       1.243   9.786  20.143  0.00  0.00    +0.000 NA
ATOM     15  C   UNL     1       0.740   9.486  18.910  0.00  0.00    +0.000 A 
ATOM     16  N   UNL     1       1.396   8.600  18.053  0.00  0.00    +0.000 N 
ATOM     17  N   UNL     1      -0.375  10.031  18.390  0.00  0.00    +0.000 NA
ATOM     18  C   UNL     1      -0.966  10.921  19.218  0.00  0.00    +0.000 A 
ATOM     19  H   UNL     1       0.935   8.586  17.154  0.00  0.00    +0.000 HD
ENDBRANCH   1  16
BRANCH   4  20
ATOM     20  S   UNL     1       5.647   4.458  18.787  0.00  0.00    +0.000 S 
ATOM     21  O   UNL     1       6.889   5.092  19.177  0.00  0.00    +0.000 OA
ATOM     22  O   UNL     1       5.079   3.366  19.545  0.00  0.00    +0.000 OA
BRANCH  20  23
ATOM     23  N   UNL     1       5.874   3.928  17.201  0.00  0.00    +0.000 NA
ATOM     24  H   UNL     1       5.004   4.059  16.686  0.00  0.00    +0.000 HD
BRANCH  23  25
ATOM     25  C   UNL     1       7.083   4.409  16.502  0.00  0.00    +0.000 C 
BRANCH  25  26
ATOM     26  C   UNL     1       6.823   4.492  14.987  0.00  0.00    +0.000 C 
BRANCH  26  27
ATOM     27  N   UNL     1       7.684   5.473  14.316  0.00  0.00    +0.000 NA
ATOM     28  H   UNL     1       7.410   5.558  13.340  0.00  0.00    +0.000 HD
ATOM     29  H   UNL     1       8.640   5.115  14.299  0.00  0.00    +0.000 HD
ENDBRANCH  26  27
ENDBRANCH  25  26
ENDBRANCH  23  25
ENDBRANCH  20  23
ENDBRANCH   4  20
TORSDOF 6
ENDMDL
MODEL 6
REMARK VINA RESULT:      -7.4      0.349      1.018
REMARK  Name = 
REMARK  8 active torsions:
REMARK  status: ('A' for Active; 'I' for Inactive)
REMARK    1  A    between atoms: C_1  and  C_2
REMARK    2  A    between atoms: N_4  and  C_5
REMARK    3  A    between atoms: N_10  and  C_11
REMARK    4  A    between atoms: C_14  and  S_15
REMARK    5  A    between atoms: S_15  and  N_18
REMARK    6  A    between atoms: N_18  and  C_19
REMARK    7  A    between atoms: C_19  and  C_20
REMARK    8  A    between atoms: C_20  and  N_21
REMARK                            x       y       z     vdW  Elec       q    Type
REMARK                         _______ _______ _______ _____ _____    ______ ____
ROOT
ATOM      1  C   UNL     1       3.093   6.797  18.882  0.00  0.00    +0.000 A 
ATOM      2  C   UNL     1       3.795   7.551  17.934  0.00  0.00    +0.000 A 
ATOM      3  C   UNL     1       4.662   6.946  17.021  0.00  0.00    +0.000 A 
ATOM      4  C   UNL     1       4.823   5.562  17.035  0.00  0.00    +0.000 A 
ATOM      5  C   UNL     1       4.120   4.780  17.954  0.00  0.00    +0.000 A 
ATOM      6  C   UNL     1       3.266   5.401  18.872  0.00  0.00    +0.000 A 
ENDROOT
BRANCH   1  16
ATOM      7  C   UNL     1      -0.937  10.258  23.178  0.00  0.00    +0.000 C 
ATOM      8  C   UNL     1      -0.705  10.664  21.773  0.00  0.00    +0.000 A 
ATOM      9  N   UNL     1      -1.264  11.775  21.260  0.00  0.00    +0.000 NA
ATOM     10  N   UNL     1      -0.811  11.793  19.979  0.00  0.00    +0.000 N 
ATOM     11  C   UNL     1      -1.224  12.837  19.075  0.00  0.00    +0.000 C 
ATOM     12  C   UNL     1       0.014  10.749  19.684  0.00  0.00    +0.000 A 
ATOM     13  N   UNL     1       0.654  10.452  18.546  0.00  0.00    +0.000 NA
ATOM     14  N   UNL     1       1.381   9.324  18.608  0.00  0.00    +0.000 NA
ATOM     15  C   UNL     1       1.450   8.560  19.737  0.00  0.00    +0.000 A 
ATOM     16  N   UNL     1       2.166   7.361  19.762  0.00  0.00    +0.000 N 
ATOM     17  N   UNL     1       0.817   8.848  20.889  0.00  0.00    +0.000 NA
ATOM     18  C   UNL     1       0.092   9.986  20.827  0.00  0.00    +0.000 A 
ATOM     19  H   UNL     1       2.014   6.888  20.641  0.00  0.00    +0.000 HD
ENDBRANCH   1  16
BRANCH   4  20
ATOM     20  S   UNL     1       5.848   4.793  15.810  0.00  0.00    +0.000 S 
ATOM     21  O   UNL     1       5.595   3.369  15.868  0.00  0.00    +0.000 OA
ATOM     22  O   UNL     1       5.741   5.537  14.575  0.00  0.00    +0.000 OA
BRANCH  20  23
ATOM     23  N   UNL     1       7.409   5.012  16.416  0.00  0.00    +0.000 NA
ATOM     24  H   UNL     1       7.714   5.960  16.197  0.00  0.00    +0.000 HD
BRANCH  23  25
ATOM     25  C   UNL     1       7.649   4.593  17.812  0.00  0.00    +0.000 C 
BRANCH  25  26
ATOM     26  C   UNL     1       7.829   5.829  18.713  0.00  0.00    +0.000 C 
BRANCH  26  27
ATOM     27  N   UNL     1       7.857   5.490  20.140  0.00  0.00    +0.000 NA
ATOM     28  H   UNL     1       7.259   6.133  20.656  0.00  0.00    +0.000 HD
ATOM     29  H   UNL     1       8.799   5.650  20.500  0.00  0.00    +0.000 HD
ENDBRANCH  26  27
ENDBRANCH  25  26
ENDBRANCH  23  25
ENDBRANCH  20  23
ENDBRANCH   4  20
TORSDOF 6
ENDMDL
MODEL 7
REMARK VINA RESULT:      -7.4      1.489      1.918
REMARK  Name = 
REMARK  8 active torsions:
REMARK  status: ('A' for Active; 'I' for Inactive)
REMARK    1  A    between atoms: C_1  and  C_2
REMARK    2  A    between atoms: N_4  and  C_5
REMARK    3  A    between atoms: N_10  and  C_11
REMARK    4  A    between atoms: C_14  and  S_15
REMARK    5  A    between atoms: S_15  and  N_18
REMARK    6  A    between atoms: N_18  and  C_19
REMARK    7  A    between atoms: C_19  and  C_20
REMARK    8  A    between atoms: C_20  and  N_21
REMARK                            x       y       z     vdW  Elec       q    Type
REMARK                         _______ _______ _______ _____ _____    ______ ____
ROOT
ATOM      1  C   UNL     1       2.215   7.190  19.692  0.00  0.00    +0.000 A 
ATOM      2  C   UNL     1       2.745   7.487  18.431  0.00  0.00    +0.000 A 
ATOM      3  C   UNL     1       3.565   6.580  17.756  0.00  0.00    +0.000 A 
ATOM      4  C   UNL     1       3.853   5.346  18.334  0.00  0.00    +0.000 A 
ATOM      5  C   UNL     1       3.322   5.012  19.581  0.00  0.00    +0.000 A 
ATOM      6  C   UNL     1       2.513   5.936  20.253  0.00  0.00    +0.000 A 
ENDROOT
BRANCH   1  16
ATOM      7  C   UNL     1      -1.425  11.913  23.027  0.00  0.00    +0.000 C 
ATOM      8  C   UNL     1      -0.865  12.123  21.673  0.00  0.00    +0.000 A 
ATOM      9  N   UNL     1      -1.022  13.289  21.019  0.00  0.00    +0.000 NA
ATOM     10  N   UNL     1      -0.373  13.079  19.843  0.00  0.00    +0.000 N 
ATOM     11  C   UNL     1      -0.344  14.110  18.835  0.00  0.00    +0.000 C 
ATOM     12  C   UNL     1       0.187  11.841  19.749  0.00  0.00    +0.000 A 
ATOM     13  N   UNL     1       0.907  11.295  18.760  0.00  0.00    +0.000 NA
ATOM     14  N   UNL     1       1.293  10.031  19.002  0.00  0.00    +0.000 NA
ATOM     15  C   UNL     1       0.972   9.377  20.156  0.00  0.00    +0.000 A 
ATOM     16  N   UNL     1       1.335   8.043  20.363  0.00  0.00    +0.000 N 
ATOM     17  N   UNL     1       0.254   9.914  21.160  0.00  0.00    +0.000 NA
ATOM     18  C   UNL     1      -0.127  11.186  20.918  0.00  0.00    +0.000 A 
ATOM     19  H   UNL     1       0.921   7.703  21.219  0.00  0.00    +0.000 HD
ENDBRANCH   1  16
BRANCH   4  20
ATOM     20  S   UNL     1       4.814   4.163  17.429  0.00  0.00    +0.000 S 
ATOM     21  O   UNL     1       4.156   2.881  17.561  0.00  0.00    +0.000 OA
ATOM     22  O   UNL     1       5.145   4.720  16.136  0.00  0.00    +0.000 OA
BRANCH  20  23
ATOM     23  N   UNL     1       6.239   4.050  18.326  0.00  0.00    +0.000 NA
ATOM     24  H   UNL     1       6.446   3.064  18.487  0.00  0.00    +0.000 HD
BRANCH  23  25
ATOM     25  C   UNL     1       7.388   4.853  17.861  0.00  0.00    +0.000 C 
BRANCH  25  26
ATOM     26  C   UNL     1       7.723   5.946  18.893  0.00  0.00    +0.000 C 
BRANCH  26  27
ATOM     27  N   UNL     1       7.809   5.426  20.262  0.00  0.00    +0.000 NA
ATOM     28  H   UNL     1       8.758   5.542  20.613  0.00  0.00    +0.000 HD
ATOM     29  H   UNL     1       7.650   4.418  20.243  0.00  0.00    +0.000 HD
ENDBRANCH  26  27
ENDBRANCH  25  26
ENDBRANCH  23  25
ENDBRANCH  20  23
ENDBRANCH   4  20
TORSDOF 6
ENDMDL
MODEL 8
REMARK VINA RESULT:      -7.4      1.170      2.226
REMARK  Name = 
REMARK  8 active torsions:
REMARK  status: ('A' for Active; 'I' for Inactive)
REMARK    1  A    between atoms: C_1  and  C_2
REMARK    2  A    between atoms: N_4  and  C_5
REMARK    3  A    between atoms: N_10  and  C_11
REMARK    4  A    between atoms: C_14  and  S_15
REMARK    5  A    between atoms: S_15  and  N_18
REMARK    6  A    between atoms: N_18  and  C_19
REMARK    7  A    between atoms: C_19  and  C_20
REMARK    8  A    between atoms: C_20  and  N_21
REMARK                            x       y       z     vdW  Elec       q    Type
REMARK                         _______ _______ _______ _____ _____    ______ ____
ROOT
ATOM      1  C   UNL     1       2.823   7.791  17.754  0.00  0.00    +0.000 A 
ATOM      2  C   UNL     1       2.311   6.582  18.240  0.00  0.00    +0.000 A 
ATOM      3  C   UNL     1       2.978   5.373  18.028  0.00  0.00    +0.000 A 
ATOM      4  C   UNL     1       4.187   5.363  17.336  0.00  0.00    +0.000 A 
ATOM      5  C   UNL     1       4.734   6.555  16.858  0.00  0.00    +0.000 A 
ATOM      6  C   UNL     1       4.048   7.757  17.065  0.00  0.00    +0.000 A 
ENDROOT
BRANCH   1  16
ATOM      7  C   UNL     1      -0.870  13.386  19.067  0.00  0.00    +0.000 C 
ATOM      8  C   UNL     1      -0.684  12.287  20.041  0.00  0.00    +0.000 A 
ATOM      9  N   UNL     1      -1.264  12.315  21.255  0.00  0.00    +0.000 NA
ATOM     10  N   UNL     1      -0.857  11.151  21.825  0.00  0.00    +0.000 N 
ATOM     11  C   UNL     1      -1.253  10.822  23.172  0.00  0.00    +0.000 C 
ATOM     12  C   UNL     1      -0.063  10.400  21.011  0.00  0.00    +0.000 A 
ATOM     13  N   UNL     1       0.501   9.204  21.224  0.00  0.00    +0.000 NA
ATOM     14  N   UNL     1       1.243   8.761  20.194  0.00  0.00    +0.000 NA
ATOM     15  C   UNL     1       1.397   9.478  19.043  0.00  0.00    +0.000 A 
ATOM     16  N   UNL     1       2.219   9.025  18.008  0.00  0.00    +0.000 N 
ATOM     17  N   UNL     1       0.833  10.678  18.813  0.00  0.00    +0.000 NA
ATOM     18  C   UNL     1       0.083  11.118  19.847  0.00  0.00    +0.000 A 
ATOM     19  H   UNL     1       2.291   9.733  17.292  0.00  0.00    +0.000 HD
ENDBRANCH   1  16
BRANCH   4  20
ATOM     20  S   UNL     1       5.075   3.840  17.157  0.00  0.00    +0.000 S 
ATOM     21  O   UNL     1       4.165   2.768  17.500  0.00  0.00    +0.000 OA
ATOM     22  O   UNL     1       5.791   3.859  15.901  0.00  0.00    +0.000 OA
BRANCH  20  23
ATOM     23  N   UNL     1       6.211   3.902  18.404  0.00  0.00    +0.000 NA
ATOM     24  H   UNL     1       6.336   2.961  18.778  0.00  0.00    +0.000 HD
BRANCH  23  25
ATOM     25  C   UNL     1       7.467   4.628  18.128  0.00  0.00    +0.000 C 
BRANCH  25  26
ATOM     26  C   UNL     1       7.619   5.814  19.098  0.00  0.00    +0.000 C 
BRANCH  26  27
ATOM     27  N   UNL     1       8.238   5.429  20.372  0.00  0.00    +0.000 NA
ATOM     28  H   UNL     1       9.239   5.613  20.335  0.00  0.00    +0.000 HD
ATOM     29  H   UNL     1       8.154   4.418  20.489  0.00  0.00    +0.000 HD
ENDBRANCH  26  27
ENDBRANCH  25  26
ENDBRANCH  23  25
ENDBRANCH  20  23
ENDBRANCH   4  20
TORSDOF 6
ENDMDL
MODEL 9
REMARK VINA RESULT:      -7.2      1.847      2.202
REMARK  Name = 
REMARK  8 active torsions:
REMARK  status: ('A' for Active; 'I' for Inactive)
REMARK    1  A    between atoms: C_1  and  C_2
REMARK    2  A    between atoms: N_4  and  C_5
REMARK    3  A    between atoms: N_10  and  C_11
REMARK    4  A    between atoms: C_14  and  S_15
REMARK    5  A    between atoms: S_15  and  N_18
REMARK    6  A    between atoms: N_18  and  C_19
REMARK    7  A    between atoms: C_19  and  C_20
REMARK    8  A    between atoms: C_20  and  N_21
REMARK                            x       y       z     vdW  Elec       q    Type
REMARK                         _______ _______ _______ _____ _____    ______ ____
ROOT
ATOM      1  C   UNL     1       1.819   6.971  20.208  0.00  0.00    +0.000 A 
ATOM      2  C   UNL     1       1.919   5.670  20.717  0.00  0.00    +0.000 A 
ATOM      3  C   UNL     1       2.778   4.730  20.144  0.00  0.00    +0.000 A 
ATOM      4  C   UNL     1       3.570   5.091  19.055  0.00  0.00    +0.000 A 
ATOM      5  C   UNL     1       3.509   6.386  18.539  0.00  0.00    +0.000 A 
ATOM      6  C   UNL     1       2.633   7.314  19.114  0.00  0.00    +0.000 A 
ENDROOT
BRANCH   1  16
ATOM      7  C   UNL     1      -1.367  12.287  23.082  0.00  0.00    +0.000 C 
ATOM      8  C   UNL     1      -0.826  12.310  21.705  0.00  0.00    +0.000 A 
ATOM      9  N   UNL     1      -0.910  13.409  20.933  0.00  0.00    +0.000 NA
ATOM     10  N   UNL     1      -0.308  13.028  19.776  0.00  0.00    +0.000 N 
ATOM     11  C   UNL     1      -0.225  13.942  18.664  0.00  0.00    +0.000 C 
ATOM     12  C   UNL     1       0.154  11.747  19.805  0.00  0.00    +0.000 A 
ATOM     13  N   UNL     1       0.805  11.045  18.868  0.00  0.00    +0.000 NA
ATOM     14  N   UNL     1       1.100   9.787  19.236  0.00  0.00    +0.000 NA
ATOM     15  C   UNL     1       0.758   9.284  20.458  0.00  0.00    +0.000 A 
ATOM     16  N   UNL     1       1.024   7.956  20.799  0.00  0.00    +0.000 N 
ATOM     17  N   UNL     1       0.108   9.978  21.411  0.00  0.00    +0.000 NA
ATOM     18  C   UNL     1      -0.181  11.244  21.042  0.00  0.00    +0.000 A 
ATOM     19  H   UNL     1       0.607   7.740  21.693  0.00  0.00    +0.000 HD
ENDBRANCH   1  16
BRANCH   4  20
ATOM     20  S   UNL     1       4.729   3.922  18.397  0.00  0.00    +0.000 S 
ATOM     21  O   UNL     1       5.468   3.373  19.514  0.00  0.00    +0.000 OA
ATOM     22  O   UNL     1       4.049   3.075  17.443  0.00  0.00    +0.000 OA
BRANCH  20  23
ATOM     23  N   UNL     1       5.820   4.890  17.549  0.00  0.00    +0.000 NA
ATOM     24  H   UNL     1       5.499   5.857  17.590  0.00  0.00    +0.000 HD
BRANCH  23  25
ATOM     25  C   UNL     1       7.254   4.704  17.850  0.00  0.00    +0.000 C 
BRANCH  25  26
ATOM     26  C   UNL     1       7.758   5.840  18.759  0.00  0.00    +0.000 C 
BRANCH  26  27
ATOM     27  N   UNL     1       7.775   5.466  20.177  0.00  0.00    +0.000 NA
ATOM     28  H   UNL     1       8.250   4.573  20.290  0.00  0.00    +0.000 HD
ATOM     29  H   UNL     1       6.816   5.302  20.488  0.00  0.00    +0.000 HD
ENDBRANCH  26  27
ENDBRANCH  25  26
ENDBRANCH  23  25
ENDBRANCH  20  23
ENDBRANCH   4  20
TORSDOF 6
ENDMDL
