MODEL 1
REMARK VINA RESULT:      -7.8      0.000      0.000
REMARK  Name = 
REMARK  8 active torsions:
REMARK  status: ('A' for Active; 'I' for Inactive)
REMARK    1  A    between atoms: C_1  and  N_2
REMARK    2  A    between atoms: N_2  and  C_24
REMARK    3  A    between atoms: C_3  and  C_5
REMARK    4  A    between atoms: C_5  and  C_6
REMARK    5  A    between atoms: C_6  and  O_7
REMARK    6  A    between atoms: N_10  and  C_11
REMARK    7  A    between atoms: C_11  and  C_12
REMARK    8  A    between atoms: C_12  and  C_13
REMARK                            x       y       z     vdW  Elec       q    Type
REMARK                         _______ _______ _______ _____ _____    ______ ____
ROOT
ATOM      1  C   UNL     1       2.278   3.970  18.456  0.00  0.00    +0.000 C 
ATOM      2  C   UNL     1       1.867   3.850  19.947  0.00  0.00    +0.000 C 
ATOM      3  C   UNL     1       1.174   5.087  20.481  0.00  0.00    +0.000 C 
ATOM      4  N   UNL     1       1.987   6.256  20.153  0.00  0.00    +0.000 NA
ATOM      5  C   UNL     1       1.872   6.499  18.710  0.00  0.00    +0.000 C 
ATOM      6  C   UNL     1       2.636   5.401  17.991  0.00  0.00    +0.000 C 
ENDROOT
BRANCH   1   7
ATOM      7  C   UNL     1       3.472   3.045  18.058  0.00  0.00    +0.000 C 
ATOM      8  C   UNL     1       3.328   1.532  17.856  0.00  0.00    +0.000 C 
ATOM      9  C   UNL     1       3.864   2.015  19.162  0.00  0.00    +0.000 C 
BRANCH   7  12
ATOM     10  C   UNL     1       5.343   4.866  19.619  0.00  0.00    +0.000 C 
ATOM     11  N   UNL     1       5.578   4.492  18.233  0.00  0.00    +0.000 N 
ATOM     12  C   UNL     1       4.705   3.718  17.456  0.00  0.00    +0.000 C 
ATOM     13  O   UNL     1       4.904   3.551  16.252  0.00  0.00    +0.000 OA
BRANCH  11  14
ATOM     14  C   UNL     1       6.779   4.988  17.533  0.00  0.00    +0.000 C 
ATOM     15  C   UNL     1       6.394   6.072  16.511  0.00  0.00    +0.000 C 
ATOM     16  C   UNL     1       6.384   7.471  17.113  0.00  0.00    +0.000 C 
ATOM     17  C   UNL     1       7.759   7.791  17.670  0.00  0.00    +0.000 C 
ATOM     18  C   UNL     1       8.137   6.833  18.792  0.00  0.00    +0.000 C 
ATOM     19  C   UNL     1       7.987   5.358  18.419  0.00  0.00    +0.000 C 
ENDBRANCH  11  14
ENDBRANCH   7  12
ENDBRANCH   1   7
BRANCH   1  20
ATOM     20  O   UNL     1       1.091   3.604  17.729  0.00  0.00    +0.000 OA
ATOM     21  H   UNL     1       0.541   4.400  17.642  0.00  0.00    +0.000 HD
ENDBRANCH   1  20
BRANCH   4  22
ATOM     22  C   UNL     1       1.614   7.442  20.927  0.00  0.00    +0.000 C 
BRANCH  22  23
ATOM     23  C   UNL     1       1.365   8.639  19.992  0.00  0.00    +0.000 C 
BRANCH  23  24
ATOM     24  C   UNL     1       0.460   9.662  20.618  0.00  0.00    +0.000 A 
ATOM     25  C   UNL     1       0.496   9.828  22.012  0.00  0.00    +0.000 A 
ATOM     26  C   UNL     1      -0.340  10.750  22.638  0.00  0.00    +0.000 A 
ATOM     27  C   UNL     1      -1.220  11.520  21.881  0.00  0.00    +0.000 A 
ATOM     28  C   UNL     1      -1.259  11.376  20.495  0.00  0.00    +0.000 A 
ATOM     29  C   UNL     1      -0.418  10.457  19.862  0.00  0.00    +0.000 A 
ATOM     30 CL   UNL     1      -0.508  10.343  18.139  0.00  0.00    +0.000 Cl
ENDBRANCH  23  24
ENDBRANCH  22  23
ENDBRANCH   4  22
TORSDOF 7
ENDMDL
MODEL 2
REMARK VINA RESULT:      -7.8      1.129      1.459
REMARK  Name = 
REMARK  8 active torsions:
REMARK  status: ('A' for Active; 'I' for Inactive)
REMARK    1  A    between atoms: C_1  and  N_2
REMARK    2  A    between atoms: N_2  and  C_24
REMARK    3  A    between atoms: C_3  and  C_5
REMARK    4  A    between atoms: C_5  and  C_6
REMARK    5  A    between atoms: C_6  and  O_7
REMARK    6  A    between atoms: N_10  and  C_11
REMARK    7  A    between atoms: C_11  and  C_12
REMARK    8  A    between atoms: C_12  and  C_13
REMARK                            x       y       z     vdW  Elec       q    Type
REMARK                         _______ _______ _______ _____ _____    ______ ____
ROOT
ATOM      1  C   UNL     1       2.153   4.359  18.384  0.00  0.00    +0.000 C 
ATOM      2  C   UNL     1       1.815   4.330  19.898  0.00  0.00    +0.000 C 
ATOM      3  C   UNL     1       1.240   5.636  20.410  0.00  0.00    +0.000 C 
ATOM      4  N   UNL     1       2.115   6.728  19.989  0.00  0.00    +0.000 NA
ATOM      5  C   UNL     1       1.941   6.919  18.544  0.00  0.00    +0.000 C 
ATOM      6  C   UNL     1       2.586   5.740  17.838  0.00  0.00    +0.000 C 
ENDROOT
BRANCH   1   7
ATOM      7  C   UNL     1       3.256   3.334  17.969  0.00  0.00    +0.000 C 
ATOM      8  C   UNL     1       2.966   1.851  17.707  0.00  0.00    +0.000 C 
ATOM      9  C   UNL     1       3.524   2.231  19.038  0.00  0.00    +0.000 C 
BRANCH   7  12
ATOM     10  C   UNL     1       5.254   4.930  19.613  0.00  0.00    +0.000 C 
ATOM     11  N   UNL     1       5.484   4.570  18.223  0.00  0.00    +0.000 N 
ATOM     12  C   UNL     1       4.559   3.902  17.409  0.00  0.00    +0.000 C 
ATOM     13  O   UNL     1       4.769   3.746  16.205  0.00  0.00    +0.000 OA
BRANCH  11  14
ATOM     14  C   UNL     1       6.742   4.966  17.561  0.00  0.00    +0.000 C 
ATOM     15  C   UNL     1       6.476   6.069  16.521  0.00  0.00    +0.000 C 
ATOM     16  C   UNL     1       6.554   7.469  17.116  0.00  0.00    +0.000 C 
ATOM     17  C   UNL     1       7.931   7.686  17.716  0.00  0.00    +0.000 C 
ATOM     18  C   UNL     1       8.197   6.710  18.855  0.00  0.00    +0.000 C 
ATOM     19  C   UNL     1       7.946   5.248  18.484  0.00  0.00    +0.000 C 
ENDBRANCH  11  14
ENDBRANCH   7  12
ENDBRANCH   1   7
BRANCH   1  20
ATOM     20  O   UNL     1       0.906   4.050  17.735  0.00  0.00    +0.000 OA
ATOM     21  H   UNL     1       0.241   3.906  18.429  0.00  0.00    +0.000 HD
ENDBRANCH   1  20
BRANCH   4  22
ATOM     22  C   UNL     1       1.869   7.969  20.728  0.00  0.00    +0.000 C 
BRANCH  22  23
ATOM     23  C   UNL     1       0.363   8.148  20.991  0.00  0.00    +0.000 C 
BRANCH  23  24
ATOM     24  C   UNL     1      -0.094   9.551  20.707  0.00  0.00    +0.000 A 
ATOM     25  C   UNL     1      -0.105   9.998  19.375  0.00  0.00    +0.000 A 
ATOM     26  C   UNL     1      -0.501  11.297  19.067  0.00  0.00    +0.000 A 
ATOM     27  C   UNL     1      -0.893  12.166  20.082  0.00  0.00    +0.000 A 
ATOM     28  C   UNL     1      -0.899  11.734  21.407  0.00  0.00    +0.000 A 
ATOM     29  C   UNL     1      -0.509  10.431  21.721  0.00  0.00    +0.000 A 
ATOM     30 CL   UNL     1      -0.556   9.958  23.383  0.00  0.00    +0.000 Cl
ENDBRANCH  23  24
ENDBRANCH  22  23
ENDBRANCH   4  22
TORSDOF 7
ENDMDL
MODEL 3
REMARK VINA RESULT:      -7.7      3.981      7.165
REMARK  Name = 
REMARK  8 active torsions:
REMARK  status: ('A' for Active; 'I' for Inactive)
REMARK    1  A    between atoms: C_1  and  N_2
REMARK    2  A    between atoms: N_2  and  C_24
REMARK    3  A    between atoms: C_3  and  C_5
REMARK    4  A    between atoms: C_5  and  C_6
REMARK    5  A    between atoms: C_6  and  O_7
REMARK    6  A    between atoms: N_10  and  C_11
REMARK    7  A    between atoms: C_11  and  C_12
REMARK    8  A    between atoms: C_12  and  C_13
REMARK                            x       y       z     vdW  Elec       q    Type
REMARK                         _______ _______ _______ _____ _____    ______ ____
ROOT
ATOM      1  C   UNL     1       6.927   5.123  16.887  0.00  0.00    +0.000 C 
ATOM      2  C   UNL     1       7.201   6.451  16.131  0.00  0.00    +0.000 C 
ATOM      3  C   UNL     1       8.171   7.364  16.853  0.00  0.00    +0.000 C 
ATOM      4  N   UNL     1       7.726   7.517  18.237  0.00  0.00    +0.000 NA
ATOM      5  C   UNL     1       7.989   6.255  18.940  0.00  0.00    +0.000 C 
ATOM      6  C   UNL     1       7.000   5.223  18.428  0.00  0.00    +0.000 C 
ENDROOT
BRANCH   1   7
ATOM      7  C   UNL     1       5.553   4.472  16.531  0.00  0.00    +0.000 C 
ATOM      8  C   UNL     1       5.424   3.185  15.708  0.00  0.00    +0.000 C 
ATOM      9  C   UNL     1       5.225   4.488  15.007  0.00  0.00    +0.000 C 
BRANCH   7  12
ATOM     10  C   UNL     1       3.942   2.557  18.259  0.00  0.00    +0.000 C 
ATOM     11  N   UNL     1       3.679   3.986  18.208  0.00  0.00    +0.000 N 
ATOM     12  C   UNL     1       4.347   4.891  17.370  0.00  0.00    +0.000 C 
ATOM     13  O   UNL     1       3.982   6.065  17.284  0.00  0.00    +0.000 OA
BRANCH  11  14
ATOM     14  C   UNL     1       2.601   4.564  19.034  0.00  0.00    +0.000 C 
ATOM     15  C   UNL     1       1.247   3.933  18.666  0.00  0.00    +0.000 C 
ATOM     16  C   UNL     1       0.947   2.675  19.470  0.00  0.00    +0.000 C 
ATOM     17  C   UNL     1       0.944   3.010  20.951  0.00  0.00    +0.000 C 
ATOM     18  C   UNL     1       2.309   3.508  21.407  0.00  0.00    +0.000 C 
ATOM     19  C   UNL     1       2.867   4.646  20.552  0.00  0.00    +0.000 C 
ENDBRANCH  11  14
ENDBRANCH   7  12
ENDBRANCH   1   7
BRANCH   1  20
ATOM     20  O   UNL     1       8.012   4.262  16.494  0.00  0.00    +0.000 OA
ATOM     21  H   UNL     1       7.830   3.377  16.852  0.00  0.00    +0.000 HD
ENDBRANCH   1  20
BRANCH   4  22
ATOM     22  C   UNL     1       8.360   8.650  18.915  0.00  0.00    +0.000 C 
BRANCH  22  23
ATOM     23  C   UNL     1       8.442   9.863  17.971  0.00  0.00    +0.000 C 
BRANCH  23  24
ATOM     24  C   UNL     1       9.161  11.021  18.605  0.00  0.00    +0.000 A 
ATOM     25  C   UNL     1      10.124  10.755  19.593  0.00  0.00    +0.000 A 
ATOM     26  C   UNL     1      10.799  11.798  20.223  0.00  0.00    +0.000 A 
ATOM     27  C   UNL     1      10.524  13.118  19.874  0.00  0.00    +0.000 A 
ATOM     28  C   UNL     1       9.581  13.398  18.888  0.00  0.00    +0.000 A 
ATOM     29  C   UNL     1       8.905  12.356  18.249  0.00  0.00    +0.000 A 
ATOM     30 CL   UNL     1       7.760  12.776  17.023  0.00  0.00    +0.000 Cl
ENDBRANCH  23  24
ENDBRANCH  22  23
ENDBRANCH   4  22
TORSDOF 7
ENDMDL
MODEL 4
REMARK VINA RESULT:      -7.6      1.007      1.247
REMARK  Name = 
REMARK  8 active torsions:
REMARK  status: ('A' for Active; 'I' for Inactive)
REMARK    1  A    between atoms: C_1  and  N_2
REMARK    2  A    between atoms: N_2  and  C_24
REMARK    3  A    between atoms: C_3  and  C_5
REMARK    4  A    between atoms: C_5  and  C_6
REMARK    5  A    between atoms: C_6  and  O_7
REMARK    6  A    between atoms: N_10  and  C_11
REMARK    7  A    between atoms: C_11  and  C_12
REMARK    8  A    between atoms: C_12  and  C_13
REMARK                            x       y       z     vdW  Elec       q    Type
REMARK                         _______ _______ _______ _____ _____    ______ ____
ROOT
ATOM      1  C   UNL     1       2.612   4.416  18.491  0.00  0.00    +0.000 C 
ATOM      2  C   UNL     1       1.882   4.377  19.861  0.00  0.00    +0.000 C 
ATOM      3  C   UNL     1       1.245   5.699  20.240  0.00  0.00    +0.000 C 
ATOM      4  N   UNL     1       2.244   6.756  20.097  0.00  0.00    +0.000 NA
ATOM      5  C   UNL     1       2.467   6.980  18.664  0.00  0.00    +0.000 C 
ATOM      6  C   UNL     1       3.229   5.784  18.120  0.00  0.00    +0.000 C 
ENDROOT
BRANCH   1   7
ATOM      7  C   UNL     1       3.743   3.348  18.353  0.00  0.00    +0.000 C 
ATOM      8  C   UNL     1       3.472   1.881  18.000  0.00  0.00    +0.000 C 
ATOM      9  C   UNL     1       3.685   2.227  19.436  0.00  0.00    +0.000 C 
BRANCH   7  12
ATOM     10  C   UNL     1       5.004   3.842  15.631  0.00  0.00    +0.000 C 
ATOM     11  N   UNL     1       5.681   4.145  16.882  0.00  0.00    +0.000 N 
ATOM     12  C   UNL     1       5.167   3.864  18.155  0.00  0.00    +0.000 C 
ATOM     13  O   UNL     1       5.852   4.028  19.167  0.00  0.00    +0.000 OA
BRANCH  11  14
ATOM     14  C   UNL     1       7.033   4.737  16.859  0.00  0.00    +0.000 C 
ATOM     15  C   UNL     1       6.998   6.132  16.212  0.00  0.00    +0.000 C 
ATOM     16  C   UNL     1       6.722   7.241  17.220  0.00  0.00    +0.000 C 
ATOM     17  C   UNL     1       7.796   7.227  18.293  0.00  0.00    +0.000 C 
ATOM     18  C   UNL     1       7.785   5.916  19.067  0.00  0.00    +0.000 C 
ATOM     19  C   UNL     1       7.832   4.673  18.178  0.00  0.00    +0.000 C 
ENDBRANCH  11  14
ENDBRANCH   7  12
ENDBRANCH   1   7
BRANCH   1  20
ATOM     20  O   UNL     1       1.570   4.176  17.528  0.00  0.00    +0.000 OA
ATOM     21  H   UNL     1       1.325   3.238  17.585  0.00  0.00    +0.000 HD
ENDBRANCH   1  20
BRANCH   4  22
ATOM     22  C   UNL     1       1.861   7.994  20.780  0.00  0.00    +0.000 C 
BRANCH  22  23
ATOM     23  C   UNL     1       0.376   7.948  21.183  0.00  0.00    +0.000 C 
BRANCH  23  24
ATOM     24  C   UNL     1      -0.169   9.317  21.479  0.00  0.00    +0.000 A 
ATOM     25  C   UNL     1      -0.497   9.637  22.808  0.00  0.00    +0.000 A 
ATOM     26  C   UNL     1      -1.025  10.886  23.126  0.00  0.00    +0.000 A 
ATOM     27  C   UNL     1      -1.230  11.832  22.125  0.00  0.00    +0.000 A 
ATOM     28  C   UNL     1      -0.899  11.534  20.805  0.00  0.00    +0.000 A 
ATOM     29  C   UNL     1      -0.363  10.286  20.481  0.00  0.00    +0.000 A 
ATOM     30 CL   UNL     1       0.040   9.992  18.825  0.00  0.00    +0.000 Cl
ENDBRANCH  23  24
ENDBRANCH  22  23
ENDBRANCH   4  22
TORSDOF 7
ENDMDL
MODEL 5
REMARK VINA RESULT:      -7.5      4.087      7.574
REMARK  Name = 
REMARK  8 active torsions:
REMARK  status: ('A' for Active; 'I' for Inactive)
REMARK    1  A    between atoms: C_1  and  N_2
REMARK    2  A    between atoms: N_2  and  C_24
REMARK    3  A    between atoms: C_3  and  C_5
REMARK    4  A    between atoms: C_5  and  C_6
REMARK    5  A    between atoms: C_6  and  O_7
REMARK    6  A    between atoms: N_10  and  C_11
REMARK    7  A    between atoms: C_11  and  C_12
REMARK    8  A    between atoms: C_12  and  C_13
REMARK                            x       y       z     vdW  Elec       q    Type
REMARK                         _______ _______ _______ _____ _____    ______ ____
ROOT
ATOM      1  C   UNL     1       6.928   5.364  16.923  0.00  0.00    +0.000 C 
ATOM      2  C   UNL     1       7.234   6.741  16.277  0.00  0.00    +0.000 C 
ATOM      3  C   UNL     1       8.258   7.551  17.046  0.00  0.00    +0.000 C 
ATOM      4  N   UNL     1       7.856   7.599  18.450  0.00  0.00    +0.000 NA
ATOM      5  C   UNL     1       8.087   6.272  19.033  0.00  0.00    +0.000 C 
ATOM      6  C   UNL     1       7.045   5.326  18.464  0.00  0.00    +0.000 C 
ENDROOT
BRANCH   1   7
ATOM      7  C   UNL     1       5.520   4.797  16.554  0.00  0.00    +0.000 C 
ATOM      8  C   UNL     1       5.317   3.615  15.599  0.00  0.00    +0.000 C 
ATOM      9  C   UNL     1       5.137   4.993  15.055  0.00  0.00    +0.000 C 
BRANCH   7  12
ATOM     10  C   UNL     1       4.171   2.816  18.425  0.00  0.00    +0.000 C 
ATOM     11  N   UNL     1       3.818   4.226  18.380  0.00  0.00    +0.000 N 
ATOM     12  C   UNL     1       4.360   5.156  17.481  0.00  0.00    +0.000 C 
ATOM     13  O   UNL     1       3.919   6.304  17.411  0.00  0.00    +0.000 OA
BRANCH  11  14
ATOM     14  C   UNL     1       2.775   4.751  19.282  0.00  0.00    +0.000 C 
ATOM     15  C   UNL     1       1.378   4.336  18.787  0.00  0.00    +0.000 C 
ATOM     16  C   UNL     1       0.933   2.990  19.343  0.00  0.00    +0.000 C 
ATOM     17  C   UNL     1       0.915   3.051  20.861  0.00  0.00    +0.000 C 
ATOM     18  C   UNL     1       2.307   3.319  21.418  0.00  0.00    +0.000 C 
ATOM     19  C   UNL     1       2.999   4.530  20.793  0.00  0.00    +0.000 C 
ENDBRANCH  11  14
ENDBRANCH   7  12
ENDBRANCH   1   7
BRANCH   1  20
ATOM     20  O   UNL     1       7.967   4.500  16.426  0.00  0.00    +0.000 OA
ATOM     21  H   UNL     1       8.598   4.351  17.150  0.00  0.00    +0.000 HD
ENDBRANCH   1  20
BRANCH   4  22
ATOM     22  C   UNL     1       8.552   8.645  19.204  0.00  0.00    +0.000 C 
BRANCH  22  23
ATOM     23  C   UNL     1       8.514   9.977  18.435  0.00  0.00    +0.000 C 
BRANCH  23  24
ATOM     24  C   UNL     1       9.693  10.849  18.763  0.00  0.00    +0.000 A 
ATOM     25  C   UNL     1      10.593  11.176  17.735  0.00  0.00    +0.000 A 
ATOM     26  C   UNL     1      11.712  11.963  17.997  0.00  0.00    +0.000 A 
ATOM     27  C   UNL     1      11.946  12.437  19.286  0.00  0.00    +0.000 A 
ATOM     28  C   UNL     1      11.056  12.131  20.313  0.00  0.00    +0.000 A 
ATOM     29  C   UNL     1       9.929  11.347  20.055  0.00  0.00    +0.000 A 
ATOM     30 CL   UNL     1       8.860  11.021  21.374  0.00  0.00    +0.000 Cl
ENDBRANCH  23  24
ENDBRANCH  22  23
ENDBRANCH   4  22
TORSDOF 7
ENDMDL
MODEL 6
REMARK VINA RESULT:      -7.5      3.767      9.574
REMARK  Name = 
REMARK  8 active torsions:
REMARK  status: ('A' for Active; 'I' for Inactive)
REMARK    1  A    between atoms: C_1  and  N_2
REMARK    2  A    between atoms: N_2  and  C_24
REMARK    3  A    between atoms: C_3  and  C_5
REMARK    4  A    between atoms: C_5  and  C_6
REMARK    5  A    between atoms: C_6  and  O_7
REMARK    6  A    between atoms: N_10  and  C_11
REMARK    7  A    between atoms: C_11  and  C_12
REMARK    8  A    between atoms: C_12  and  C_13
REMARK                            x       y       z     vdW  Elec       q    Type
REMARK                         _______ _______ _______ _____ _____    ______ ____
ROOT
ATOM      1  C   UNL     1       0.291  10.320  19.255  0.00  0.00    +0.000 C 
ATOM      2  C   UNL     1       1.161   9.892  18.043  0.00  0.00    +0.000 C 
ATOM      3  C   UNL     1       1.569   8.433  18.082  0.00  0.00    +0.000 C 
ATOM      4  N   UNL     1       2.145   8.144  19.393  0.00  0.00    +0.000 NA
ATOM      5  C   UNL     1       1.055   8.133  20.376  0.00  0.00    +0.000 C 
ATOM      6  C   UNL     1       0.590   9.565  20.571  0.00  0.00    +0.000 C 
ENDROOT
BRANCH   1   7
ATOM      7  C   UNL     1       0.367  11.847  19.573  0.00  0.00    +0.000 C 
ATOM      8  C   UNL     1       0.401  12.929  18.487  0.00  0.00    +0.000 C 
ATOM      9  C   UNL     1       1.695  12.521  19.108  0.00  0.00    +0.000 C 
BRANCH   7  12
ATOM     10  C   UNL     1      -2.468  12.557  20.411  0.00  0.00    +0.000 C 
ATOM     11  N   UNL     1      -1.352  12.532  21.343  0.00  0.00    +0.000 N 
ATOM     12  C   UNL     1      -0.019  12.284  20.985  0.00  0.00    +0.000 C 
ATOM     13  O   UNL     1       0.892  12.409  21.805  0.00  0.00    +0.000 OA
BRANCH  11  14
ATOM     14  C   UNL     1      -1.579  12.842  22.768  0.00  0.00    +0.000 C 
ATOM     15  C   UNL     1      -1.620  14.365  22.985  0.00  0.00    +0.000 C 
ATOM     16  C   UNL     1      -3.018  14.945  22.819  0.00  0.00    +0.000 C 
ATOM     17  C   UNL     1      -3.960  14.285  23.810  0.00  0.00    +0.000 C 
ATOM     18  C   UNL     1      -4.072  12.788  23.551  0.00  0.00    +0.000 C 
ATOM     19  C   UNL     1      -2.722  12.075  23.465  0.00  0.00    +0.000 C 
ENDBRANCH  11  14
ENDBRANCH   7  12
ENDBRANCH   1   7
BRANCH   1  20
ATOM     20  O   UNL     1      -1.048   9.948  18.880  0.00  0.00    +0.000 OA
ATOM     21  H   UNL     1      -1.398   9.367  19.576  0.00  0.00    +0.000 HD
ENDBRANCH   1  20
BRANCH   4  22
ATOM     22  C   UNL     1       2.902   6.890  19.417  0.00  0.00    +0.000 C 
BRANCH  22  23
ATOM     23  C   UNL     1       2.067   5.771  20.065  0.00  0.00    +0.000 C 
BRANCH  23  24
ATOM     24  C   UNL     1       2.170   4.480  19.303  0.00  0.00    +0.000 A 
ATOM     25  C   UNL     1       2.478   4.530  17.934  0.00  0.00    +0.000 A 
ATOM     26  C   UNL     1       2.561   3.360  17.183  0.00  0.00    +0.000 A 
ATOM     27  C   UNL     1       2.342   2.125  17.789  0.00  0.00    +0.000 A 
ATOM     28  C   UNL     1       2.048   2.058  19.150  0.00  0.00    +0.000 A 
ATOM     29  C   UNL     1       1.969   3.228  19.908  0.00  0.00    +0.000 A 
ATOM     30 CL   UNL     1       1.615   3.068  21.593  0.00  0.00    +0.000 Cl
ENDBRANCH  23  24
ENDBRANCH  22  23
ENDBRANCH   4  22
TORSDOF 7
ENDMDL
MODEL 7
REMARK VINA RESULT:      -7.5      3.618      9.432
REMARK  Name = 
REMARK  8 active torsions:
REMARK  status: ('A' for Active; 'I' for Inactive)
REMARK    1  A    between atoms: C_1  and  N_2
REMARK    2  A    between atoms: N_2  and  C_24
REMARK    3  A    between atoms: C_3  and  C_5
REMARK    4  A    between atoms: C_5  and  C_6
REMARK    5  A    between atoms: C_6  and  O_7
REMARK    6  A    between atoms: N_10  and  C_11
REMARK    7  A    between atoms: C_11  and  C_12
REMARK    8  A    between atoms: C_12  and  C_13
REMARK                            x       y       z     vdW  Elec       q    Type
REMARK                         _______ _______ _______ _____ _____    ______ ____
ROOT
ATOM      1  C   UNL     1       0.702  10.676  18.736  0.00  0.00    +0.000 C 
ATOM      2  C   UNL     1       1.915  10.208  17.889  0.00  0.00    +0.000 C 
ATOM      3  C   UNL     1       2.114   8.706  17.903  0.00  0.00    +0.000 C 
ATOM      4  N   UNL     1       2.111   8.247  19.291  0.00  0.00    +0.000 NA
ATOM      5  C   UNL     1       0.734   8.330  19.793  0.00  0.00    +0.000 C 
ATOM      6  C   UNL     1       0.390   9.798  19.970  0.00  0.00    +0.000 C 
ENDROOT
BRANCH   1   7
ATOM      7  C   UNL     1       0.819  12.150  19.237  0.00  0.00    +0.000 C 
ATOM      8  C   UNL     1       0.819  13.359  18.294  0.00  0.00    +0.000 C 
ATOM      9  C   UNL     1       2.134  12.862  18.796  0.00  0.00    +0.000 C 
BRANCH   7  12
ATOM     10  C   UNL     1      -1.979  12.670  20.310  0.00  0.00    +0.000 C 
ATOM     11  N   UNL     1      -0.809  12.574  21.168  0.00  0.00    +0.000 N 
ATOM     12  C   UNL     1       0.506  12.412  20.710  0.00  0.00    +0.000 C 
ATOM     13  O   UNL     1       1.461  12.471  21.485  0.00  0.00    +0.000 OA
BRANCH  11  14
ATOM     14  C   UNL     1      -0.958  12.714  22.630  0.00  0.00    +0.000 C 
ATOM     15  C   UNL     1      -1.069  14.198  23.019  0.00  0.00    +0.000 C 
ATOM     16  C   UNL     1      -2.505  14.705  23.002  0.00  0.00    +0.000 C 
ATOM     17  C   UNL     1      -3.342  13.883  23.967  0.00  0.00    +0.000 C 
ATOM     18  C   UNL     1      -3.387  12.420  23.549  0.00  0.00    +0.000 C 
ATOM     19  C   UNL     1      -2.009  11.806  23.303  0.00  0.00    +0.000 C 
ENDBRANCH  11  14
ENDBRANCH   7  12
ENDBRANCH   1   7
BRANCH   1  20
ATOM     20  O   UNL     1      -0.425  10.531  17.852  0.00  0.00    +0.000 OA
ATOM     21  H   UNL     1      -0.541   9.582  17.675  0.00  0.00    +0.000 HD
ENDBRANCH   1  20
BRANCH   4  22
ATOM     22  C   UNL     1       2.658   6.897  19.444  0.00  0.00    +0.000 C 
BRANCH  22  23
ATOM     23  C   UNL     1       3.045   6.316  18.072  0.00  0.00    +0.000 C 
BRANCH  23  24
ATOM     24  C   UNL     1       2.827   4.831  18.009  0.00  0.00    +0.000 A 
ATOM     25  C   UNL     1       1.595   4.314  18.444  0.00  0.00    +0.000 A 
ATOM     26  C   UNL     1       1.356   2.942  18.423  0.00  0.00    +0.000 A 
ATOM     27  C   UNL     1       2.340   2.069  17.967  0.00  0.00    +0.000 A 
ATOM     28  C   UNL     1       3.562   2.567  17.520  0.00  0.00    +0.000 A 
ATOM     29  C   UNL     1       3.805   3.942  17.533  0.00  0.00    +0.000 A 
ATOM     30 CL   UNL     1       5.338   4.491  16.950  0.00  0.00    +0.000 Cl
ENDBRANCH  23  24
ENDBRANCH  22  23
ENDBRANCH   4  22
TORSDOF 7
ENDMDL
MODEL 8
REMARK VINA RESULT:      -7.4      1.396      1.774
REMARK  Name = 
REMARK  8 active torsions:
REMARK  status: ('A' for Active; 'I' for Inactive)
REMARK    1  A    between atoms: C_1  and  N_2
REMARK    2  A    between atoms: N_2  and  C_24
REMARK    3  A    between atoms: C_3  and  C_5
REMARK    4  A    between atoms: C_5  and  C_6
REMARK    5  A    between atoms: C_6  and  O_7
REMARK    6  A    between atoms: N_10  and  C_11
REMARK    7  A    between atoms: C_11  and  C_12
REMARK    8  A    between atoms: C_12  and  C_13
REMARK                            x       y       z     vdW  Elec       q    Type
REMARK                         _______ _______ _______ _____ _____    ______ ____
ROOT
ATOM      1  C   UNL     1       2.238   4.128  18.885  0.00  0.00    +0.000 C 
ATOM      2  C   UNL     1       2.266   4.625  20.355  0.00  0.00    +0.000 C 
ATOM      3  C   UNL     1       1.566   5.954  20.553  0.00  0.00    +0.000 C 
ATOM      4  N   UNL     1       2.077   6.903  19.566  0.00  0.00    +0.000 NA
ATOM      5  C   UNL     1       1.542   6.524  18.253  0.00  0.00    +0.000 C 
ATOM      6  C   UNL     1       2.239   5.248  17.818  0.00  0.00    +0.000 C 
ENDROOT
BRANCH   1   7
ATOM      7  C   UNL     1       3.405   3.153  18.531  0.00  0.00    +0.000 C 
ATOM      8  C   UNL     1       3.245   1.628  18.510  0.00  0.00    +0.000 C 
ATOM      9  C   UNL     1       3.854   2.251  19.721  0.00  0.00    +0.000 C 
BRANCH   7  12
ATOM     10  C   UNL     1       5.261   5.255  19.705  0.00  0.00    +0.000 C 
ATOM     11  N   UNL     1       5.474   4.656  18.397  0.00  0.00    +0.000 N 
ATOM     12  C   UNL     1       4.603   3.741  17.788  0.00  0.00    +0.000 C 
ATOM     13  O   UNL     1       4.778   3.376  16.624  0.00  0.00    +0.000 OA
BRANCH  11  14
ATOM     14  C   UNL     1       6.643   5.053  17.590  0.00  0.00    +0.000 C 
ATOM     15  C   UNL     1       6.244   6.121  16.556  0.00  0.00    +0.000 C 
ATOM     16  C   UNL     1       6.361   7.538  17.100  0.00  0.00    +0.000 C 
ATOM     17  C   UNL     1       7.792   7.794  17.540  0.00  0.00    +0.000 C 
ATOM     18  C   UNL     1       8.199   6.855  18.668  0.00  0.00    +0.000 C 
ATOM     19  C   UNL     1       7.936   5.379  18.367  0.00  0.00    +0.000 C 
ENDBRANCH  11  14
ENDBRANCH   7  12
ENDBRANCH   1   7
BRANCH   1  20
ATOM     20  O   UNL     1       0.967   3.464  18.760  0.00  0.00    +0.000 OA
ATOM     21  H   UNL     1       0.283   4.072  19.084  0.00  0.00    +0.000 HD
ENDBRANCH   1  20
BRANCH   4  22
ATOM     22  C   UNL     1       1.754   8.294  19.896  0.00  0.00    +0.000 C 
BRANCH  22  23
ATOM     23  C   UNL     1       1.737   9.158  18.622  0.00  0.00    +0.000 C 
BRANCH  23  24
ATOM     24  C   UNL     1       0.482   9.977  18.516  0.00  0.00    +0.000 A 
ATOM     25  C   UNL     1      -0.562   9.505  17.704  0.00  0.00    +0.000 A 
ATOM     26  C   UNL     1      -1.735  10.242  17.558  0.00  0.00    +0.000 A 
ATOM     27  C   UNL     1      -1.883  11.457  18.222  0.00  0.00    +0.000 A 
ATOM     28  C   UNL     1      -0.861  11.934  19.040  0.00  0.00    +0.000 A 
ATOM     29  C   UNL     1       0.315  11.196  19.195  0.00  0.00    +0.000 A 
ATOM     30 CL   UNL     1       1.534  11.840  20.239  0.00  0.00    +0.000 Cl
ENDBRANCH  23  24
ENDBRANCH  22  23
ENDBRANCH   4  22
TORSDOF 7
ENDMDL
MODEL 9
REMARK VINA RESULT:      -7.3      1.429      1.839
REMARK  Name = 
REMARK  8 active torsions:
REMARK  status: ('A' for Active; 'I' for Inactive)
REMARK    1  A    between atoms: C_1  and  N_2
REMARK    2  A    between atoms: N_2  and  C_24
REMARK    3  A    between atoms: C_3  and  C_5
REMARK    4  A    between atoms: C_5  and  C_6
REMARK    5  A    between atoms: C_6  and  O_7
REMARK    6  A    between atoms: N_10  and  C_11
REMARK    7  A    between atoms: C_11  and  C_12
REMARK    8  A    between atoms: C_12  and  C_13
REMARK                            x       y       z     vdW  Elec       q    Type
REMARK                         _______ _______ _______ _____ _____    ______ ____
ROOT
ATOM      1  C   UNL     1       2.659   4.418  18.752  0.00  0.00    +0.000 C 
ATOM      2  C   UNL     1       2.146   4.636  20.200  0.00  0.00    +0.000 C 
ATOM      3  C   UNL     1       1.492   5.987  20.408  0.00  0.00    +0.000 C 
ATOM      4  N   UNL     1       2.391   7.024  19.903  0.00  0.00    +0.000 NA
ATOM      5  C   UNL     1       2.382   6.957  18.437  0.00  0.00    +0.000 C 
ATOM      6  C   UNL     1       3.127   5.700  18.025  0.00  0.00    +0.000 C 
ENDROOT
BRANCH   1   7
ATOM      7  C   UNL     1       3.821   3.379  18.648  0.00  0.00    +0.000 C 
ATOM      8  C   UNL     1       3.588   1.882  18.417  0.00  0.00    +0.000 C 
ATOM      9  C   UNL     1       3.843   2.343  19.813  0.00  0.00    +0.000 C 
BRANCH   7  12
ATOM     10  C   UNL     1       5.015   3.568  15.858  0.00  0.00    +0.000 C 
ATOM     11  N   UNL     1       5.698   4.059  17.044  0.00  0.00    +0.000 N 
ATOM     12  C   UNL     1       5.217   3.925  18.354  0.00  0.00    +0.000 C 
ATOM     13  O   UNL     1       5.910   4.247  19.321  0.00  0.00    +0.000 OA
BRANCH  11  14
ATOM     14  C   UNL     1       7.021   4.699  16.917  0.00  0.00    +0.000 C 
ATOM     15  C   UNL     1       6.891   6.070  16.231  0.00  0.00    +0.000 C 
ATOM     16  C   UNL     1       6.637   7.200  17.220  0.00  0.00    +0.000 C 
ATOM     17  C   UNL     1       7.777   7.261  18.221  0.00  0.00    +0.000 C 
ATOM     18  C   UNL     1       7.866   5.977  19.035  0.00  0.00    +0.000 C 
ATOM     19  C   UNL     1       7.905   4.708  18.182  0.00  0.00    +0.000 C 
ENDBRANCH  11  14
ENDBRANCH   7  12
ENDBRANCH   1   7
BRANCH   1  20
ATOM     20  O   UNL     1       1.501   3.955  18.032  0.00  0.00    +0.000 OA
ATOM     21  H   UNL     1       1.815   3.451  17.262  0.00  0.00    +0.000 HD
ENDBRANCH   1  20
BRANCH   4  22
ATOM     22  C   UNL     1       2.037   8.363  20.381  0.00  0.00    +0.000 C 
BRANCH  22  23
ATOM     23  C   UNL     1       0.617   8.365  20.974  0.00  0.00    +0.000 C 
BRANCH  23  24
ATOM     24  C   UNL     1      -0.093   9.666  20.729  0.00  0.00    +0.000 A 
ATOM     25  C   UNL     1      -0.255  10.105  19.403  0.00  0.00    +0.000 A 
ATOM     26  C   UNL     1      -0.887  11.315  19.130  0.00  0.00    +0.000 A 
ATOM     27  C   UNL     1      -1.368  12.102  20.174  0.00  0.00    +0.000 A 
ATOM     28  C   UNL     1      -1.226  11.675  21.493  0.00  0.00    +0.000 A 
ATOM     29  C   UNL     1      -0.599  10.460  21.772  0.00  0.00    +0.000 A 
ATOM     30 CL   UNL     1      -0.472   9.985  23.430  0.00  0.00    +0.000 Cl
ENDBRANCH  23  24
ENDBRANCH  22  23
ENDBRANCH   4  22
TORSDOF 7
ENDMDL
