MODEL 1
REMARK VINA RESULT:      -8.3      0.000      0.000
REMARK  Name = 
REMARK  7 active torsions:
REMARK  status: ('A' for Active; 'I' for Inactive)
REMARK    1  A    between atoms: C_1  and  C_2
REMARK    2  A    between atoms: C_5  and  N_6
REMARK    3  A    between atoms: C_10  and  S_11
REMARK    4  A    between atoms: S_11  and  N_14
REMARK    5  A    between atoms: N_14  and  C_15
REMARK    6  A    between atoms: N_14  and  N_16
REMARK    7  A    between atoms: C_17  and  C_18
REMARK                            x       y       z     vdW  Elec       q    Type
REMARK                         _______ _______ _______ _____ _____    ______ ____
ROOT
ATOM      1  N   UNL     1       0.638   7.355  20.542  0.00  0.00    +0.000 NA
ATOM      2  C   UNL     1       1.728   6.652  20.599  0.00  0.00    +0.000 C 
ENDROOT
BRANCH   2   3
ATOM      3  C   UNL     1       1.716   5.242  20.295  0.00  0.00    +0.000 A 
ATOM      4  C   UNL     1       0.992   4.165  20.847  0.00  0.00    +0.000 A 
ATOM      5  N   UNL     1       1.253   2.995  20.256  0.00  0.00    +0.000 NA
ATOM      6  N   UNL     1       2.159   3.301  19.294  0.00  0.00    +0.000 N 
ATOM      7  C   UNL     1       2.712   2.459  18.341  0.00  0.00    +0.000 A 
ATOM      8  C   UNL     1       3.613   2.928  17.469  0.00  0.00    +0.000 A 
ATOM      9  C   UNL     1       4.013   4.380  17.596  0.00  0.00    +0.000 A 
ATOM     10  N   UNL     1       4.985   4.901  16.759  0.00  0.00    +0.000 N 
ATOM     11  C   UNL     1       6.101   4.132  16.198  0.00  0.00    +0.000 C 
ATOM     12  C   UNL     1       7.437   4.796  16.565  0.00  0.00    +0.000 C 
ATOM     13  O   UNL     1       7.476   6.171  16.154  0.00  0.00    +0.000 OA
ATOM     14  C   UNL     1       6.424   6.910  16.797  0.00  0.00    +0.000 C 
ATOM     15  C   UNL     1       5.047   6.338  16.439  0.00  0.00    +0.000 C 
ATOM     16  N   UNL     1       3.443   5.177  18.476  0.00  0.00    +0.000 NA
ATOM     17  C   UNL     1       2.503   4.651  19.322  0.00  0.00    +0.000 A 
ENDBRANCH   2   3
BRANCH   1  18
ATOM     18  N   UNL     1       0.749   8.818  20.836  0.00  0.00    +0.000 N 
ATOM     19  C   UNL     1       1.454   9.095  22.109  0.00  0.00    +0.000 C 
BRANCH  18  20
ATOM     20  S   UNL     1       0.873  10.024  19.596  0.00  0.00    +0.000 S 
ATOM     21  O   UNL     1       1.210   9.372  18.343  0.00  0.00    +0.000 OA
ATOM     22  O   UNL     1       1.700  11.093  20.111  0.00  0.00    +0.000 OA
BRANCH  20  29
ATOM     23  C   UNL     1      -0.917  12.020  21.549  0.00  0.00    +0.000 C 
ATOM     24  C   UNL     1      -1.460  11.540  20.230  0.00  0.00    +0.000 A 
ATOM     25  C   UNL     1      -2.689  12.108  19.822  0.00  0.00    +0.000 A 
ATOM     26  C   UNL     1      -3.265  11.795  18.591  0.00  0.00    +0.000 A 
ATOM     27  C   UNL     1      -2.619  10.894  17.743  0.00  0.00    +0.000 A 
ATOM     28  C   UNL     1      -1.399  10.311  18.118  0.00  0.00    +0.000 A 
ATOM     29  C   UNL     1      -0.813  10.634  19.358  0.00  0.00    +0.000 A 
BRANCH  27  30
ATOM     30  N   UNL     1      -3.210  10.589  16.434  0.00  0.00    +0.000 N 
ATOM     31  O   UNL     1      -4.340  11.041  16.192  0.00  0.00    +0.000 OA
ATOM     32  O   UNL     1      -2.547   9.897  15.650  0.00  0.00    +0.000 OA
ENDBRANCH  27  30
ENDBRANCH  20  29
ENDBRANCH  18  20
ENDBRANCH   1  18
TORSDOF 5
ENDMDL
MODEL 2
REMARK VINA RESULT:      -8.0      1.997      8.932
REMARK  Name = 
REMARK  7 active torsions:
REMARK  status: ('A' for Active; 'I' for Inactive)
REMARK    1  A    between atoms: C_1  and  C_2
REMARK    2  A    between atoms: C_5  and  N_6
REMARK    3  A    between atoms: C_10  and  S_11
REMARK    4  A    between atoms: S_11  and  N_14
REMARK    5  A    between atoms: N_14  and  C_15
REMARK    6  A    between atoms: N_14  and  N_16
REMARK    7  A    between atoms: C_17  and  C_18
REMARK                            x       y       z     vdW  Elec       q    Type
REMARK                         _______ _______ _______ _____ _____    ______ ____
ROOT
ATOM      1  N   UNL     1       1.942   7.723  20.601  0.00  0.00    +0.000 NA
ATOM      2  C   UNL     1       0.763   7.741  21.146  0.00  0.00    +0.000 C 
ENDROOT
BRANCH   2   3
ATOM      3  C   UNL     1       0.268   8.927  21.802  0.00  0.00    +0.000 A 
ATOM      4  C   UNL     1       0.382   9.385  23.132  0.00  0.00    +0.000 A 
ATOM      5  N   UNL     1      -0.206  10.568  23.334  0.00  0.00    +0.000 NA
ATOM      6  N   UNL     1      -0.712  10.903  22.120  0.00  0.00    +0.000 N 
ATOM      7  C   UNL     1      -1.362  12.073  21.758  0.00  0.00    +0.000 A 
ATOM      8  C   UNL     1      -1.815  12.232  20.508  0.00  0.00    +0.000 A 
ATOM      9  C   UNL     1      -1.618  11.084  19.546  0.00  0.00    +0.000 A 
ATOM     10  N   UNL     1      -2.120  11.171  18.258  0.00  0.00    +0.000 N 
ATOM     11  C   UNL     1      -3.320  11.926  17.883  0.00  0.00    +0.000 C 
ATOM     12  C   UNL     1      -4.324  11.004  17.172  0.00  0.00    +0.000 C 
ATOM     13  O   UNL     1      -3.731  10.346  16.042  0.00  0.00    +0.000 OA
ATOM     14  C   UNL     1      -2.616   9.544  16.466  0.00  0.00    +0.000 C 
ATOM     15  C   UNL     1      -1.541  10.403  17.143  0.00  0.00    +0.000 C 
ATOM     16  N   UNL     1      -0.957   9.999  19.894  0.00  0.00    +0.000 NA
ATOM     17  C   UNL     1      -0.487   9.903  21.176  0.00  0.00    +0.000 A 
ENDBRANCH   2   3
BRANCH   1  18
ATOM     18  N   UNL     1       2.358   6.464  19.910  0.00  0.00    +0.000 N 
ATOM     19  C   UNL     1       1.953   5.244  20.647  0.00  0.00    +0.000 C 
BRANCH  18  20
ATOM     20  S   UNL     1       2.482   6.330  18.185  0.00  0.00    +0.000 S 
ATOM     21  O   UNL     1       2.550   7.665  17.618  0.00  0.00    +0.000 OA
ATOM     22  O   UNL     1       1.464   5.399  17.748  0.00  0.00    +0.000 OA
BRANCH  20  29
ATOM     23  C   UNL     1       3.258   3.325  17.014  0.00  0.00    +0.000 C 
ATOM     24  C   UNL     1       4.331   4.339  17.313  0.00  0.00    +0.000 A 
ATOM     25  C   UNL     1       5.643   3.985  16.927  0.00  0.00    +0.000 A 
ATOM     26  C   UNL     1       6.715   4.863  17.091  0.00  0.00    +0.000 A 
ATOM     27  C   UNL     1       6.489   6.118  17.658  0.00  0.00    +0.000 A 
ATOM     28  C   UNL     1       5.198   6.500  18.055  0.00  0.00    +0.000 A 
ATOM     29  C   UNL     1       4.115   5.616  17.881  0.00  0.00    +0.000 A 
BRANCH  27  30
ATOM     30  N   UNL     1       7.612   7.054  17.801  0.00  0.00    +0.000 N 
ATOM     31  O   UNL     1       7.763   7.912  16.917  0.00  0.00    +0.000 OA
ATOM     32  O   UNL     1       8.343   6.928  18.792  0.00  0.00    +0.000 OA
ENDBRANCH  27  30
ENDBRANCH  20  29
ENDBRANCH  18  20
ENDBRANCH   1  18
TORSDOF 5
ENDMDL
MODEL 3
REMARK VINA RESULT:      -7.8      2.606      9.189
REMARK  Name = 
REMARK  7 active torsions:
REMARK  status: ('A' for Active; 'I' for Inactive)
REMARK    1  A    between atoms: C_1  and  C_2
REMARK    2  A    between atoms: C_5  and  N_6
REMARK    3  A    between atoms: C_10  and  S_11
REMARK    4  A    between atoms: S_11  and  N_14
REMARK    5  A    between atoms: N_14  and  C_15
REMARK    6  A    between atoms: N_14  and  N_16
REMARK    7  A    between atoms: C_17  and  C_18
REMARK                            x       y       z     vdW  Elec       q    Type
REMARK                         _______ _______ _______ _____ _____    ______ ____
ROOT
ATOM      1  N   UNL     1       1.100   6.984  20.312  0.00  0.00    +0.000 NA
ATOM      2  C   UNL     1       1.599   8.153  20.574  0.00  0.00    +0.000 C 
ENDROOT
BRANCH   2   3
ATOM      3  C   UNL     1       0.949   9.044  21.506  0.00  0.00    +0.000 A 
ATOM      4  C   UNL     1       1.110   9.236  22.894  0.00  0.00    +0.000 A 
ATOM      5  N   UNL     1       0.320  10.195  23.388  0.00  0.00    +0.000 NA
ATOM      6  N   UNL     1      -0.369  10.649  22.312  0.00  0.00    +0.000 N 
ATOM      7  C   UNL     1      -1.277  11.697  22.258  0.00  0.00    +0.000 A 
ATOM      8  C   UNL     1      -1.884  12.002  21.104  0.00  0.00    +0.000 A 
ATOM      9  C   UNL     1      -1.564  11.145  19.902  0.00  0.00    +0.000 A 
ATOM     10  N   UNL     1      -2.209  11.379  18.699  0.00  0.00    +0.000 N 
ATOM     11  C   UNL     1      -3.570  11.912  18.574  0.00  0.00    +0.000 C 
ATOM     12  C   UNL     1      -4.437  10.955  17.740  0.00  0.00    +0.000 C 
ATOM     13  O   UNL     1      -3.849  10.687  16.459  0.00  0.00    +0.000 OA
ATOM     14  C   UNL     1      -2.556  10.081  16.625  0.00  0.00    +0.000 C 
ATOM     15  C   UNL     1      -1.610  10.999  17.408  0.00  0.00    +0.000 C 
ATOM     16  N   UNL     1      -0.665  10.184  19.960  0.00  0.00    +0.000 NA
ATOM     17  C   UNL     1      -0.050   9.936  21.158  0.00  0.00    +0.000 A 
ENDBRANCH   2   3
BRANCH   1  18
ATOM     18  N   UNL     1       1.860   6.111  19.364  0.00  0.00    +0.000 N 
ATOM     19  C   UNL     1       2.601   6.885  18.341  0.00  0.00    +0.000 C 
BRANCH  18  20
ATOM     20  S   UNL     1       2.530   4.578  19.821  0.00  0.00    +0.000 S 
ATOM     21  O   UNL     1       1.674   3.524  19.308  0.00  0.00    +0.000 OA
ATOM     22  O   UNL     1       2.844   4.645  21.232  0.00  0.00    +0.000 OA
BRANCH  20  29
ATOM     23  C   UNL     1       2.979   3.380  16.761  0.00  0.00    +0.000 C 
ATOM     24  C   UNL     1       4.129   3.960  17.541  0.00  0.00    +0.000 A 
ATOM     25  C   UNL     1       5.349   4.095  16.838  0.00  0.00    +0.000 A 
ATOM     26  C   UNL     1       6.471   4.676  17.428  0.00  0.00    +0.000 A 
ATOM     27  C   UNL     1       6.393   5.130  18.746  0.00  0.00    +0.000 A 
ATOM     28  C   UNL     1       5.198   5.009  19.472  0.00  0.00    +0.000 A 
ATOM     29  C   UNL     1       4.063   4.429  18.873  0.00  0.00    +0.000 A 
BRANCH  27  30
ATOM     30  N   UNL     1       7.565   5.771  19.356  0.00  0.00    +0.000 N 
ATOM     31  O   UNL     1       7.950   5.341  20.454  0.00  0.00    +0.000 OA
ATOM     32  O   UNL     1       8.096   6.704  18.740  0.00  0.00    +0.000 OA
ENDBRANCH  27  30
ENDBRANCH  20  29
ENDBRANCH  18  20
ENDBRANCH   1  18
TORSDOF 5
ENDMDL
MODEL 4
REMARK VINA RESULT:      -7.8      2.919      9.209
REMARK  Name = 
REMARK  7 active torsions:
REMARK  status: ('A' for Active; 'I' for Inactive)
REMARK    1  A    between atoms: C_1  and  C_2
REMARK    2  A    between atoms: C_5  and  N_6
REMARK    3  A    between atoms: C_10  and  S_11
REMARK    4  A    between atoms: S_11  and  N_14
REMARK    5  A    between atoms: N_14  and  C_15
REMARK    6  A    between atoms: N_14  and  N_16
REMARK    7  A    between atoms: C_17  and  C_18
REMARK                            x       y       z     vdW  Elec       q    Type
REMARK                         _______ _______ _______ _____ _____    ______ ____
ROOT
ATOM      1  N   UNL     1       2.533   7.050  19.310  0.00  0.00    +0.000 NA
ATOM      2  C   UNL     1       1.713   8.050  19.195  0.00  0.00    +0.000 C 
ENDROOT
BRANCH   2   3
ATOM      3  C   UNL     1       1.310   8.814  20.352  0.00  0.00    +0.000 A 
ATOM      4  C   UNL     1       1.774   8.820  21.684  0.00  0.00    +0.000 A 
ATOM      5  N   UNL     1       1.144   9.710  22.457  0.00  0.00    +0.000 NA
ATOM      6  N   UNL     1       0.254  10.306  21.625  0.00  0.00    +0.000 N 
ATOM      7  C   UNL     1      -0.607  11.357  21.905  0.00  0.00    +0.000 A 
ATOM      8  C   UNL     1      -1.438  11.817  20.961  0.00  0.00    +0.000 A 
ATOM      9  C   UNL     1      -1.414  11.124  19.618  0.00  0.00    +0.000 A 
ATOM     10  N   UNL     1      -2.296  11.519  18.625  0.00  0.00    +0.000 N 
ATOM     11  C   UNL     1      -3.632  12.072  18.869  0.00  0.00    +0.000 C 
ATOM     12  C   UNL     1      -4.691  11.239  18.130  0.00  0.00    +0.000 C 
ATOM     13  O   UNL     1      -4.403  11.139  16.728  0.00  0.00    +0.000 OA
ATOM     14  C   UNL     1      -3.127  10.508  16.528  0.00  0.00    +0.000 C 
ATOM     15  C   UNL     1      -2.003  11.309  17.197  0.00  0.00    +0.000 C 
ATOM     16  N   UNL     1      -0.559  10.158  19.355  0.00  0.00    +0.000 NA
ATOM     17  C   UNL     1       0.292   9.750  20.348  0.00  0.00    +0.000 A 
ENDBRANCH   2   3
BRANCH   1  18
ATOM     18  N   UNL     1       2.926   6.339  18.054  0.00  0.00    +0.000 N 
ATOM     19  C   UNL     1       4.162   6.886  17.448  0.00  0.00    +0.000 C 
BRANCH  18  20
ATOM     20  S   UNL     1       2.597   4.659  17.776  0.00  0.00    +0.000 S 
ATOM     21  O   UNL     1       3.677   4.098  16.984  0.00  0.00    +0.000 OA
ATOM     22  O   UNL     1       1.226   4.554  17.326  0.00  0.00    +0.000 OA
BRANCH  20  29
ATOM     23  C   UNL     1       0.501   4.735  20.346  0.00  0.00    +0.000 C 
ATOM     24  C   UNL     1       1.763   3.916  20.402  0.00  0.00    +0.000 A 
ATOM     25  C   UNL     1       1.913   3.083  21.535  0.00  0.00    +0.000 A 
ATOM     26  C   UNL     1       3.006   2.229  21.674  0.00  0.00    +0.000 A 
ATOM     27  C   UNL     1       3.981   2.198  20.677  0.00  0.00    +0.000 A 
ATOM     28  C   UNL     1       3.865   3.014  19.540  0.00  0.00    +0.000 A 
ATOM     29  C   UNL     1       2.756   3.871  19.396  0.00  0.00    +0.000 A 
BRANCH  27  30
ATOM     30  N   UNL     1       5.116   1.275  20.808  0.00  0.00    +0.000 N 
ATOM     31  O   UNL     1       5.720   1.255  21.892  0.00  0.00    +0.000 OA
ATOM     32  O   UNL     1       5.405   0.575  19.829  0.00  0.00    +0.000 OA
ENDBRANCH  27  30
ENDBRANCH  20  29
ENDBRANCH  18  20
ENDBRANCH   1  18
TORSDOF 5
ENDMDL
MODEL 5
REMARK VINA RESULT:      -7.7      2.287      3.209
REMARK  Name = 
REMARK  7 active torsions:
REMARK  status: ('A' for Active; 'I' for Inactive)
REMARK    1  A    between atoms: C_1  and  C_2
REMARK    2  A    between atoms: C_5  and  N_6
REMARK    3  A    between atoms: C_10  and  S_11
REMARK    4  A    between atoms: S_11  and  N_14
REMARK    5  A    between atoms: N_14  and  C_15
REMARK    6  A    between atoms: N_14  and  N_16
REMARK    7  A    between atoms: C_17  and  C_18
REMARK                            x       y       z     vdW  Elec       q    Type
REMARK                         _______ _______ _______ _____ _____    ______ ____
ROOT
ATOM      1  N   UNL     1       1.542   7.324  19.473  0.00  0.00    +0.000 NA
ATOM      2  C   UNL     1       1.888   6.510  20.425  0.00  0.00    +0.000 C 
ENDROOT
BRANCH   2   3
ATOM      3  C   UNL     1       1.882   5.082  20.217  0.00  0.00    +0.000 A 
ATOM      4  C   UNL     1       1.200   4.037  20.874  0.00  0.00    +0.000 A 
ATOM      5  N   UNL     1       1.449   2.833  20.351  0.00  0.00    +0.000 NA
ATOM      6  N   UNL     1       2.304   3.084  19.328  0.00  0.00    +0.000 N 
ATOM      7  C   UNL     1       2.824   2.184  18.408  0.00  0.00    +0.000 A 
ATOM      8  C   UNL     1       3.675   2.603  17.464  0.00  0.00    +0.000 A 
ATOM      9  C   UNL     1       4.060   4.065  17.474  0.00  0.00    +0.000 A 
ATOM     10  N   UNL     1       4.983   4.540  16.558  0.00  0.00    +0.000 N 
ATOM     11  C   UNL     1       6.082   3.746  15.997  0.00  0.00    +0.000 C 
ATOM     12  C   UNL     1       7.425   4.449  16.253  0.00  0.00    +0.000 C 
ATOM     13  O   UNL     1       7.425   5.793  15.750  0.00  0.00    +0.000 OA
ATOM     14  C   UNL     1       6.394   6.562  16.392  0.00  0.00    +0.000 C 
ATOM     15  C   UNL     1       5.010   5.952  16.140  0.00  0.00    +0.000 C 
ATOM     16  N   UNL     1       3.521   4.913  18.325  0.00  0.00    +0.000 NA
ATOM     17  C   UNL     1       2.630   4.436  19.249  0.00  0.00    +0.000 A 
ENDBRANCH   2   3
BRANCH   1  18
ATOM     18  N   UNL     1       1.615   8.789  19.765  0.00  0.00    +0.000 N 
ATOM     19  C   UNL     1       1.960   9.595  18.570  0.00  0.00    +0.000 C 
BRANCH  18  20
ATOM     20  S   UNL     1       0.641   9.562  20.974  0.00  0.00    +0.000 S 
ATOM     21  O   UNL     1       1.480   9.879  22.115  0.00  0.00    +0.000 OA
ATOM     22  O   UNL     1      -0.554   8.764  21.143  0.00  0.00    +0.000 OA
BRANCH  20  29
ATOM     23  C   UNL     1      -1.615  10.261  18.645  0.00  0.00    +0.000 C 
ATOM     24  C   UNL     1      -0.836  11.359  19.321  0.00  0.00    +0.000 A 
ATOM     25  C   UNL     1      -1.231  12.680  19.012  0.00  0.00    +0.000 A 
ATOM     26  C   UNL     1      -0.632  13.783  19.620  0.00  0.00    +0.000 A 
ATOM     27  C   UNL     1       0.389  13.579  20.550  0.00  0.00    +0.000 A 
ATOM     28  C   UNL     1       0.807  12.280  20.878  0.00  0.00    +0.000 A 
ATOM     29  C   UNL     1       0.195  11.166  20.270  0.00  0.00    +0.000 A 
BRANCH  27  30
ATOM     30  N   UNL     1       0.998  14.739  21.214  0.00  0.00    +0.000 N 
ATOM     31  O   UNL     1       0.954  15.830  20.624  0.00  0.00    +0.000 OA
ATOM     32  O   UNL     1       1.524  14.558  22.321  0.00  0.00    +0.000 OA
ENDBRANCH  27  30
ENDBRANCH  20  29
ENDBRANCH  18  20
ENDBRANCH   1  18
TORSDOF 5
ENDMDL
MODEL 6
REMARK VINA RESULT:      -7.7      1.884      8.984
REMARK  Name = 
REMARK  7 active torsions:
REMARK  status: ('A' for Active; 'I' for Inactive)
REMARK    1  A    between atoms: C_1  and  C_2
REMARK    2  A    between atoms: C_5  and  N_6
REMARK    3  A    between atoms: C_10  and  S_11
REMARK    4  A    between atoms: S_11  and  N_14
REMARK    5  A    between atoms: N_14  and  C_15
REMARK    6  A    between atoms: N_14  and  N_16
REMARK    7  A    between atoms: C_17  and  C_18
REMARK                            x       y       z     vdW  Elec       q    Type
REMARK                         _______ _______ _______ _____ _____    ______ ____
ROOT
ATOM      1  N   UNL     1       2.146   7.097  20.864  0.00  0.00    +0.000 NA
ATOM      2  C   UNL     1       1.215   7.895  20.438  0.00  0.00    +0.000 C 
ENDROOT
BRANCH   2   3
ATOM      3  C   UNL     1       0.683   8.932  21.289  0.00  0.00    +0.000 A 
ATOM      4  C   UNL     1       0.898   9.237  22.649  0.00  0.00    +0.000 A 
ATOM      5  N   UNL     1       0.223  10.314  23.061  0.00  0.00    +0.000 NA
ATOM      6  N   UNL     1      -0.444  10.734  21.957  0.00  0.00    +0.000 N 
ATOM      7  C   UNL     1      -1.242  11.860  21.817  0.00  0.00    +0.000 A 
ATOM      8  C   UNL     1      -1.845  12.116  20.649  0.00  0.00    +0.000 A 
ATOM      9  C   UNL     1      -1.644  11.121  19.530  0.00  0.00    +0.000 A 
ATOM     10  N   UNL     1      -2.293  11.306  18.320  0.00  0.00    +0.000 N 
ATOM     11  C   UNL     1      -3.595  11.963  18.166  0.00  0.00    +0.000 C 
ATOM     12  C   UNL     1      -4.577  11.026  17.443  0.00  0.00    +0.000 C 
ATOM     13  O   UNL     1      -4.052  10.579  16.184  0.00  0.00    +0.000 OA
ATOM     14  C   UNL     1      -2.823   9.860  16.387  0.00  0.00    +0.000 C 
ATOM     15  C   UNL     1      -1.769  10.746  17.063  0.00  0.00    +0.000 C 
ATOM     16  N   UNL     1      -0.846  10.082  19.666  0.00  0.00    +0.000 NA
ATOM     17  C   UNL     1      -0.229   9.886  20.873  0.00  0.00    +0.000 A 
ENDBRANCH   2   3
BRANCH   1  18
ATOM     18  N   UNL     1       2.666   6.076  19.901  0.00  0.00    +0.000 N 
ATOM     19  C   UNL     1       2.602   4.696  20.438  0.00  0.00    +0.000 C 
BRANCH  18  20
ATOM     20  S   UNL     1       2.545   6.252  18.180  0.00  0.00    +0.000 S 
ATOM     21  O   UNL     1       2.907   7.612  17.824  0.00  0.00    +0.000 OA
ATOM     22  O   UNL     1       1.268   5.704  17.777  0.00  0.00    +0.000 OA
BRANCH  20  29
ATOM     23  C   UNL     1       2.511   3.022  17.423  0.00  0.00    +0.000 C 
ATOM     24  C   UNL     1       3.729   3.866  17.155  0.00  0.00    +0.000 A 
ATOM     25  C   UNL     1       4.773   3.238  16.438  0.00  0.00    +0.000 A 
ATOM     26  C   UNL     1       5.926   3.931  16.071  0.00  0.00    +0.000 A 
ATOM     27  C   UNL     1       6.060   5.274  16.427  0.00  0.00    +0.000 A 
ATOM     28  C   UNL     1       5.043   5.927  17.142  0.00  0.00    +0.000 A 
ATOM     29  C   UNL     1       3.874   5.229  17.504  0.00  0.00    +0.000 A 
BRANCH  27  30
ATOM     30  N   UNL     1       7.260   6.011  16.013  0.00  0.00    +0.000 N 
ATOM     31  O   UNL     1       7.792   5.691  14.939  0.00  0.00    +0.000 OA
ATOM     32  O   UNL     1       7.673   6.906  16.763  0.00  0.00    +0.000 OA
ENDBRANCH  27  30
ENDBRANCH  20  29
ENDBRANCH  18  20
ENDBRANCH   1  18
TORSDOF 5
ENDMDL
MODEL 7
REMARK VINA RESULT:      -7.7      1.361      1.605
REMARK  Name = 
REMARK  7 active torsions:
REMARK  status: ('A' for Active; 'I' for Inactive)
REMARK    1  A    between atoms: C_1  and  C_2
REMARK    2  A    between atoms: C_5  and  N_6
REMARK    3  A    between atoms: C_10  and  S_11
REMARK    4  A    between atoms: S_11  and  N_14
REMARK    5  A    between atoms: N_14  and  C_15
REMARK    6  A    between atoms: N_14  and  N_16
REMARK    7  A    between atoms: C_17  and  C_18
REMARK                            x       y       z     vdW  Elec       q    Type
REMARK                         _______ _______ _______ _____ _____    ______ ____
ROOT
ATOM      1  N   UNL     1       1.742   7.083  19.575  0.00  0.00    +0.000 NA
ATOM      2  C   UNL     1       1.760   6.270  20.587  0.00  0.00    +0.000 C 
ENDROOT
BRANCH   2   3
ATOM      3  C   UNL     1       1.850   4.844  20.389  0.00  0.00    +0.000 A 
ATOM      4  C   UNL     1       1.241   3.760  21.056  0.00  0.00    +0.000 A 
ATOM      5  N   UNL     1       1.570   2.572  20.540  0.00  0.00    +0.000 NA
ATOM      6  N   UNL     1       2.403   2.871  19.512  0.00  0.00    +0.000 N 
ATOM      7  C   UNL     1       2.979   2.003  18.597  0.00  0.00    +0.000 A 
ATOM      8  C   UNL     1       3.797   2.471  17.647  0.00  0.00    +0.000 A 
ATOM      9  C   UNL     1       4.083   3.955  17.646  0.00  0.00    +0.000 A 
ATOM     10  N   UNL     1       4.970   4.484  16.723  0.00  0.00    +0.000 N 
ATOM     11  C   UNL     1       6.117   3.762  16.163  0.00  0.00    +0.000 C 
ATOM     12  C   UNL     1       7.411   4.555  16.410  0.00  0.00    +0.000 C 
ATOM     13  O   UNL     1       7.319   5.892  15.897  0.00  0.00    +0.000 OA
ATOM     14  C   UNL     1       6.240   6.595  16.537  0.00  0.00    +0.000 C 
ATOM     15  C   UNL     1       4.900   5.891  16.295  0.00  0.00    +0.000 C 
ATOM     16  N   UNL     1       3.491   4.771  18.493  0.00  0.00    +0.000 NA
ATOM     17  C   UNL     1       2.637   4.242  19.423  0.00  0.00    +0.000 A 
ENDBRANCH   2   3
BRANCH   1  18
ATOM     18  N   UNL     1       1.687   8.548  19.874  0.00  0.00    +0.000 N 
ATOM     19  C   UNL     1       2.114   9.384  18.727  0.00  0.00    +0.000 C 
BRANCH  18  20
ATOM     20  S   UNL     1       0.533   9.247  20.964  0.00  0.00    +0.000 S 
ATOM     21  O   UNL     1       1.249   9.976  21.995  0.00  0.00    +0.000 OA
ATOM     22  O   UNL     1      -0.411   8.211  21.320  0.00  0.00    +0.000 OA
BRANCH  20  29
ATOM     23  C   UNL     1       1.234  12.480  20.717  0.00  0.00    +0.000 C 
ATOM     24  C   UNL     1       0.113  11.869  19.919  0.00  0.00    +0.000 A 
ATOM     25  C   UNL     1      -0.503  12.715  18.968  0.00  0.00    +0.000 A 
ATOM     26  C   UNL     1      -1.509  12.251  18.121  0.00  0.00    +0.000 A 
ATOM     27  C   UNL     1      -1.926  10.922  18.219  0.00  0.00    +0.000 A 
ATOM     28  C   UNL     1      -1.337  10.056  19.154  0.00  0.00    +0.000 A 
ATOM     29  C   UNL     1      -0.314  10.524  20.003  0.00  0.00    +0.000 A 
BRANCH  27  30
ATOM     30  N   UNL     1      -2.963  10.425  17.306  0.00  0.00    +0.000 N 
ATOM     31  O   UNL     1      -2.593   9.824  16.286  0.00  0.00    +0.000 OA
ATOM     32  O   UNL     1      -4.145  10.639  17.606  0.00  0.00    +0.000 OA
ENDBRANCH  27  30
ENDBRANCH  20  29
ENDBRANCH  18  20
ENDBRANCH   1  18
TORSDOF 5
ENDMDL
MODEL 8
REMARK VINA RESULT:      -7.6      2.429      3.557
REMARK  Name = 
REMARK  7 active torsions:
REMARK  status: ('A' for Active; 'I' for Inactive)
REMARK    1  A    between atoms: C_1  and  C_2
REMARK    2  A    between atoms: C_5  and  N_6
REMARK    3  A    between atoms: C_10  and  S_11
REMARK    4  A    between atoms: S_11  and  N_14
REMARK    5  A    between atoms: N_14  and  C_15
REMARK    6  A    between atoms: N_14  and  N_16
REMARK    7  A    between atoms: C_17  and  C_18
REMARK                            x       y       z     vdW  Elec       q    Type
REMARK                         _______ _______ _______ _____ _____    ______ ____
ROOT
ATOM      1  N   UNL     1       0.521   7.366  20.995  0.00  0.00    +0.000 NA
ATOM      2  C   UNL     1       1.606   6.715  20.703  0.00  0.00    +0.000 C 
ENDROOT
BRANCH   2   3
ATOM      3  C   UNL     1       1.546   5.353  20.229  0.00  0.00    +0.000 A 
ATOM      4  C   UNL     1       0.747   4.256  20.614  0.00  0.00    +0.000 A 
ATOM      5  N   UNL     1       0.985   3.153  19.898  0.00  0.00    +0.000 NA
ATOM      6  N   UNL     1       1.951   3.525  19.021  0.00  0.00    +0.000 N 
ATOM      7  C   UNL     1       2.513   2.775  17.998  0.00  0.00    +0.000 A 
ATOM      8  C   UNL     1       3.477   3.299  17.230  0.00  0.00    +0.000 A 
ATOM      9  C   UNL     1       3.934   4.703  17.551  0.00  0.00    +0.000 A 
ATOM     10  N   UNL     1       4.969   5.271  16.827  0.00  0.00    +0.000 N 
ATOM     11  C   UNL     1       6.076   4.519  16.227  0.00  0.00    +0.000 C 
ATOM     12  C   UNL     1       7.421   5.066  16.731  0.00  0.00    +0.000 C 
ATOM     13  O   UNL     1       7.542   6.476  16.492  0.00  0.00    +0.000 OA
ATOM     14  C   UNL     1       6.493   7.186  17.172  0.00  0.00    +0.000 C 
ATOM     15  C   UNL     1       5.112   6.730  16.687  0.00  0.00    +0.000 C 
ATOM     16  N   UNL     1       3.358   5.417  18.495  0.00  0.00    +0.000 NA
ATOM     17  C   UNL     1       2.354   4.843  19.228  0.00  0.00    +0.000 A 
ENDBRANCH   2   3
BRANCH   1  18
ATOM     18  N   UNL     1       0.674   8.786  21.442  0.00  0.00    +0.000 N 
ATOM     19  C   UNL     1       2.035   9.085  21.945  0.00  0.00    +0.000 C 
BRANCH  18  20
ATOM     20  S   UNL     1      -0.201  10.101  20.727  0.00  0.00    +0.000 S 
ATOM     21  O   UNL     1      -0.671  10.978  21.785  0.00  0.00    +0.000 OA
ATOM     22  O   UNL     1      -1.134   9.536  19.776  0.00  0.00    +0.000 OA
BRANCH  20  29
ATOM     23  C   UNL     1       1.421   9.359  17.931  0.00  0.00    +0.000 C 
ATOM     24  C   UNL     1       1.624  10.685  18.613  0.00  0.00    +0.000 A 
ATOM     25  C   UNL     1       2.416  11.626  17.916  0.00  0.00    +0.000 A 
ATOM     26  C   UNL     1       2.627  12.913  18.412  0.00  0.00    +0.000 A 
ATOM     27  C   UNL     1       2.051  13.280  19.628  0.00  0.00    +0.000 A 
ATOM     28  C   UNL     1       1.261  12.369  20.347  0.00  0.00    +0.000 A 
ATOM     29  C   UNL     1       1.041  11.073  19.842  0.00  0.00    +0.000 A 
BRANCH  27  30
ATOM     30  N   UNL     1       2.247  14.644  20.134  0.00  0.00    +0.000 N 
ATOM     31  O   UNL     1       2.490  14.782  21.343  0.00  0.00    +0.000 OA
ATOM     32  O   UNL     1       2.154  15.577  19.325  0.00  0.00    +0.000 OA
ENDBRANCH  27  30
ENDBRANCH  20  29
ENDBRANCH  18  20
ENDBRANCH   1  18
TORSDOF 5
ENDMDL
MODEL 9
REMARK VINA RESULT:      -7.6      2.901      9.290
REMARK  Name = 
REMARK  7 active torsions:
REMARK  status: ('A' for Active; 'I' for Inactive)
REMARK    1  A    between atoms: C_1  and  C_2
REMARK    2  A    between atoms: C_5  and  N_6
REMARK    3  A    between atoms: C_10  and  S_11
REMARK    4  A    between atoms: S_11  and  N_14
REMARK    5  A    between atoms: N_14  and  C_15
REMARK    6  A    between atoms: N_14  and  N_16
REMARK    7  A    between atoms: C_17  and  C_18
REMARK                            x       y       z     vdW  Elec       q    Type
REMARK                         _______ _______ _______ _____ _____    ______ ____
ROOT
ATOM      1  N   UNL     1       2.646   7.566  19.633  0.00  0.00    +0.000 NA
ATOM      2  C   UNL     1       1.464   8.093  19.745  0.00  0.00    +0.000 C 
ENDROOT
BRANCH   2   3
ATOM      3  C   UNL     1       1.096   8.840  20.923  0.00  0.00    +0.000 A 
ATOM      4  C   UNL     1       1.537   8.767  22.261  0.00  0.00    +0.000 A 
ATOM      5  N   UNL     1       0.956   9.670  23.058  0.00  0.00    +0.000 NA
ATOM      6  N   UNL     1       0.123  10.356  22.235  0.00  0.00    +0.000 N 
ATOM      7  C   UNL     1      -0.669  11.452  22.541  0.00  0.00    +0.000 A 
ATOM      8  C   UNL     1      -1.451  12.001  21.604  0.00  0.00    +0.000 A 
ATOM      9  C   UNL     1      -1.453  11.357  20.237  0.00  0.00    +0.000 A 
ATOM     10  N   UNL     1      -2.289  11.847  19.247  0.00  0.00    +0.000 N 
ATOM     11  C   UNL     1      -3.588  12.481  19.493  0.00  0.00    +0.000 C 
ATOM     12  C   UNL     1      -4.690  11.750  18.709  0.00  0.00    +0.000 C 
ATOM     13  O   UNL     1      -4.386  11.681  17.308  0.00  0.00    +0.000 OA
ATOM     14  C   UNL     1      -3.152  10.971  17.103  0.00  0.00    +0.000 C 
ATOM     15  C   UNL     1      -1.987  11.669  17.816  0.00  0.00    +0.000 C 
ATOM     16  N   UNL     1      -0.660  10.345  19.950  0.00  0.00    +0.000 NA
ATOM     17  C   UNL     1       0.143   9.844  20.940  0.00  0.00    +0.000 A 
ENDBRANCH   2   3
BRANCH   1  18
ATOM     18  N   UNL     1       2.955   6.841  18.361  0.00  0.00    +0.000 N 
ATOM     19  C   UNL     1       3.563   7.719  17.334  0.00  0.00    +0.000 C 
BRANCH  18  20
ATOM     20  S   UNL     1       3.390   5.163  18.312  0.00  0.00    +0.000 S 
ATOM     21  O   UNL     1       2.452   4.464  17.451  0.00  0.00    +0.000 OA
ATOM     22  O   UNL     1       3.597   4.728  19.676  0.00  0.00    +0.000 OA
BRANCH  20  29
ATOM     23  C   UNL     1       6.472   5.449  19.503  0.00  0.00    +0.000 C 
ATOM     24  C   UNL     1       6.230   5.174  18.043  0.00  0.00    +0.000 A 
ATOM     25  C   UNL     1       7.379   4.902  17.265  0.00  0.00    +0.000 A 
ATOM     26  C   UNL     1       7.284   4.570  15.914  0.00  0.00    +0.000 A 
ATOM     27  C   UNL     1       6.027   4.512  15.311  0.00  0.00    +0.000 A 
ATOM     28  C   UNL     1       4.866   4.779  16.054  0.00  0.00    +0.000 A 
ATOM     29  C   UNL     1       4.962   5.106  17.421  0.00  0.00    +0.000 A 
BRANCH  27  30
ATOM     30  N   UNL     1       5.925   4.132  13.896  0.00  0.00    +0.000 N 
ATOM     31  O   UNL     1       6.953   4.202  13.205  0.00  0.00    +0.000 OA
ATOM     32  O   UNL     1       4.818   3.768  13.476  0.00  0.00    +0.000 OA
ENDBRANCH  27  30
ENDBRANCH  20  29
ENDBRANCH  18  20
ENDBRANCH   1  18
TORSDOF 5
ENDMDL
