MODEL 1
REMARK VINA RESULT:      -8.4      0.000      0.000
REMARK  Name = 
REMARK  4 active torsions:
REMARK  status: ('A' for Active; 'I' for Inactive)
REMARK    1  A    between atoms: C_7  and  C_8
REMARK    2  A    between atoms: C_11  and  N_12
REMARK    3  A    between atoms: N_20  and  C_21
REMARK    4  A    between atoms: C_21  and  C_22
REMARK                            x       y       z     vdW  Elec       q    Type
REMARK                         _______ _______ _______ _____ _____    ______ ____
ROOT
ATOM      1 CL   UNL     1      -0.726   9.367  22.557  0.00  0.00    +0.000 Cl
ATOM      2  C   UNL     1       0.192   9.126  21.118  0.00  0.00    +0.000 A 
ATOM      3  C   UNL     1       0.014   9.974  20.024  0.00  0.00    +0.000 A 
ATOM      4  C   UNL     1       0.764   9.777  18.852  0.00  0.00    +0.000 A 
ATOM      5  C   UNL     1       1.698   8.714  18.783  0.00  0.00    +0.000 A 
ATOM      6  N   UNL     1       2.529   8.308  17.766  0.00  0.00    +0.000 NA
ATOM      7  C   UNL     1       3.131   7.187  18.155  0.00  0.00    +0.000 A 
ATOM      8  N   UNL     1       2.744   6.901  19.472  0.00  0.00    +0.000 N 
ATOM      9  C   UNL     1       1.833   7.880  19.882  0.00  0.00    +0.000 A 
ATOM     10  C   UNL     1       1.095   8.063  21.066  0.00  0.00    +0.000 A 
ENDROOT
BRANCH   7  11
ATOM     11  C   UNL     1       4.044   6.393  17.270  0.00  0.00    +0.000 A 
ATOM     12  C   UNL     1       4.197   5.000  17.382  0.00  0.00    +0.000 A 
ATOM     13  C   UNL     1       5.037   4.263  16.492  0.00  0.00    +0.000 A 
ATOM     14  C   UNL     1       5.738   4.871  15.435  0.00  0.00    +0.000 A 
ATOM     15  C   UNL     1       5.595   6.254  15.363  0.00  0.00    +0.000 A 
ATOM     16  C   UNL     1       4.826   6.987  16.282  0.00  0.00    +0.000 A 
BRANCH  14  17
ATOM     17  N   UNL     1       6.483   4.167  14.506  0.00  0.00    +0.000 N 
ATOM     18  C   UNL     1       7.718   4.736  13.927  0.00  0.00    +0.000 C 
ATOM     19  C   UNL     1       7.501   5.151  12.454  0.00  0.00    +0.000 C 
ATOM     20  O   UNL     1       6.949   4.090  11.648  0.00  0.00    +0.000 OA
ATOM     21  C   UNL     1       5.689   3.662  12.202  0.00  0.00    +0.000 C 
ATOM     22  C   UNL     1       5.883   3.132  13.630  0.00  0.00    +0.000 C 
ENDBRANCH  14  17
ENDBRANCH   7  11
BRANCH   8  23
ATOM     23  C   UNL     1       2.880   5.674  20.255  0.00  0.00    +0.000 C 
BRANCH  23  24
ATOM     24  C   UNL     1       1.668   4.747  20.475  0.00  0.00    +0.000 C 
ATOM     25  C   UNL     1       1.059   4.100  19.235  0.00  0.00    +0.000 C 
ATOM     26  C   UNL     1       1.848   2.967  18.598  0.00  0.00    +0.000 C 
ATOM     27  C   UNL     1       2.742   2.123  19.498  0.00  0.00    +0.000 C 
ATOM     28  C   UNL     1       2.900   2.519  20.960  0.00  0.00    +0.000 C 
ATOM     29  C   UNL     1       2.027   3.651  21.490  0.00  0.00    +0.000 C 
ENDBRANCH  23  24
ENDBRANCH   8  23
TORSDOF 4
ENDMDL
MODEL 2
REMARK VINA RESULT:      -8.4      3.628      6.640
REMARK  Name = 
REMARK  4 active torsions:
REMARK  status: ('A' for Active; 'I' for Inactive)
REMARK    1  A    between atoms: C_7  and  C_8
REMARK    2  A    between atoms: C_11  and  N_12
REMARK    3  A    between atoms: N_20  and  C_21
REMARK    4  A    between atoms: C_21  and  C_22
REMARK                            x       y       z     vdW  Elec       q    Type
REMARK                         _______ _______ _______ _____ _____    ______ ____
ROOT
ATOM      1 CL   UNL     1      -3.575  14.936  21.128  0.00  0.00    +0.000 Cl
ATOM      2  C   UNL     1      -2.337  13.739  21.219  0.00  0.00    +0.000 A 
ATOM      3  C   UNL     1      -1.467  13.713  22.309  0.00  0.00    +0.000 A 
ATOM      4  C   UNL     1      -0.460  12.735  22.382  0.00  0.00    +0.000 A 
ATOM      5  C   UNL     1      -0.329  11.779  21.345  0.00  0.00    +0.000 A 
ATOM      6  N   UNL     1       0.565  10.748  21.177  0.00  0.00    +0.000 NA
ATOM      7  C   UNL     1       0.343  10.209  19.980  0.00  0.00    +0.000 A 
ATOM      8  N   UNL     1      -0.760  10.848  19.395  0.00  0.00    +0.000 N 
ATOM      9  C   UNL     1      -1.198  11.848  20.268  0.00  0.00    +0.000 A 
ATOM     10  C   UNL     1      -2.216  12.817  20.178  0.00  0.00    +0.000 A 
ENDROOT
BRANCH   7  11
ATOM     11  C   UNL     1       1.189   9.115  19.401  0.00  0.00    +0.000 A 
ATOM     12  C   UNL     1       1.722   9.168  18.102  0.00  0.00    +0.000 A 
ATOM     13  C   UNL     1       2.566   8.132  17.595  0.00  0.00    +0.000 A 
ATOM     14  C   UNL     1       2.939   7.015  18.363  0.00  0.00    +0.000 A 
ATOM     15  C   UNL     1       2.374   6.970  19.634  0.00  0.00    +0.000 A 
ATOM     16  C   UNL     1       1.488   7.952  20.107  0.00  0.00    +0.000 A 
BRANCH  14  17
ATOM     17  N   UNL     1       3.827   6.048  17.926  0.00  0.00    +0.000 N 
ATOM     18  C   UNL     1       3.439   4.622  17.874  0.00  0.00    +0.000 C 
ATOM     19  C   UNL     1       4.140   3.815  18.990  0.00  0.00    +0.000 C 
ATOM     20  O   UNL     1       5.570   4.001  19.003  0.00  0.00    +0.000 OA
ATOM     21  C   UNL     1       5.879   5.398  19.174  0.00  0.00    +0.000 C 
ATOM     22  C   UNL     1       5.296   6.222  18.017  0.00  0.00    +0.000 C 
ENDBRANCH  14  17
ENDBRANCH   7  11
BRANCH   8  23
ATOM     23  C   UNL     1      -1.235  10.842  18.013  0.00  0.00    +0.000 C 
BRANCH  23  24
ATOM     24  C   UNL     1      -2.182   9.733  17.514  0.00  0.00    +0.000 C 
ATOM     25  C   UNL     1      -3.592   9.713  18.097  0.00  0.00    +0.000 C 
ATOM     26  C   UNL     1      -4.547  10.791  17.608  0.00  0.00    +0.000 C 
ATOM     27  C   UNL     1      -4.345  11.342  16.202  0.00  0.00    +0.000 C 
ATOM     28  C   UNL     1      -3.135  10.885  15.398  0.00  0.00    +0.000 C 
ATOM     29  C   UNL     1      -2.271   9.773  15.981  0.00  0.00    +0.000 C 
ENDBRANCH  23  24
ENDBRANCH   8  23
TORSDOF 4
ENDMDL
MODEL 3
REMARK VINA RESULT:      -8.3      3.739      6.775
REMARK  Name = 
REMARK  4 active torsions:
REMARK  status: ('A' for Active; 'I' for Inactive)
REMARK    1  A    between atoms: C_7  and  C_8
REMARK    2  A    between atoms: C_11  and  N_12
REMARK    3  A    between atoms: N_20  and  C_21
REMARK    4  A    between atoms: C_21  and  C_22
REMARK                            x       y       z     vdW  Elec       q    Type
REMARK                         _______ _______ _______ _____ _____    ______ ____
ROOT
ATOM      1 CL   UNL     1      -3.628  15.288  21.022  0.00  0.00    +0.000 Cl
ATOM      2  C   UNL     1      -2.387  14.101  21.177  0.00  0.00    +0.000 A 
ATOM      3  C   UNL     1      -1.486  14.166  22.241  0.00  0.00    +0.000 A 
ATOM      4  C   UNL     1      -0.475  13.197  22.366  0.00  0.00    +0.000 A 
ATOM      5  C   UNL     1      -0.372  12.158  21.409  0.00  0.00    +0.000 A 
ATOM      6  N   UNL     1       0.518  11.116  21.302  0.00  0.00    +0.000 NA
ATOM      7  C   UNL     1       0.263  10.479  20.162  0.00  0.00    +0.000 A 
ATOM      8  N   UNL     1      -0.856  11.067  19.557  0.00  0.00    +0.000 N 
ATOM      9  C   UNL     1      -1.272  12.137  20.355  0.00  0.00    +0.000 A 
ATOM     10  C   UNL     1      -2.293  13.095  20.214  0.00  0.00    +0.000 A 
ENDROOT
BRANCH   7  11
ATOM     11  C   UNL     1       1.094   9.340  19.652  0.00  0.00    +0.000 A 
ATOM     12  C   UNL     1       1.480   8.255  20.458  0.00  0.00    +0.000 A 
ATOM     13  C   UNL     1       2.230   7.159  19.932  0.00  0.00    +0.000 A 
ATOM     14  C   UNL     1       2.606   7.078  18.580  0.00  0.00    +0.000 A 
ATOM     15  C   UNL     1       2.240   8.178  17.809  0.00  0.00    +0.000 A 
ATOM     16  C   UNL     1       1.564   9.288  18.342  0.00  0.00    +0.000 A 
BRANCH  14  17
ATOM     17  N   UNL     1       3.252   5.986  18.029  0.00  0.00    +0.000 N 
ATOM     18  C   UNL     1       2.605   4.657  17.987  0.00  0.00    +0.000 C 
ATOM     19  C   UNL     1       3.254   3.691  19.004  0.00  0.00    +0.000 C 
ATOM     20  O   UNL     1       4.687   3.613  18.867  0.00  0.00    +0.000 OA
ATOM     21  C   UNL     1       5.264   4.923  19.035  0.00  0.00    +0.000 C 
ATOM     22  C   UNL     1       4.730   5.887  17.966  0.00  0.00    +0.000 C 
ENDBRANCH  14  17
ENDBRANCH   7  11
BRANCH   8  23
ATOM     23  C   UNL     1      -1.371  10.946  18.194  0.00  0.00    +0.000 C 
BRANCH  23  24
ATOM     24  C   UNL     1      -2.482   9.931  17.863  0.00  0.00    +0.000 C 
ATOM     25  C   UNL     1      -3.922  10.391  18.066  0.00  0.00    +0.000 C 
ATOM     26  C   UNL     1      -4.475  11.374  17.046  0.00  0.00    +0.000 C 
ATOM     27  C   UNL     1      -3.916  11.325  15.629  0.00  0.00    +0.000 C 
ATOM     28  C   UNL     1      -2.755  10.387  15.327  0.00  0.00    +0.000 C 
ATOM     29  C   UNL     1      -2.313   9.424  16.423  0.00  0.00    +0.000 C 
ENDBRANCH  23  24
ENDBRANCH   8  23
TORSDOF 4
ENDMDL
MODEL 4
REMARK VINA RESULT:      -8.2      3.953      8.079
REMARK  Name = 
REMARK  4 active torsions:
REMARK  status: ('A' for Active; 'I' for Inactive)
REMARK    1  A    between atoms: C_7  and  C_8
REMARK    2  A    between atoms: C_11  and  N_12
REMARK    3  A    between atoms: N_20  and  C_21
REMARK    4  A    between atoms: C_21  and  C_22
REMARK                            x       y       z     vdW  Elec       q    Type
REMARK                         _______ _______ _______ _____ _____    ______ ____
ROOT
ATOM      1 CL   UNL     1       4.785   0.787  19.614  0.00  0.00    +0.000 Cl
ATOM      2  C   UNL     1       3.936   2.229  20.032  0.00  0.00    +0.000 A 
ATOM      3  C   UNL     1       3.112   2.253  21.158  0.00  0.00    +0.000 A 
ATOM      4  C   UNL     1       2.422   3.430  21.498  0.00  0.00    +0.000 A 
ATOM      5  C   UNL     1       2.563   4.588  20.694  0.00  0.00    +0.000 A 
ATOM      6  N   UNL     1       1.997   5.835  20.804  0.00  0.00    +0.000 NA
ATOM      7  C   UNL     1       2.358   6.541  19.735  0.00  0.00    +0.000 A 
ATOM      8  N   UNL     1       3.234   5.768  18.959  0.00  0.00    +0.000 N 
ATOM      9  C   UNL     1       3.375   4.520  19.573  0.00  0.00    +0.000 A 
ATOM     10  C   UNL     1       4.077   3.353  19.218  0.00  0.00    +0.000 A 
ENDROOT
BRANCH   7  11
ATOM     11  C   UNL     1       1.854   7.925  19.453  0.00  0.00    +0.000 A 
ATOM     12  C   UNL     1       1.874   8.499  18.170  0.00  0.00    +0.000 A 
ATOM     13  C   UNL     1       1.341   9.801  17.923  0.00  0.00    +0.000 A 
ATOM     14  C   UNL     1       0.741  10.577  18.930  0.00  0.00    +0.000 A 
ATOM     15  C   UNL     1       0.760  10.001  20.196  0.00  0.00    +0.000 A 
ATOM     16  C   UNL     1       1.347   8.751  20.453  0.00  0.00    +0.000 A 
BRANCH  14  17
ATOM     17  N   UNL     1       0.137  11.800  18.695  0.00  0.00    +0.000 N 
ATOM     18  C   UNL     1       0.583  13.021  19.400  0.00  0.00    +0.000 C 
ATOM     19  C   UNL     1      -0.452  13.461  20.460  0.00  0.00    +0.000 C 
ATOM     20  O   UNL     1      -1.785  13.587  19.924  0.00  0.00    +0.000 OA
ATOM     21  C   UNL     1      -2.203  12.330  19.357  0.00  0.00    +0.000 C 
ATOM     22  C   UNL     1      -1.262  11.914  18.217  0.00  0.00    +0.000 C 
ENDBRANCH  14  17
ENDBRANCH   7  11
BRANCH   8  23
ATOM     23  C   UNL     1       3.687   5.945  17.581  0.00  0.00    +0.000 C 
BRANCH  23  24
ATOM     24  C   UNL     1       5.001   6.692  17.278  0.00  0.00    +0.000 C 
ATOM     25  C   UNL     1       6.258   6.194  17.984  0.00  0.00    +0.000 C 
ATOM     26  C   UNL     1       6.850   4.886  17.482  0.00  0.00    +0.000 C 
ATOM     27  C   UNL     1       6.642   4.521  16.018  0.00  0.00    +0.000 C 
ATOM     28  C   UNL     1       5.757   5.412  15.155  0.00  0.00    +0.000 C 
ATOM     29  C   UNL     1       5.251   6.715  15.762  0.00  0.00    +0.000 C 
ENDBRANCH  23  24
ENDBRANCH   8  23
TORSDOF 4
ENDMDL
MODEL 5
REMARK VINA RESULT:      -8.0      3.950      7.986
REMARK  Name = 
REMARK  4 active torsions:
REMARK  status: ('A' for Active; 'I' for Inactive)
REMARK    1  A    between atoms: C_7  and  C_8
REMARK    2  A    between atoms: C_11  and  N_12
REMARK    3  A    between atoms: N_20  and  C_21
REMARK    4  A    between atoms: C_21  and  C_22
REMARK                            x       y       z     vdW  Elec       q    Type
REMARK                         _______ _______ _______ _____ _____    ______ ____
ROOT
ATOM      1 CL   UNL     1       4.300   0.934  19.280  0.00  0.00    +0.000 Cl
ATOM      2  C   UNL     1       3.543   2.409  19.750  0.00  0.00    +0.000 A 
ATOM      3  C   UNL     1       2.721   2.445  20.877  0.00  0.00    +0.000 A 
ATOM      4  C   UNL     1       2.105   3.650  21.260  0.00  0.00    +0.000 A 
ATOM      5  C   UNL     1       2.319   4.825  20.498  0.00  0.00    +0.000 A 
ATOM      6  N   UNL     1       1.832   6.101  20.652  0.00  0.00    +0.000 NA
ATOM      7  C   UNL     1       2.238   6.820  19.609  0.00  0.00    +0.000 A 
ATOM      8  N   UNL     1       3.065   6.022  18.805  0.00  0.00    +0.000 N 
ATOM      9  C   UNL     1       3.126   4.746  19.374  0.00  0.00    +0.000 A 
ATOM     10  C   UNL     1       3.755   3.551  18.976  0.00  0.00    +0.000 A 
ENDROOT
BRANCH   7  11
ATOM     11  C   UNL     1       1.822   8.242  19.377  0.00  0.00    +0.000 A 
ATOM     12  C   UNL     1       1.172   9.017  20.353  0.00  0.00    +0.000 A 
ATOM     13  C   UNL     1       0.832  10.384  20.121  0.00  0.00    +0.000 A 
ATOM     14  C   UNL     1       1.146  11.050  18.923  0.00  0.00    +0.000 A 
ATOM     15  C   UNL     1       1.762  10.255  17.961  0.00  0.00    +0.000 A 
ATOM     16  C   UNL     1       2.032   8.891  18.163  0.00  0.00    +0.000 A 
BRANCH  14  17
ATOM     17  N   UNL     1       0.909  12.397  18.712  0.00  0.00    +0.000 N 
ATOM     18  C   UNL     1       1.848  13.425  19.210  0.00  0.00    +0.000 C 
ATOM     19  C   UNL     1       1.248  14.188  20.413  0.00  0.00    +0.000 C 
ATOM     20  O   UNL     1      -0.064  14.721  20.142  0.00  0.00    +0.000 OA
ATOM     21  C   UNL     1      -0.958  13.651  19.776  0.00  0.00    +0.000 C 
ATOM     22  C   UNL     1      -0.455  12.940  18.511  0.00  0.00    +0.000 C 
ENDBRANCH  14  17
ENDBRANCH   7  11
BRANCH   8  23
ATOM     23  C   UNL     1       3.530   6.220  17.434  0.00  0.00    +0.000 C 
BRANCH  23  24
ATOM     24  C   UNL     1       4.940   6.778  17.158  0.00  0.00    +0.000 C 
ATOM     25  C   UNL     1       6.078   6.239  18.019  0.00  0.00    +0.000 C 
ATOM     26  C   UNL     1       6.547   4.823  17.722  0.00  0.00    +0.000 C 
ATOM     27  C   UNL     1       6.401   4.305  16.297  0.00  0.00    +0.000 C 
ATOM     28  C   UNL     1       5.688   5.171  15.267  0.00  0.00    +0.000 C 
ATOM     29  C   UNL     1       5.296   6.586  15.675  0.00  0.00    +0.000 C 
ENDBRANCH  23  24
ENDBRANCH   8  23
TORSDOF 4
ENDMDL
MODEL 6
REMARK VINA RESULT:      -7.9      3.951      7.073
REMARK  Name = 
REMARK  4 active torsions:
REMARK  status: ('A' for Active; 'I' for Inactive)
REMARK    1  A    between atoms: C_7  and  C_8
REMARK    2  A    between atoms: C_11  and  N_12
REMARK    3  A    between atoms: N_20  and  C_21
REMARK    4  A    between atoms: C_21  and  C_22
REMARK                            x       y       z     vdW  Elec       q    Type
REMARK                         _______ _______ _______ _____ _____    ______ ____
ROOT
ATOM      1 CL   UNL     1      -2.010  16.773  20.617  0.00  0.00    +0.000 Cl
ATOM      2  C   UNL     1      -0.958  15.410  20.712  0.00  0.00    +0.000 A 
ATOM      3  C   UNL     1       0.184  15.462  21.512  0.00  0.00    +0.000 A 
ATOM      4  C   UNL     1       1.040  14.349  21.589  0.00  0.00    +0.000 A 
ATOM      5  C   UNL     1       0.740  13.177  20.852  0.00  0.00    +0.000 A 
ATOM      6  N   UNL     1       1.410  11.981  20.749  0.00  0.00    +0.000 NA
ATOM      7  C   UNL     1       0.781  11.240  19.840  0.00  0.00    +0.000 A 
ATOM      8  N   UNL     1      -0.357  11.932  19.403  0.00  0.00    +0.000 N 
ATOM      9  C   UNL     1      -0.392  13.169  20.053  0.00  0.00    +0.000 A 
ATOM     10  C   UNL     1      -1.263  14.271  19.965  0.00  0.00    +0.000 A 
ENDROOT
BRANCH   7  11
ATOM     11  C   UNL     1       1.277   9.900  19.384  0.00  0.00    +0.000 A 
ATOM     12  C   UNL     1       1.709   9.651  18.070  0.00  0.00    +0.000 A 
ATOM     13  C   UNL     1       2.223   8.378  17.678  0.00  0.00    +0.000 A 
ATOM     14  C   UNL     1       2.357   7.305  18.578  0.00  0.00    +0.000 A 
ATOM     15  C   UNL     1       1.894   7.566  19.864  0.00  0.00    +0.000 A 
ATOM     16  C   UNL     1       1.323   8.795  20.232  0.00  0.00    +0.000 A 
BRANCH  14  17
ATOM     17  N   UNL     1       2.936   6.094  18.244  0.00  0.00    +0.000 N 
ATOM     18  C   UNL     1       2.293   4.813  18.607  0.00  0.00    +0.000 C 
ATOM     19  C   UNL     1       3.061   4.110  19.750  0.00  0.00    +0.000 C 
ATOM     20  O   UNL     1       4.469   3.964  19.472  0.00  0.00    +0.000 OA
ATOM     21  C   UNL     1       5.057   5.259  19.243  0.00  0.00    +0.000 C 
ATOM     22  C   UNL     1       4.397   5.944  18.037  0.00  0.00    +0.000 C 
ENDBRANCH  14  17
ENDBRANCH   7  11
BRANCH   8  23
ATOM     23  C   UNL     1      -1.215  11.707  18.241  0.00  0.00    +0.000 C 
BRANCH  23  24
ATOM     24  C   UNL     1      -2.250  10.564  18.241  0.00  0.00    +0.000 C 
ATOM     25  C   UNL     1      -3.720  10.963  18.318  0.00  0.00    +0.000 C 
ATOM     26  C   UNL     1      -4.333  11.559  17.061  0.00  0.00    +0.000 C 
ATOM     27  C   UNL     1      -3.762  11.132  15.714  0.00  0.00    +0.000 C 
ATOM     28  C   UNL     1      -2.536  10.229  15.687  0.00  0.00    +0.000 C 
ATOM     29  C   UNL     1      -2.036   9.667  17.012  0.00  0.00    +0.000 C 
ENDBRANCH  23  24
ENDBRANCH   8  23
TORSDOF 4
ENDMDL
MODEL 7
REMARK VINA RESULT:      -7.9      4.119      7.449
REMARK  Name = 
REMARK  4 active torsions:
REMARK  status: ('A' for Active; 'I' for Inactive)
REMARK    1  A    between atoms: C_7  and  C_8
REMARK    2  A    between atoms: C_11  and  N_12
REMARK    3  A    between atoms: N_20  and  C_21
REMARK    4  A    between atoms: C_21  and  C_22
REMARK                            x       y       z     vdW  Elec       q    Type
REMARK                         _______ _______ _______ _____ _____    ______ ____
ROOT
ATOM      1 CL   UNL     1      -1.677  17.228  19.810  0.00  0.00    +0.000 Cl
ATOM      2  C   UNL     1      -0.767  15.816  20.197  0.00  0.00    +0.000 A 
ATOM      3  C   UNL     1       0.307  15.897  21.084  0.00  0.00    +0.000 A 
ATOM      4  C   UNL     1       1.047  14.744  21.399  0.00  0.00    +0.000 A 
ATOM      5  C   UNL     1       0.702  13.502  20.813  0.00  0.00    +0.000 A 
ATOM      6  N   UNL     1       1.265  12.255  20.945  0.00  0.00    +0.000 NA
ATOM      7  C   UNL     1       0.645  11.437  20.097  0.00  0.00    +0.000 A 
ATOM      8  N   UNL     1      -0.385  12.143  19.461  0.00  0.00    +0.000 N 
ATOM      9  C   UNL     1      -0.359  13.463  19.921  0.00  0.00    +0.000 A 
ATOM     10  C   UNL     1      -1.114  14.605  19.596  0.00  0.00    +0.000 A 
ENDROOT
BRANCH   7  11
ATOM     11  C   UNL     1       1.051  10.009  19.886  0.00  0.00    +0.000 A 
ATOM     12  C   UNL     1       1.524   9.523  18.655  0.00  0.00    +0.000 A 
ATOM     13  C   UNL     1       1.950   8.168  18.498  0.00  0.00    +0.000 A 
ATOM     14  C   UNL     1       1.951   7.246  19.560  0.00  0.00    +0.000 A 
ATOM     15  C   UNL     1       1.450   7.742  20.760  0.00  0.00    +0.000 A 
ATOM     16  C   UNL     1       0.965   9.054  20.896  0.00  0.00    +0.000 A 
BRANCH  14  17
ATOM     17  N   UNL     1       2.444   5.958  19.454  0.00  0.00    +0.000 N 
ATOM     18  C   UNL     1       2.637   5.320  18.134  0.00  0.00    +0.000 C 
ATOM     19  C   UNL     1       1.575   4.224  17.887  0.00  0.00    +0.000 C 
ATOM     20  O   UNL     1       1.500   3.264  18.961  0.00  0.00    +0.000 OA
ATOM     21  C   UNL     1       1.194   3.939  20.197  0.00  0.00    +0.000 C 
ATOM     22  C   UNL     1       2.290   4.959  20.538  0.00  0.00    +0.000 C 
ENDBRANCH  14  17
ENDBRANCH   7  11
BRANCH   8  23
ATOM     23  C   UNL     1      -1.164  11.815  18.268  0.00  0.00    +0.000 C 
BRANCH  23  24
ATOM     24  C   UNL     1      -2.212  10.686  18.304  0.00  0.00    +0.000 C 
ATOM     25  C   UNL     1      -3.680  11.103  18.292  0.00  0.00    +0.000 C 
ATOM     26  C   UNL     1      -4.233  11.617  16.972  0.00  0.00    +0.000 C 
ATOM     27  C   UNL     1      -3.613  11.091  15.683  0.00  0.00    +0.000 C 
ATOM     28  C   UNL     1      -2.398  10.177  15.769  0.00  0.00    +0.000 C 
ATOM     29  C   UNL     1      -1.960   9.703  17.150  0.00  0.00    +0.000 C 
ENDBRANCH  23  24
ENDBRANCH   8  23
TORSDOF 4
ENDMDL
MODEL 8
REMARK VINA RESULT:      -7.7      3.878      7.074
REMARK  Name = 
REMARK  4 active torsions:
REMARK  status: ('A' for Active; 'I' for Inactive)
REMARK    1  A    between atoms: C_7  and  C_8
REMARK    2  A    between atoms: C_11  and  N_12
REMARK    3  A    between atoms: N_20  and  C_21
REMARK    4  A    between atoms: C_21  and  C_22
REMARK                            x       y       z     vdW  Elec       q    Type
REMARK                         _______ _______ _______ _____ _____    ______ ____
ROOT
ATOM      1 CL   UNL     1      -4.338  15.157  21.318  0.00  0.00    +0.000 Cl
ATOM      2  C   UNL     1      -3.098  13.988  21.582  0.00  0.00    +0.000 A 
ATOM      3  C   UNL     1      -2.363  14.003  22.768  0.00  0.00    +0.000 A 
ATOM      4  C   UNL     1      -1.354  13.049  22.982  0.00  0.00    +0.000 A 
ATOM      5  C   UNL     1      -1.083  12.074  21.989  0.00  0.00    +0.000 A 
ATOM      6  N   UNL     1      -0.157  11.059  21.952  0.00  0.00    +0.000 NA
ATOM      7  C   UNL     1      -0.225  10.491  20.750  0.00  0.00    +0.000 A 
ATOM      8  N   UNL     1      -1.262  11.094  20.024  0.00  0.00    +0.000 N 
ATOM      9  C   UNL     1      -1.820  12.103  20.816  0.00  0.00    +0.000 A 
ATOM     10  C   UNL     1      -2.837  13.047  20.585  0.00  0.00    +0.000 A 
ENDROOT
BRANCH   7  11
ATOM     11  C   UNL     1       0.703   9.403  20.300  0.00  0.00    +0.000 A 
ATOM     12  C   UNL     1       1.124   8.360  21.144  0.00  0.00    +0.000 A 
ATOM     13  C   UNL     1       1.970   7.310  20.673  0.00  0.00    +0.000 A 
ATOM     14  C   UNL     1       2.412   7.233  19.340  0.00  0.00    +0.000 A 
ATOM     15  C   UNL     1       2.008   8.292  18.533  0.00  0.00    +0.000 A 
ATOM     16  C   UNL     1       1.235   9.362  19.013  0.00  0.00    +0.000 A 
BRANCH  14  17
ATOM     17  N   UNL     1       3.155   6.178  18.840  0.00  0.00    +0.000 N 
ATOM     18  C   UNL     1       2.828   5.565  17.535  0.00  0.00    +0.000 C 
ATOM     19  C   UNL     1       2.198   4.166  17.721  0.00  0.00    +0.000 C 
ATOM     20  O   UNL     1       2.992   3.300  18.557  0.00  0.00    +0.000 OA
ATOM     21  C   UNL     1       3.173   3.905  19.852  0.00  0.00    +0.000 C 
ATOM     22  C   UNL     1       3.904   5.249  19.719  0.00  0.00    +0.000 C 
ENDBRANCH  14  17
ENDBRANCH   7  11
BRANCH   8  23
ATOM     23  C   UNL     1      -1.570  11.049  18.596  0.00  0.00    +0.000 C 
BRANCH  23  24
ATOM     24  C   UNL     1      -2.416   9.901  18.012  0.00  0.00    +0.000 C 
ATOM     25  C   UNL     1      -3.927   9.990  18.202  0.00  0.00    +0.000 C 
ATOM     26  C   UNL     1      -4.664  11.009  17.345  0.00  0.00    +0.000 C 
ATOM     27  C   UNL     1      -4.076  11.357  15.983  0.00  0.00    +0.000 C 
ATOM     28  C   UNL     1      -2.727  10.769  15.590  0.00  0.00    +0.000 C 
ATOM     29  C   UNL     1      -2.105   9.731  16.518  0.00  0.00    +0.000 C 
ENDBRANCH  23  24
ENDBRANCH   8  23
TORSDOF 4
ENDMDL
MODEL 9
REMARK VINA RESULT:      -7.6      3.716      6.868
REMARK  Name = 
REMARK  4 active torsions:
REMARK  status: ('A' for Active; 'I' for Inactive)
REMARK    1  A    between atoms: C_7  and  C_8
REMARK    2  A    between atoms: C_11  and  N_12
REMARK    3  A    between atoms: N_20  and  C_21
REMARK    4  A    between atoms: C_21  and  C_22
REMARK                            x       y       z     vdW  Elec       q    Type
REMARK                         _______ _______ _______ _____ _____    ______ ____
ROOT
ATOM      1 CL   UNL     1      -2.152  16.460  20.129  0.00  0.00    +0.000 Cl
ATOM      2  C   UNL     1      -1.187  15.081  20.499  0.00  0.00    +0.000 A 
ATOM      3  C   UNL     1      -0.238  15.145  21.520  0.00  0.00    +0.000 A 
ATOM      4  C   UNL     1       0.548  14.019  21.822  0.00  0.00    +0.000 A 
ATOM      5  C   UNL     1       0.375  12.821  21.085  0.00  0.00    +0.000 A 
ATOM      6  N   UNL     1       1.015  11.608  21.175  0.00  0.00    +0.000 NA
ATOM      7  C   UNL     1       0.569  10.839  20.184  0.00  0.00    +0.000 A 
ATOM      8  N   UNL     1      -0.430  11.534  19.488  0.00  0.00    +0.000 N 
ATOM      9  C   UNL     1      -0.563  12.801  20.066  0.00  0.00    +0.000 A 
ATOM     10  C   UNL     1      -1.362  13.916  19.751  0.00  0.00    +0.000 A 
ENDROOT
BRANCH   7  11
ATOM     11  C   UNL     1       1.109   9.469  19.899  0.00  0.00    +0.000 A 
ATOM     12  C   UNL     1       1.558   9.075  18.627  0.00  0.00    +0.000 A 
ATOM     13  C   UNL     1       2.114   7.779  18.396  0.00  0.00    +0.000 A 
ATOM     14  C   UNL     1       2.272   6.830  19.420  0.00  0.00    +0.000 A 
ATOM     15  C   UNL     1       1.792   7.232  20.664  0.00  0.00    +0.000 A 
ATOM     16  C   UNL     1       1.182   8.479  20.875  0.00  0.00    +0.000 A 
BRANCH  14  17
ATOM     17  N   UNL     1       2.891   5.605  19.240  0.00  0.00    +0.000 N 
ATOM     18  C   UNL     1       4.303   5.519  18.809  0.00  0.00    +0.000 C 
ATOM     19  C   UNL     1       4.408   5.041  17.343  0.00  0.00    +0.000 C 
ATOM     20  O   UNL     1       3.677   3.822  17.096  0.00  0.00    +0.000 OA
ATOM     21  C   UNL     1       2.287   4.012  17.426  0.00  0.00    +0.000 C 
ATOM     22  C   UNL     1       2.132   4.375  18.910  0.00  0.00    +0.000 C 
ENDBRANCH  14  17
ENDBRANCH   7  11
BRANCH   8  23
ATOM     23  C   UNL     1      -1.030  11.275  18.181  0.00  0.00    +0.000 C 
BRANCH  23  24
ATOM     24  C   UNL     1      -2.141  10.218  18.025  0.00  0.00    +0.000 C 
ATOM     25  C   UNL     1      -3.566  10.661  18.339  0.00  0.00    +0.000 C 
ATOM     26  C   UNL     1      -4.241  11.566  17.319  0.00  0.00    +0.000 C 
ATOM     27  C   UNL     1      -3.821  11.437  15.860  0.00  0.00    +0.000 C 
ATOM     28  C   UNL     1      -2.671  10.505  15.504  0.00  0.00    +0.000 C 
ATOM     29  C   UNL     1      -2.100   9.623  16.609  0.00  0.00    +0.000 C 
ENDBRANCH  23  24
ENDBRANCH   8  23
TORSDOF 4
ENDMDL
