MODEL 1
REMARK VINA RESULT:      -8.4      0.000      0.000
REMARK  Name = 
REMARK  5 active torsions:
REMARK  status: ('A' for Active; 'I' for Inactive)
REMARK    1  A    between atoms: C_2  and  C_3
REMARK    2  A    between atoms: C_9  and  S_10
REMARK    3  A    between atoms: S_10  and  N_13
REMARK    4  A    between atoms: N_13  and  C_14
REMARK    5  A    between atoms: C_17  and  C_18
REMARK                            x       y       z     vdW  Elec       q    Type
REMARK                         _______ _______ _______ _____ _____    ______ ____
ROOT
ATOM      1  C   UNL     1       0.554   9.712  19.786  0.00  0.00    +0.000 A 
ATOM      2  C   UNL     1       0.851   9.832  18.435  0.00  0.00    +0.000 A 
ATOM      3  C   UNL     1       1.707   8.902  17.834  0.00  0.00    +0.000 A 
ATOM      4  C   UNL     1       2.299   7.855  18.570  0.00  0.00    +0.000 A 
ATOM      5  C   UNL     1       1.977   7.767  19.935  0.00  0.00    +0.000 A 
ATOM      6  C   UNL     1       1.116   8.687  20.538  0.00  0.00    +0.000 A 
ENDROOT
BRANCH   4   7
ATOM      7  C   UNL     1       3.259   6.913  17.943  0.00  0.00    +0.000 A 
ATOM      8  C   UNL     1       2.961   5.540  17.872  0.00  0.00    +0.000 A 
ATOM      9  C   UNL     1       3.828   4.610  17.281  0.00  0.00    +0.000 A 
ATOM     10  C   UNL     1       5.024   5.071  16.713  0.00  0.00    +0.000 A 
ATOM     11  C   UNL     1       6.124   4.492  16.031  0.00  0.00    +0.000 A 
ATOM     12  N   UNL     1       6.237   3.184  15.767  0.00  0.00    +0.000 N 
ATOM     13  N   UNL     1       7.026   5.396  15.666  0.00  0.00    +0.000 NA
ATOM     14  N   UNL     1       6.521   6.554  16.133  0.00  0.00    +0.000 N 
ATOM     15  C   UNL     1       5.316   6.428  16.771  0.00  0.00    +0.000 A 
ATOM     16  C   UNL     1       4.473   7.367  17.382  0.00  0.00    +0.000 A 
ATOM     17  H   UNL     1       5.429   2.577  15.809  0.00  0.00    +0.000 HD
ATOM     18  H   UNL     1       6.933   2.911  15.083  0.00  0.00    +0.000 HD
ATOM     19  H   UNL     1       7.049   7.403  15.968  0.00  0.00    +0.000 HD
ENDBRANCH   4   7
BRANCH   1  20
ATOM     20  N   UNL     1      -0.313  10.624  20.435  0.00  0.00    +0.000 N 
ATOM     21  H   UNL     1      -0.993  10.263  21.106  0.00  0.00    +0.000 HD
BRANCH  20  22
ATOM     22  S   UNL     1       0.239  12.167  20.794  0.00  0.00    +0.000 S 
ATOM     23  O   UNL     1       0.055  13.006  19.630  0.00  0.00    +0.000 OA
ATOM     24  O   UNL     1       1.542  12.033  21.408  0.00  0.00    +0.000 OA
BRANCH  22  31
ATOM     25  C   UNL     1      -0.662  13.954  22.723  0.00  0.00    +0.000 A 
ATOM     26  C   UNL     1      -1.591  14.347  23.699  0.00  0.00    +0.000 A 
ATOM     27 CL   UNL     1      -1.428  15.826  24.584  0.00  0.00    +0.000 Cl
ATOM     28  C   UNL     1      -2.696  13.542  24.006  0.00  0.00    +0.000 A 
ATOM     29  C   UNL     1      -2.884  12.329  23.350  0.00  0.00    +0.000 A 
ATOM     30  C   UNL     1      -1.970  11.919  22.384  0.00  0.00    +0.000 A 
ATOM     31  C   UNL     1      -0.866  12.728  22.069  0.00  0.00    +0.000 A 
BRANCH  25  33
ATOM     32  N   UNL     1       1.423  15.428  22.267  0.00  0.00    +0.000 NA
ATOM     33  C   UNL     1       0.479  14.776  22.444  0.00  0.00    +0.000 C 
ENDBRANCH  25  33
ENDBRANCH  22  31
ENDBRANCH  20  22
ENDBRANCH   1  20
TORSDOF 5
ENDMDL
MODEL 2
REMARK VINA RESULT:      -8.3      2.844      3.511
REMARK  Name = 
REMARK  5 active torsions:
REMARK  status: ('A' for Active; 'I' for Inactive)
REMARK    1  A    between atoms: C_2  and  C_3
REMARK    2  A    between atoms: C_9  and  S_10
REMARK    3  A    between atoms: S_10  and  N_13
REMARK    4  A    between atoms: N_13  and  C_14
REMARK    5  A    between atoms: C_17  and  C_18
REMARK                            x       y       z     vdW  Elec       q    Type
REMARK                         _______ _______ _______ _____ _____    ______ ____
ROOT
ATOM      1  C   UNL     1       1.197   9.972  19.066  0.00  0.00    +0.000 A 
ATOM      2  C   UNL     1       1.139   9.180  20.204  0.00  0.00    +0.000 A 
ATOM      3  C   UNL     1       1.607   7.862  20.150  0.00  0.00    +0.000 A 
ATOM      4  C   UNL     1       2.116   7.305  18.959  0.00  0.00    +0.000 A 
ATOM      5  C   UNL     1       2.157   8.135  17.827  0.00  0.00    +0.000 A 
ATOM      6  C   UNL     1       1.700   9.454  17.878  0.00  0.00    +0.000 A 
ENDROOT
BRANCH   4   7
ATOM      7  C   UNL     1       2.548   5.886  18.890  0.00  0.00    +0.000 A 
ATOM      8  C   UNL     1       2.041   5.039  17.889  0.00  0.00    +0.000 A 
ATOM      9  C   UNL     1       2.424   3.695  17.774  0.00  0.00    +0.000 A 
ATOM     10  C   UNL     1       3.372   3.185  18.674  0.00  0.00    +0.000 A 
ATOM     11  C   UNL     1       4.018   1.941  18.884  0.00  0.00    +0.000 A 
ATOM     12  N   UNL     1       3.800   0.849  18.142  0.00  0.00    +0.000 N 
ATOM     13  N   UNL     1       4.880   1.984  19.895  0.00  0.00    +0.000 NA
ATOM     14  N   UNL     1       4.772   3.246  20.350  0.00  0.00    +0.000 N 
ATOM     15  C   UNL     1       3.883   4.023  19.657  0.00  0.00    +0.000 A 
ATOM     16  C   UNL     1       3.490   5.361  19.802  0.00  0.00    +0.000 A 
ATOM     17  H   UNL     1       3.361   0.920  17.234  0.00  0.00    +0.000 HD
ATOM     18  H   UNL     1       4.472   0.094  18.225  0.00  0.00    +0.000 HD
ATOM     19  H   UNL     1       5.351   3.518  21.137  0.00  0.00    +0.000 HD
ENDBRANCH   4   7
BRANCH   1  20
ATOM     20  N   UNL     1       0.743  11.313  19.075  0.00  0.00    +0.000 N 
ATOM     21  H   UNL     1       1.365  12.045  18.730  0.00  0.00    +0.000 HD
BRANCH  20  22
ATOM     22  S   UNL     1      -0.884  11.630  18.819  0.00  0.00    +0.000 S 
ATOM     23  O   UNL     1      -1.544  10.396  18.450  0.00  0.00    +0.000 OA
ATOM     24  O   UNL     1      -0.973  12.796  17.969  0.00  0.00    +0.000 OA
BRANCH  22  31
ATOM     25  C   UNL     1      -2.845  12.350  20.653  0.00  0.00    +0.000 A 
ATOM     26  C   UNL     1      -3.245  12.710  21.949  0.00  0.00    +0.000 A 
ATOM     27 CL   UNL     1      -4.900  13.034  22.346  0.00  0.00    +0.000 Cl
ATOM     28  C   UNL     1      -2.309  12.833  22.984  0.00  0.00    +0.000 A 
ATOM     29  C   UNL     1      -0.957  12.607  22.737  0.00  0.00    +0.000 A 
ATOM     30  C   UNL     1      -0.540  12.257  21.457  0.00  0.00    +0.000 A 
ATOM     31  C   UNL     1      -1.479  12.125  20.420  0.00  0.00    +0.000 A 
BRANCH  25  33
ATOM     32  N   UNL     1      -4.626  12.226  18.771  0.00  0.00    +0.000 NA
ATOM     33  C   UNL     1      -3.814  12.259  19.600  0.00  0.00    +0.000 C 
ENDBRANCH  25  33
ENDBRANCH  22  31
ENDBRANCH  20  22
ENDBRANCH   1  20
TORSDOF 5
ENDMDL
MODEL 3
REMARK VINA RESULT:      -8.3      1.567      1.863
REMARK  Name = 
REMARK  5 active torsions:
REMARK  status: ('A' for Active; 'I' for Inactive)
REMARK    1  A    between atoms: C_2  and  C_3
REMARK    2  A    between atoms: C_9  and  S_10
REMARK    3  A    between atoms: S_10  and  N_13
REMARK    4  A    between atoms: N_13  and  C_14
REMARK    5  A    between atoms: C_17  and  C_18
REMARK                            x       y       z     vdW  Elec       q    Type
REMARK                         _______ _______ _______ _____ _____    ______ ____
ROOT
ATOM      1  C   UNL     1       0.785   9.486  19.792  0.00  0.00    +0.000 A 
ATOM      2  C   UNL     1       1.137   9.694  18.466  0.00  0.00    +0.000 A 
ATOM      3  C   UNL     1       1.982   8.780  17.826  0.00  0.00    +0.000 A 
ATOM      4  C   UNL     1       2.511   7.662  18.502  0.00  0.00    +0.000 A 
ATOM      5  C   UNL     1       2.135   7.485  19.845  0.00  0.00    +0.000 A 
ATOM      6  C   UNL     1       1.284   8.388  20.485  0.00  0.00    +0.000 A 
ENDROOT
BRANCH   4   7
ATOM      7  C   UNL     1       3.461   6.733  17.840  0.00  0.00    +0.000 A 
ATOM      8  C   UNL     1       3.130   5.376  17.679  0.00  0.00    +0.000 A 
ATOM      9  C   UNL     1       3.986   4.460  17.051  0.00  0.00    +0.000 A 
ATOM     10  C   UNL     1       5.208   4.923  16.539  0.00  0.00    +0.000 A 
ATOM     11  C   UNL     1       6.307   4.357  15.847  0.00  0.00    +0.000 A 
ATOM     12  N   UNL     1       6.393   3.065  15.507  0.00  0.00    +0.000 N 
ATOM     13  N   UNL     1       7.241   5.257  15.558  0.00  0.00    +0.000 NA
ATOM     14  N   UNL     1       6.755   6.397  16.084  0.00  0.00    +0.000 N 
ATOM     15  C   UNL     1       5.532   6.265  16.686  0.00  0.00    +0.000 A 
ATOM     16  C   UNL     1       4.699   7.188  17.334  0.00  0.00    +0.000 A 
ATOM     17  H   UNL     1       5.570   2.478  15.493  0.00  0.00    +0.000 HD
ATOM     18  H   UNL     1       7.098   2.815  14.822  0.00  0.00    +0.000 HD
ATOM     19  H   UNL     1       7.308   7.241  15.982  0.00  0.00    +0.000 HD
ENDBRANCH   4   7
BRANCH   1  20
ATOM     20  N   UNL     1      -0.073  10.379  20.478  0.00  0.00    +0.000 N 
ATOM     21  H   UNL     1      -0.501  10.075  21.354  0.00  0.00    +0.000 HD
BRANCH  20  22
ATOM     22  S   UNL     1       0.233  12.027  20.410  0.00  0.00    +0.000 S 
ATOM     23  O   UNL     1       0.313  12.425  19.021  0.00  0.00    +0.000 OA
ATOM     24  O   UNL     1       1.319  12.307  21.322  0.00  0.00    +0.000 OA
BRANCH  22  31
ATOM     25  C   UNL     1      -1.764  12.288  22.326  0.00  0.00    +0.000 A 
ATOM     26  C   UNL     1      -2.899  12.933  22.842  0.00  0.00    +0.000 A 
ATOM     27 CL   UNL     1      -3.663  12.422  24.310  0.00  0.00    +0.000 Cl
ATOM     28  C   UNL     1      -3.472  14.024  22.175  0.00  0.00    +0.000 A 
ATOM     29  C   UNL     1      -2.926  14.480  20.978  0.00  0.00    +0.000 A 
ATOM     30  C   UNL     1      -1.805  13.848  20.447  0.00  0.00    +0.000 A 
ATOM     31  C   UNL     1      -1.225  12.759  21.119  0.00  0.00    +0.000 A 
BRANCH  25  33
ATOM     32  N   UNL     1      -0.752  10.213  23.510  0.00  0.00    +0.000 NA
ATOM     33  C   UNL     1      -1.211  11.153  23.007  0.00  0.00    +0.000 C 
ENDBRANCH  25  33
ENDBRANCH  22  31
ENDBRANCH  20  22
ENDBRANCH   1  20
TORSDOF 5
ENDMDL
MODEL 4
REMARK VINA RESULT:      -8.3      3.819      4.923
REMARK  Name = 
REMARK  5 active torsions:
REMARK  status: ('A' for Active; 'I' for Inactive)
REMARK    1  A    between atoms: C_2  and  C_3
REMARK    2  A    between atoms: C_9  and  S_10
REMARK    3  A    between atoms: S_10  and  N_13
REMARK    4  A    between atoms: N_13  and  C_14
REMARK    5  A    between atoms: C_17  and  C_18
REMARK                            x       y       z     vdW  Elec       q    Type
REMARK                         _______ _______ _______ _____ _____    ______ ____
ROOT
ATOM      1  C   UNL     1       0.879  10.389  18.859  0.00  0.00    +0.000 A 
ATOM      2  C   UNL     1       0.822   9.822  20.125  0.00  0.00    +0.000 A 
ATOM      3  C   UNL     1       1.390   8.561  20.340  0.00  0.00    +0.000 A 
ATOM      4  C   UNL     1       2.000   7.835  19.297  0.00  0.00    +0.000 A 
ATOM      5  C   UNL     1       2.037   8.439  18.029  0.00  0.00    +0.000 A 
ATOM      6  C   UNL     1       1.480   9.701  17.811  0.00  0.00    +0.000 A 
ENDROOT
BRANCH   4   7
ATOM      7  C   UNL     1       2.540   6.470  19.515  0.00  0.00    +0.000 A 
ATOM      8  C   UNL     1       3.606   5.995  18.730  0.00  0.00    +0.000 A 
ATOM      9  C   UNL     1       4.160   4.718  18.903  0.00  0.00    +0.000 A 
ATOM     10  C   UNL     1       3.649   3.895  19.917  0.00  0.00    +0.000 A 
ATOM     11  C   UNL     1       3.923   2.597  20.416  0.00  0.00    +0.000 A 
ATOM     12  N   UNL     1       4.873   1.791  19.926  0.00  0.00    +0.000 N 
ATOM     13  N   UNL     1       3.141   2.273  21.441  0.00  0.00    +0.000 NA
ATOM     14  N   UNL     1       2.347   3.352  21.586  0.00  0.00    +0.000 N 
ATOM     15  C   UNL     1       2.604   4.365  20.701  0.00  0.00    +0.000 A 
ATOM     16  C   UNL     1       2.022   5.628  20.524  0.00  0.00    +0.000 A 
ATOM     17  H   UNL     1       5.615   2.159  19.347  0.00  0.00    +0.000 HD
ATOM     18  H   UNL     1       5.139   0.994  20.494  0.00  0.00    +0.000 HD
ATOM     19  H   UNL     1       1.655   3.335  22.326  0.00  0.00    +0.000 HD
ENDBRANCH   4   7
BRANCH   1  20
ATOM     20  N   UNL     1       0.326  11.665  18.596  0.00  0.00    +0.000 N 
ATOM     21  H   UNL     1       0.442  12.068  17.666  0.00  0.00    +0.000 HD
BRANCH  20  22
ATOM     22  S   UNL     1      -1.100  12.114  19.357  0.00  0.00    +0.000 S 
ATOM     23  O   UNL     1      -1.119  13.554  19.490  0.00  0.00    +0.000 OA
ATOM     24  O   UNL     1      -1.264  11.263  20.514  0.00  0.00    +0.000 OA
BRANCH  22  31
ATOM     25  C   UNL     1      -3.726  11.845  18.484  0.00  0.00    +0.000 A 
ATOM     26  C   UNL     1      -4.668  11.476  17.512  0.00  0.00    +0.000 A 
ATOM     27 CL   UNL     1      -6.372  11.659  17.763  0.00  0.00    +0.000 Cl
ATOM     28  C   UNL     1      -4.263  10.928  16.288  0.00  0.00    +0.000 A 
ATOM     29  C   UNL     1      -2.911  10.733  16.020  0.00  0.00    +0.000 A 
ATOM     30  C   UNL     1      -1.962  11.085  16.975  0.00  0.00    +0.000 A 
ATOM     31  C   UNL     1      -2.366  11.643  18.199  0.00  0.00    +0.000 A 
BRANCH  25  33
ATOM     32  N   UNL     1      -4.464  12.823  20.771  0.00  0.00    +0.000 NA
ATOM     33  C   UNL     1      -4.162  12.376  19.743  0.00  0.00    +0.000 C 
ENDBRANCH  25  33
ENDBRANCH  22  31
ENDBRANCH  20  22
ENDBRANCH   1  20
TORSDOF 5
ENDMDL
MODEL 5
REMARK VINA RESULT:      -8.2      6.573      9.432
REMARK  Name = 
REMARK  5 active torsions:
REMARK  status: ('A' for Active; 'I' for Inactive)
REMARK    1  A    between atoms: C_2  and  C_3
REMARK    2  A    between atoms: C_9  and  S_10
REMARK    3  A    between atoms: S_10  and  N_13
REMARK    4  A    between atoms: N_13  and  C_14
REMARK    5  A    between atoms: C_17  and  C_18
REMARK                            x       y       z     vdW  Elec       q    Type
REMARK                         _______ _______ _______ _____ _____    ______ ____
ROOT
ATOM      1  C   UNL     1       7.178   5.749  17.793  0.00  0.00    +0.000 A 
ATOM      2  C   UNL     1       6.938   6.769  16.883  0.00  0.00    +0.000 A 
ATOM      3  C   UNL     1       7.467   8.043  17.122  0.00  0.00    +0.000 A 
ATOM      4  C   UNL     1       8.219   8.327  18.280  0.00  0.00    +0.000 A 
ATOM      5  C   UNL     1       8.439   7.271  19.180  0.00  0.00    +0.000 A 
ATOM      6  C   UNL     1       7.922   5.996  18.941  0.00  0.00    +0.000 A 
ENDROOT
BRANCH   4   7
ATOM      7  C   UNL     1       8.721   9.696  18.561  0.00  0.00    +0.000 A 
ATOM      8  C   UNL     1       9.424   9.963  19.750  0.00  0.00    +0.000 A 
ATOM      9  C   UNL     1       9.927  11.234  20.059  0.00  0.00    +0.000 A 
ATOM     10  C   UNL     1       9.746  12.273  19.134  0.00  0.00    +0.000 A 
ATOM     11  C   UNL     1      10.098  13.644  19.052  0.00  0.00    +0.000 A 
ATOM     12  N   UNL     1      10.774  14.301  20.002  0.00  0.00    +0.000 N 
ATOM     13  N   UNL     1       9.697  14.202  17.915  0.00  0.00    +0.000 NA
ATOM     14  N   UNL     1       9.065  13.199  17.275  0.00  0.00    +0.000 N 
ATOM     15  C   UNL     1       9.062  12.010  17.954  0.00  0.00    +0.000 A 
ATOM     16  C   UNL     1       8.530  10.751  17.642  0.00  0.00    +0.000 A 
ATOM     17  H   UNL     1      11.294  13.799  20.709  0.00  0.00    +0.000 HD
ATOM     18  H   UNL     1      11.171  15.199  19.747  0.00  0.00    +0.000 HD
ATOM     19  H   UNL     1       8.668  13.394  16.363  0.00  0.00    +0.000 HD
ENDBRANCH   4   7
BRANCH   1  20
ATOM     20  N   UNL     1       6.670   4.443  17.590  0.00  0.00    +0.000 N 
ATOM     21  H   UNL     1       6.888   3.719  18.275  0.00  0.00    +0.000 HD
BRANCH  20  22
ATOM     22  S   UNL     1       5.177   4.249  16.851  0.00  0.00    +0.000 S 
ATOM     23  O   UNL     1       4.878   2.836  16.774  0.00  0.00    +0.000 OA
ATOM     24  O   UNL     1       5.169   5.071  15.660  0.00  0.00    +0.000 OA
BRANCH  22  31
ATOM     25  C   UNL     1       3.723   4.391  19.216  0.00  0.00    +0.000 A 
ATOM     26  C   UNL     1       2.838   5.056  20.079  0.00  0.00    +0.000 A 
ATOM     27 CL   UNL     1       2.362   4.388  21.605  0.00  0.00    +0.000 Cl
ATOM     28  C   UNL     1       2.289   6.297  19.732  0.00  0.00    +0.000 A 
ATOM     29  C   UNL     1       2.609   6.888  18.512  0.00  0.00    +0.000 A 
ATOM     30  C   UNL     1       3.479   6.241  17.640  0.00  0.00    +0.000 A 
ATOM     31  C   UNL     1       4.037   5.001  17.991  0.00  0.00    +0.000 A 
BRANCH  25  33
ATOM     32  N   UNL     1       4.726   2.085  19.854  0.00  0.00    +0.000 NA
ATOM     33  C   UNL     1       4.250   3.107  19.576  0.00  0.00    +0.000 C 
ENDBRANCH  25  33
ENDBRANCH  22  31
ENDBRANCH  20  22
ENDBRANCH   1  20
TORSDOF 5
ENDMDL
MODEL 6
REMARK VINA RESULT:      -8.2      1.519      2.053
REMARK  Name = 
REMARK  5 active torsions:
REMARK  status: ('A' for Active; 'I' for Inactive)
REMARK    1  A    between atoms: C_2  and  C_3
REMARK    2  A    between atoms: C_9  and  S_10
REMARK    3  A    between atoms: S_10  and  N_13
REMARK    4  A    between atoms: N_13  and  C_14
REMARK    5  A    between atoms: C_17  and  C_18
REMARK                            x       y       z     vdW  Elec       q    Type
REMARK                         _______ _______ _______ _____ _____    ______ ____
ROOT
ATOM      1  C   UNL     1       0.287   9.962  19.637  0.00  0.00    +0.000 A 
ATOM      2  C   UNL     1       0.894   9.027  20.464  0.00  0.00    +0.000 A 
ATOM      3  C   UNL     1       1.816   8.124  19.922  0.00  0.00    +0.000 A 
ATOM      4  C   UNL     1       2.130   8.121  18.547  0.00  0.00    +0.000 A 
ATOM      5  C   UNL     1       1.494   9.080  17.740  0.00  0.00    +0.000 A 
ATOM      6  C   UNL     1       0.580   9.989  18.278  0.00  0.00    +0.000 A 
ENDROOT
BRANCH   4   7
ATOM      7  C   UNL     1       3.057   7.118  17.966  0.00  0.00    +0.000 A 
ATOM      8  C   UNL     1       2.791   5.744  18.102  0.00  0.00    +0.000 A 
ATOM      9  C   UNL     1       3.629   4.757  17.564  0.00  0.00    +0.000 A 
ATOM     10  C   UNL     1       4.760   5.157  16.836  0.00  0.00    +0.000 A 
ATOM     11  C   UNL     1       5.811   4.509  16.141  0.00  0.00    +0.000 A 
ATOM     12  N   UNL     1       5.936   3.180  16.042  0.00  0.00    +0.000 N 
ATOM     13  N   UNL     1       6.654   5.371  15.582  0.00  0.00    +0.000 NA
ATOM     14  N   UNL     1       6.160   6.573  15.937  0.00  0.00    +0.000 N 
ATOM     15  C   UNL     1       5.018   6.514  16.690  0.00  0.00    +0.000 A 
ATOM     16  C   UNL     1       4.206   7.512  17.245  0.00  0.00    +0.000 A 
ATOM     17  H   UNL     1       5.152   2.571  16.234  0.00  0.00    +0.000 HD
ATOM     18  H   UNL     1       6.578   2.829  15.340  0.00  0.00    +0.000 HD
ATOM     19  H   UNL     1       6.649   7.400  15.615  0.00  0.00    +0.000 HD
ENDBRANCH   4   7
BRANCH   1  20
ATOM     20  N   UNL     1      -0.645  10.899  20.141  0.00  0.00    +0.000 N 
ATOM     21  H   UNL     1      -1.368  10.576  20.786  0.00  0.00    +0.000 HD
BRANCH  20  22
ATOM     22  S   UNL     1      -0.155  12.481  20.412  0.00  0.00    +0.000 S 
ATOM     23  O   UNL     1      -0.023  13.149  19.136  0.00  0.00    +0.000 OA
ATOM     24  O   UNL     1       0.952  12.441  21.343  0.00  0.00    +0.000 OA
BRANCH  22  31
ATOM     25  C   UNL     1      -2.012  12.643  22.474  0.00  0.00    +0.000 A 
ATOM     26  C   UNL     1      -3.076  13.287  23.125  0.00  0.00    +0.000 A 
ATOM     27 CL   UNL     1      -3.774  12.668  24.584  0.00  0.00    +0.000 Cl
ATOM     28  C   UNL     1      -3.630  14.465  22.607  0.00  0.00    +0.000 A 
ATOM     29  C   UNL     1      -3.135  15.012  21.426  0.00  0.00    +0.000 A 
ATOM     30  C   UNL     1      -2.085  14.384  20.763  0.00  0.00    +0.000 A 
ATOM     31  C   UNL     1      -1.524  13.207  21.285  0.00  0.00    +0.000 A 
BRANCH  25  33
ATOM     32  N   UNL     1      -1.092  10.406  23.413  0.00  0.00    +0.000 NA
ATOM     33  C   UNL     1      -1.479  11.421  23.003  0.00  0.00    +0.000 C 
ENDBRANCH  25  33
ENDBRANCH  22  31
ENDBRANCH  20  22
ENDBRANCH   1  20
TORSDOF 5
ENDMDL
MODEL 7
REMARK VINA RESULT:      -8.1      6.600      9.491
REMARK  Name = 
REMARK  5 active torsions:
REMARK  status: ('A' for Active; 'I' for Inactive)
REMARK    1  A    between atoms: C_2  and  C_3
REMARK    2  A    between atoms: C_9  and  S_10
REMARK    3  A    between atoms: S_10  and  N_13
REMARK    4  A    between atoms: N_13  and  C_14
REMARK    5  A    between atoms: C_17  and  C_18
REMARK                            x       y       z     vdW  Elec       q    Type
REMARK                         _______ _______ _______ _____ _____    ______ ____
ROOT
ATOM      1  C   UNL     1       7.172   5.685  17.783  0.00  0.00    +0.000 A 
ATOM      2  C   UNL     1       6.966   6.698  16.856  0.00  0.00    +0.000 A 
ATOM      3  C   UNL     1       7.491   7.972  17.101  0.00  0.00    +0.000 A 
ATOM      4  C   UNL     1       8.206   8.265  18.280  0.00  0.00    +0.000 A 
ATOM      5  C   UNL     1       8.392   7.216  19.196  0.00  0.00    +0.000 A 
ATOM      6  C   UNL     1       7.879   5.940  18.952  0.00  0.00    +0.000 A 
ENDROOT
BRANCH   4   7
ATOM      7  C   UNL     1       8.702   9.634  18.566  0.00  0.00    +0.000 A 
ATOM      8  C   UNL     1       8.504  10.669  17.635  0.00  0.00    +0.000 A 
ATOM      9  C   UNL     1       8.943  11.981  17.860  0.00  0.00    +0.000 A 
ATOM     10  C   UNL     1       9.579  12.279  19.075  0.00  0.00    +0.000 A 
ATOM     11  C   UNL     1      10.136  13.432  19.683  0.00  0.00    +0.000 A 
ATOM     12  N   UNL     1      10.163  14.641  19.110  0.00  0.00    +0.000 N 
ATOM     13  N   UNL     1      10.616  13.181  20.897  0.00  0.00    +0.000 NA
ATOM     14  N   UNL     1      10.390  11.864  21.061  0.00  0.00    +0.000 N 
ATOM     15  C   UNL     1       9.766  11.261  20.002  0.00  0.00    +0.000 A 
ATOM     16  C   UNL     1       9.356   9.939  19.780  0.00  0.00    +0.000 A 
ATOM     17  H   UNL     1       9.560  14.857  18.328  0.00  0.00    +0.000 HD
ATOM     18  H   UNL     1      10.367  15.431  19.712  0.00  0.00    +0.000 HD
ATOM     19  H   UNL     1      10.678  11.439  21.935  0.00  0.00    +0.000 HD
ENDBRANCH   4   7
BRANCH   1  20
ATOM     20  N   UNL     1       6.667   4.379  17.574  0.00  0.00    +0.000 N 
ATOM     21  H   UNL     1       6.893   3.651  18.252  0.00  0.00    +0.000 HD
BRANCH  20  22
ATOM     22  S   UNL     1       5.168   4.185  16.846  0.00  0.00    +0.000 S 
ATOM     23  O   UNL     1       4.867   2.772  16.777  0.00  0.00    +0.000 OA
ATOM     24  O   UNL     1       5.154   5.002  15.653  0.00  0.00    +0.000 OA
BRANCH  22  31
ATOM     25  C   UNL     1       3.741   4.345  19.227  0.00  0.00    +0.000 A 
ATOM     26  C   UNL     1       2.863   5.014  20.093  0.00  0.00    +0.000 A 
ATOM     27 CL   UNL     1       2.408   4.359  21.631  0.00  0.00    +0.000 Cl
ATOM     28  C   UNL     1       2.304   6.248  19.739  0.00  0.00    +0.000 A 
ATOM     29  C   UNL     1       2.607   6.829  18.510  0.00  0.00    +0.000 A 
ATOM     30  C   UNL     1       3.470   6.177  17.635  0.00  0.00    +0.000 A 
ATOM     31  C   UNL     1       4.038   4.943  17.992  0.00  0.00    +0.000 A 
BRANCH  25  33
ATOM     32  N   UNL     1       4.758   2.057  19.909  0.00  0.00    +0.000 NA
ATOM     33  C   UNL     1       4.279   3.067  19.594  0.00  0.00    +0.000 C 
ENDBRANCH  25  33
ENDBRANCH  22  31
ENDBRANCH  20  22
ENDBRANCH   1  20
TORSDOF 5
ENDMDL
MODEL 8
REMARK VINA RESULT:      -8.1      1.540      2.039
REMARK  Name = 
REMARK  5 active torsions:
REMARK  status: ('A' for Active; 'I' for Inactive)
REMARK    1  A    between atoms: C_2  and  C_3
REMARK    2  A    between atoms: C_9  and  S_10
REMARK    3  A    between atoms: S_10  and  N_13
REMARK    4  A    between atoms: N_13  and  C_14
REMARK    5  A    between atoms: C_17  and  C_18
REMARK                            x       y       z     vdW  Elec       q    Type
REMARK                         _______ _______ _______ _____ _____    ______ ____
ROOT
ATOM      1  C   UNL     1       0.522   9.709  19.684  0.00  0.00    +0.000 A 
ATOM      2  C   UNL     1       0.765   9.768  18.319  0.00  0.00    +0.000 A 
ATOM      3  C   UNL     1       1.628   8.835  17.732  0.00  0.00    +0.000 A 
ATOM      4  C   UNL     1       2.280   7.846  18.497  0.00  0.00    +0.000 A 
ATOM      5  C   UNL     1       2.012   7.819  19.876  0.00  0.00    +0.000 A 
ATOM      6  C   UNL     1       1.144   8.742  20.464  0.00  0.00    +0.000 A 
ENDROOT
BRANCH   4   7
ATOM      7  C   UNL     1       3.246   6.902  17.882  0.00  0.00    +0.000 A 
ATOM      8  C   UNL     1       2.942   5.532  17.798  0.00  0.00    +0.000 A 
ATOM      9  C   UNL     1       3.815   4.600  17.217  0.00  0.00    +0.000 A 
ATOM     10  C   UNL     1       5.024   5.058  16.674  0.00  0.00    +0.000 A 
ATOM     11  C   UNL     1       6.132   4.477  16.008  0.00  0.00    +0.000 A 
ATOM     12  N   UNL     1       6.243   3.170  15.739  0.00  0.00    +0.000 N 
ATOM     13  N   UNL     1       7.046   5.378  15.665  0.00  0.00    +0.000 NA
ATOM     14  N   UNL     1       6.539   6.536  16.130  0.00  0.00    +0.000 N 
ATOM     15  C   UNL     1       5.322   6.413  16.745  0.00  0.00    +0.000 A 
ATOM     16  C   UNL     1       4.473   7.353  17.346  0.00  0.00    +0.000 A 
ATOM     17  H   UNL     1       5.432   2.567  15.762  0.00  0.00    +0.000 HD
ATOM     18  H   UNL     1       6.950   2.897  15.066  0.00  0.00    +0.000 HD
ATOM     19  H   UNL     1       7.075   7.383  15.979  0.00  0.00    +0.000 HD
ENDBRANCH   4   7
BRANCH   1  20
ATOM     20  N   UNL     1      -0.349  10.627  20.319  0.00  0.00    +0.000 N 
ATOM     21  H   UNL     1      -1.016  10.275  21.007  0.00  0.00    +0.000 HD
BRANCH  20  22
ATOM     22  S   UNL     1       0.186  12.186  20.630  0.00  0.00    +0.000 S 
ATOM     23  O   UNL     1       0.263  12.907  19.378  0.00  0.00    +0.000 OA
ATOM     24  O   UNL     1       1.340  12.087  21.496  0.00  0.00    +0.000 OA
BRANCH  22  31
ATOM     25  C   UNL     1      -2.455  12.862  21.174  0.00  0.00    +0.000 A 
ATOM     26  C   UNL     1      -3.437  13.416  22.010  0.00  0.00    +0.000 A 
ATOM     27 CL   UNL     1      -5.111  13.449  21.569  0.00  0.00    +0.000 Cl
ATOM     28  C   UNL     1      -3.095  13.983  23.245  0.00  0.00    +0.000 A 
ATOM     29  C   UNL     1      -1.765  14.011  23.659  0.00  0.00    +0.000 A 
ATOM     30  C   UNL     1      -0.777  13.473  22.841  0.00  0.00    +0.000 A 
ATOM     31  C   UNL     1      -1.120  12.897  21.606  0.00  0.00    +0.000 A 
BRANCH  25  33
ATOM     32  N   UNL     1      -3.169  11.879  18.882  0.00  0.00    +0.000 NA
ATOM     33  C   UNL     1      -2.821  12.315  19.900  0.00  0.00    +0.000 C 
ENDBRANCH  25  33
ENDBRANCH  22  31
ENDBRANCH  20  22
ENDBRANCH   1  20
TORSDOF 5
ENDMDL
MODEL 9
REMARK VINA RESULT:      -8.1      3.341      4.240
REMARK  Name = 
REMARK  5 active torsions:
REMARK  status: ('A' for Active; 'I' for Inactive)
REMARK    1  A    between atoms: C_2  and  C_3
REMARK    2  A    between atoms: C_9  and  S_10
REMARK    3  A    between atoms: S_10  and  N_13
REMARK    4  A    between atoms: N_13  and  C_14
REMARK    5  A    between atoms: C_17  and  C_18
REMARK                            x       y       z     vdW  Elec       q    Type
REMARK                         _______ _______ _______ _____ _____    ______ ____
ROOT
ATOM      1  C   UNL     1       0.768  10.228  19.518  0.00  0.00    +0.000 A 
ATOM      2  C   UNL     1       1.465   9.687  18.446  0.00  0.00    +0.000 A 
ATOM      3  C   UNL     1       1.983   8.391  18.545  0.00  0.00    +0.000 A 
ATOM      4  C   UNL     1       1.837   7.623  19.718  0.00  0.00    +0.000 A 
ATOM      5  C   UNL     1       1.129   8.204  20.784  0.00  0.00    +0.000 A 
ATOM      6  C   UNL     1       0.602   9.494  20.686  0.00  0.00    +0.000 A 
ENDROOT
BRANCH   4   7
ATOM      7  C   UNL     1       2.447   6.275  19.843  0.00  0.00    +0.000 A 
ATOM      8  C   UNL     1       3.509   5.897  19.003  0.00  0.00    +0.000 A 
ATOM      9  C   UNL     1       4.126   4.641  19.087  0.00  0.00    +0.000 A 
ATOM     10  C   UNL     1       3.684   3.738  20.065  0.00  0.00    +0.000 A 
ATOM     11  C   UNL     1       4.034   2.429  20.482  0.00  0.00    +0.000 A 
ATOM     12  N   UNL     1       5.004   1.697  19.920  0.00  0.00    +0.000 N 
ATOM     13  N   UNL     1       3.298   2.011  21.507  0.00  0.00    +0.000 NA
ATOM     14  N   UNL     1       2.460   3.040  21.735  0.00  0.00    +0.000 N 
ATOM     15  C   UNL     1       2.643   4.112  20.904  0.00  0.00    +0.000 A 
ATOM     16  C   UNL     1       1.998   5.354  20.815  0.00  0.00    +0.000 A 
ATOM     17  H   UNL     1       5.712   2.133  19.343  0.00  0.00    +0.000 HD
ATOM     18  H   UNL     1       5.324   0.884  20.434  0.00  0.00    +0.000 HD
ATOM     19  H   UNL     1       1.792   2.949  22.492  0.00  0.00    +0.000 HD
ENDBRANCH   4   7
BRANCH   1  20
ATOM     20  N   UNL     1       0.220  11.532  19.460  0.00  0.00    +0.000 N 
ATOM     21  H   UNL     1       0.854  12.331  19.419  0.00  0.00    +0.000 HD
BRANCH  20  22
ATOM     22  S   UNL     1      -1.231  11.777  18.654  0.00  0.00    +0.000 S 
ATOM     23  O   UNL     1      -1.664  10.518  18.087  0.00  0.00    +0.000 OA
ATOM     24  O   UNL     1      -1.073  12.947  17.819  0.00  0.00    +0.000 OA
BRANCH  22  31
ATOM     25  C   UNL     1      -3.750  12.277  19.718  0.00  0.00    +0.000 A 
ATOM     26  C   UNL     1      -4.588  12.612  20.793  0.00  0.00    +0.000 A 
ATOM     27 CL   UNL     1      -6.307  12.725  20.621  0.00  0.00    +0.000 Cl
ATOM     28  C   UNL     1      -4.059  12.882  22.062  0.00  0.00    +0.000 A 
ATOM     29  C   UNL     1      -2.683  12.830  22.273  0.00  0.00    +0.000 A 
ATOM     30  C   UNL     1      -1.836  12.507  21.218  0.00  0.00    +0.000 A 
ATOM     31  C   UNL     1      -2.366  12.228  19.947  0.00  0.00    +0.000 A 
BRANCH  25  33
ATOM     32  N   UNL     1      -4.765  11.785  17.382  0.00  0.00    +0.000 NA
ATOM     33  C   UNL     1      -4.308  12.034  18.420  0.00  0.00    +0.000 C 
ENDBRANCH  25  33
ENDBRANCH  22  31
ENDBRANCH  20  22
ENDBRANCH   1  20
TORSDOF 5
ENDMDL
