MODEL 1
REMARK VINA RESULT:      -6.7      0.000      0.000
REMARK  Name = 
REMARK  15 active torsions:
REMARK  status: ('A' for Active; 'I' for Inactive)
REMARK    1  A    between atoms: P_2  and  O_3
REMARK    2  A    between atoms: P_2  and  O_4
REMARK    3  A    between atoms: P_2  and  O_5
REMARK    4  A    between atoms: O_5  and  C_6
REMARK    5  A    between atoms: C_7  and  O_8
REMARK    6  A    between atoms: O_8  and  P_9
REMARK    7  A    between atoms: P_9  and  O_11
REMARK    8  A    between atoms: P_9  and  O_12
REMARK    9  A    between atoms: C_13  and  O_14
REMARK   10  A    between atoms: C_15  and  O_16
REMARK   11  A    between atoms: O_16  and  P_17
REMARK   12  A    between atoms: P_17  and  O_19
REMARK   13  A    between atoms: P_17  and  O_20
REMARK   14  A    between atoms: C_21  and  O_22
REMARK   15  A    between atoms: C_23  and  O_24
REMARK                            x       y       z     vdW  Elec       q    Type
REMARK                         _______ _______ _______ _____ _____    ______ ____
ROOT
ATOM      1  C   UNL     1       4.734   3.390  17.192  0.00  0.00    +0.000 C 
ATOM      2  C   UNL     1       4.820   4.372  18.405  0.00  0.00    +0.000 C 
ATOM      3  C   UNL     1       3.448   4.924  18.831  0.00  0.00    +0.000 C 
ATOM      4  C   UNL     1       2.517   3.764  19.111  0.00  0.00    +0.000 C 
ATOM      5  C   UNL     1       2.376   2.885  17.860  0.00  0.00    +0.000 C 
ATOM      6  C   UNL     1       3.744   2.256  17.510  0.00  0.00    +0.000 C 
ENDROOT
BRANCH   3   7
ATOM      7  O   UNL     1       3.568   5.709  20.033  0.00  0.00    +0.000 OA
ATOM      8  H   UNL     1       2.675   5.711  20.448  0.00  0.00    +0.000 HD
ENDBRANCH   3   7
BRANCH   5   9
ATOM      9  O   UNL     1       1.411   1.849  18.064  0.00  0.00    +0.000 OA
ATOM     10  H   UNL     1       1.827   1.010  17.785  0.00  0.00    +0.000 HD
ENDBRANCH   5   9
BRANCH   6  11
ATOM     11  O   UNL     1       4.234   1.367  18.518  0.00  0.00    +0.000 OA
ATOM     12  H   UNL     1       3.633   0.607  18.658  0.00  0.00    +0.000 HD
ENDBRANCH   6  11
BRANCH   1  13
ATOM     13  O   UNL     1       4.332   4.077  15.999  0.00  0.00    +0.000 OA
BRANCH  13  15
ATOM     14  O   UNL     1       5.288   4.165  13.530  0.00  0.00    +0.000 OA
ATOM     15  P   UNL     1       5.429   4.593  14.943  0.00  0.00    +0.000 P 
BRANCH  15  16
ATOM     16  O   UNL     1       6.842   4.174  15.572  0.00  0.00    +0.000 OA
ATOM     17  H   UNL     1       6.830   4.261  16.544  0.00  0.00    +0.000 HD
ENDBRANCH  15  16
BRANCH  15  18
ATOM     18  O   UNL     1       5.484   6.176  15.118  0.00  0.00    +0.000 OA
ATOM     19  H   UNL     1       4.930   6.645  14.465  0.00  0.00    +0.000 HD
ENDBRANCH  15  18
ENDBRANCH  13  15
ENDBRANCH   1  13
BRANCH   2  20
ATOM     20  O   UNL     1       5.689   5.460  18.138  0.00  0.00    +0.000 OA
BRANCH  20  21
ATOM     21  P   UNL     1       7.153   5.494  19.058  0.00  0.00    +0.000 P 
ATOM     22  O   UNL     1       6.467   4.788  20.228  0.00  0.00    +0.000 OA
BRANCH  21  23
ATOM     23  O   UNL     1       7.778   4.304  18.144  0.00  0.00    +0.000 OA
ATOM     24  H   UNL     1       8.336   3.765  18.741  0.00  0.00    +0.000 HD
ENDBRANCH  21  23
BRANCH  21  25
ATOM     25  O   UNL     1       8.619   5.529  19.978  0.00  0.00    +0.000 OA
ATOM     26  H   UNL     1       9.259   6.110  19.534  0.00  0.00    +0.000 HD
ENDBRANCH  21  25
ENDBRANCH  20  21
ENDBRANCH   2  20
BRANCH   4  27
ATOM     27  O   UNL     1       3.139   2.990  20.165  0.00  0.00    +0.000 OA
BRANCH  27  28
ATOM     28  P   UNL     1       1.899   2.700  21.337  0.00  0.00    +0.000 P 
ATOM     29  O   UNL     1       2.521   3.732  22.272  0.00  0.00    +0.000 OA
BRANCH  28  30
ATOM     30  O   UNL     1       0.835   3.545  20.439  0.00  0.00    +0.000 OA
ATOM     31  H   UNL     1      -0.053   3.310  20.760  0.00  0.00    +0.000 HD
ENDBRANCH  28  30
BRANCH  28  32
ATOM     32  O   UNL     1       0.659   2.410  22.507  0.00  0.00    +0.000 OA
ATOM     33  H   UNL     1       1.112   2.113  23.318  0.00  0.00    +0.000 HD
ENDBRANCH  28  32
ENDBRANCH  27  28
ENDBRANCH   4  27
TORSDOF 15
ENDMDL
MODEL 2
REMARK VINA RESULT:      -6.4      0.476      1.024
REMARK  Name = 
REMARK  15 active torsions:
REMARK  status: ('A' for Active; 'I' for Inactive)
REMARK    1  A    between atoms: P_2  and  O_3
REMARK    2  A    between atoms: P_2  and  O_4
REMARK    3  A    between atoms: P_2  and  O_5
REMARK    4  A    between atoms: O_5  and  C_6
REMARK    5  A    between atoms: C_7  and  O_8
REMARK    6  A    between atoms: O_8  and  P_9
REMARK    7  A    between atoms: P_9  and  O_11
REMARK    8  A    between atoms: P_9  and  O_12
REMARK    9  A    between atoms: C_13  and  O_14
REMARK   10  A    between atoms: C_15  and  O_16
REMARK   11  A    between atoms: O_16  and  P_17
REMARK   12  A    between atoms: P_17  and  O_19
REMARK   13  A    between atoms: P_17  and  O_20
REMARK   14  A    between atoms: C_21  and  O_22
REMARK   15  A    between atoms: C_23  and  O_24
REMARK                            x       y       z     vdW  Elec       q    Type
REMARK                         _______ _______ _______ _____ _____    ______ ____
ROOT
ATOM      1  C   UNL     1       4.838   3.446  17.059  0.00  0.00    +0.000 C 
ATOM      2  C   UNL     1       4.958   4.412  18.283  0.00  0.00    +0.000 C 
ATOM      3  C   UNL     1       3.606   5.001  18.718  0.00  0.00    +0.000 C 
ATOM      4  C   UNL     1       2.640   3.867  18.989  0.00  0.00    +0.000 C 
ATOM      5  C   UNL     1       2.468   3.007  17.730  0.00  0.00    +0.000 C 
ATOM      6  C   UNL     1       3.814   2.340  17.368  0.00  0.00    +0.000 C 
ENDROOT
BRANCH   3   7
ATOM      7  O   UNL     1       3.753   5.769  19.929  0.00  0.00    +0.000 OA
ATOM      8  H   UNL     1       4.430   5.301  20.469  0.00  0.00    +0.000 HD
ENDBRANCH   3   7
BRANCH   5   9
ATOM      9  O   UNL     1       1.472   1.999  17.925  0.00  0.00    +0.000 OA
ATOM     10  H   UNL     1       0.833   2.349  18.578  0.00  0.00    +0.000 HD
ENDBRANCH   5   9
BRANCH   6  11
ATOM     11  O   UNL     1       4.280   1.425  18.365  0.00  0.00    +0.000 OA
ATOM     12  H   UNL     1       3.857   0.547  18.280  0.00  0.00    +0.000 HD
ENDBRANCH   6  11
BRANCH   1  13
ATOM     13  O   UNL     1       4.454   4.158  15.875  0.00  0.00    +0.000 OA
BRANCH  13  15
ATOM     14  O   UNL     1       5.561   6.294  14.766  0.00  0.00    +0.000 OA
ATOM     15  P   UNL     1       5.567   4.819  14.921  0.00  0.00    +0.000 P 
BRANCH  15  16
ATOM     16  O   UNL     1       5.421   4.055  13.519  0.00  0.00    +0.000 OA
ATOM     17  H   UNL     1       5.715   4.622  12.782  0.00  0.00    +0.000 HD
ENDBRANCH  15  16
BRANCH  15  18
ATOM     18  O   UNL     1       6.964   4.246  15.427  0.00  0.00    +0.000 OA
ATOM     19  H   UNL     1       7.615   4.154  14.705  0.00  0.00    +0.000 HD
ENDBRANCH  15  18
ENDBRANCH  13  15
ENDBRANCH   1  13
BRANCH   2  20
ATOM     20  O   UNL     1       5.860   5.476  18.024  0.00  0.00    +0.000 OA
BRANCH  20  21
ATOM     21  P   UNL     1       7.288   5.502  19.000  0.00  0.00    +0.000 P 
ATOM     22  O   UNL     1       6.546   4.826  20.154  0.00  0.00    +0.000 OA
BRANCH  21  23
ATOM     23  O   UNL     1       7.928   4.288  18.130  0.00  0.00    +0.000 OA
ATOM     24  H   UNL     1       7.530   4.349  17.239  0.00  0.00    +0.000 HD
ENDBRANCH  21  23
BRANCH  21  25
ATOM     25  O   UNL     1       8.717   5.529  19.975  0.00  0.00    +0.000 OA
ATOM     26  H   UNL     1       9.482   5.740  19.413  0.00  0.00    +0.000 HD
ENDBRANCH  21  25
ENDBRANCH  20  21
ENDBRANCH   2  20
BRANCH   4  27
ATOM     27  O   UNL     1       3.241   3.063  20.033  0.00  0.00    +0.000 OA
BRANCH  27  28
ATOM     28  P   UNL     1       1.996   2.800  21.206  0.00  0.00    +0.000 P 
ATOM     29  O   UNL     1       3.007   2.165  22.156  0.00  0.00    +0.000 OA
BRANCH  28  30
ATOM     30  O   UNL     1       2.007   4.382  21.591  0.00  0.00    +0.000 OA
ATOM     31  H   UNL     1       1.786   4.444  22.537  0.00  0.00    +0.000 HD
ENDBRANCH  28  30
BRANCH  28  32
ATOM     32  O   UNL     1       0.752   2.538  22.379  0.00  0.00    +0.000 OA
ATOM     33  H   UNL     1      -0.035   3.012  22.054  0.00  0.00    +0.000 HD
ENDBRANCH  28  32
ENDBRANCH  27  28
ENDBRANCH   4  27
TORSDOF 15
ENDMDL
MODEL 3
REMARK VINA RESULT:      -6.1      0.814      1.248
REMARK  Name = 
REMARK  15 active torsions:
REMARK  status: ('A' for Active; 'I' for Inactive)
REMARK    1  A    between atoms: P_2  and  O_3
REMARK    2  A    between atoms: P_2  and  O_4
REMARK    3  A    between atoms: P_2  and  O_5
REMARK    4  A    between atoms: O_5  and  C_6
REMARK    5  A    between atoms: C_7  and  O_8
REMARK    6  A    between atoms: O_8  and  P_9
REMARK    7  A    between atoms: P_9  and  O_11
REMARK    8  A    between atoms: P_9  and  O_12
REMARK    9  A    between atoms: C_13  and  O_14
REMARK   10  A    between atoms: C_15  and  O_16
REMARK   11  A    between atoms: O_16  and  P_17
REMARK   12  A    between atoms: P_17  and  O_19
REMARK   13  A    between atoms: P_17  and  O_20
REMARK   14  A    between atoms: C_21  and  O_22
REMARK   15  A    between atoms: C_23  and  O_24
REMARK                            x       y       z     vdW  Elec       q    Type
REMARK                         _______ _______ _______ _____ _____    ______ ____
ROOT
ATOM      1  C   UNL     1       5.032   3.713  17.116  0.00  0.00    +0.000 C 
ATOM      2  C   UNL     1       5.166   4.525  18.446  0.00  0.00    +0.000 C 
ATOM      3  C   UNL     1       3.840   5.158  18.900  0.00  0.00    +0.000 C 
ATOM      4  C   UNL     1       2.788   4.074  19.005  0.00  0.00    +0.000 C 
ATOM      5  C   UNL     1       2.611   3.376  17.650  0.00  0.00    +0.000 C 
ATOM      6  C   UNL     1       3.923   2.657  17.260  0.00  0.00    +0.000 C 
ENDROOT
BRANCH   3   7
ATOM      7  O   UNL     1       3.988   5.772  20.195  0.00  0.00    +0.000 OA
ATOM      8  H   UNL     1       4.568   5.173  20.717  0.00  0.00    +0.000 HD
ENDBRANCH   3   7
BRANCH   5   9
ATOM      9  O   UNL     1       1.541   2.428  17.693  0.00  0.00    +0.000 OA
ATOM     10  H   UNL     1       0.994   2.575  16.896  0.00  0.00    +0.000 HD
ENDBRANCH   5   9
BRANCH   6  11
ATOM     11  O   UNL     1       4.282   1.605  18.161  0.00  0.00    +0.000 OA
ATOM     12  H   UNL     1       3.592   0.911  18.205  0.00  0.00    +0.000 HD
ENDBRANCH   6  11
BRANCH   1  13
ATOM     13  O   UNL     1       4.748   4.580  16.009  0.00  0.00    +0.000 OA
BRANCH  13  15
ATOM     14  O   UNL     1       5.834   4.005  13.662  0.00  0.00    +0.000 OA
ATOM     15  P   UNL     1       5.859   4.853  14.879  0.00  0.00    +0.000 P 
BRANCH  15  16
ATOM     16  O   UNL     1       7.263   4.781  15.648  0.00  0.00    +0.000 OA
ATOM     17  H   UNL     1       7.133   4.829  16.614  0.00  0.00    +0.000 HD
ENDBRANCH  15  16
BRANCH  15  18
ATOM     18  O   UNL     1       5.775   6.412  14.560  0.00  0.00    +0.000 OA
ATOM     19  H   UNL     1       6.606   6.882  14.766  0.00  0.00    +0.000 HD
ENDBRANCH  15  18
ENDBRANCH  13  15
ENDBRANCH   1  13
BRANCH   2  20
ATOM     20  O   UNL     1       6.148   5.542  18.343  0.00  0.00    +0.000 OA
BRANCH  20  21
ATOM     21  P   UNL     1       7.537   5.348  19.355  0.00  0.00    +0.000 P 
ATOM     22  O   UNL     1       8.151   4.352  18.370  0.00  0.00    +0.000 OA
BRANCH  21  23
ATOM     23  O   UNL     1       8.098   6.804  18.900  0.00  0.00    +0.000 OA
ATOM     24  H   UNL     1       8.868   6.993  19.473  0.00  0.00    +0.000 HD
ENDBRANCH  21  23
BRANCH  21  25
ATOM     25  O   UNL     1       8.926   5.154  20.369  0.00  0.00    +0.000 OA
ATOM     26  H   UNL     1       9.164   6.017  20.751  0.00  0.00    +0.000 HD
ENDBRANCH  21  25
ENDBRANCH  20  21
ENDBRANCH   2  20
BRANCH   4  27
ATOM     27  O   UNL     1       3.287   3.117  19.969  0.00  0.00    +0.000 OA
BRANCH  27  28
ATOM     28  P   UNL     1       2.042   2.947  21.159  0.00  0.00    +0.000 P 
ATOM     29  O   UNL     1       1.376   1.856  20.326  0.00  0.00    +0.000 OA
BRANCH  28  30
ATOM     30  O   UNL     1       3.069   2.149  22.139  0.00  0.00    +0.000 OA
ATOM     31  H   UNL     1       2.862   1.201  22.053  0.00  0.00    +0.000 HD
ENDBRANCH  28  30
BRANCH  28  32
ATOM     32  O   UNL     1       0.797   2.777  22.348  0.00  0.00    +0.000 OA
ATOM     33  H   UNL     1       1.041   2.006  22.893  0.00  0.00    +0.000 HD
ENDBRANCH  28  32
ENDBRANCH  27  28
ENDBRANCH   4  27
TORSDOF 15
ENDMDL
MODEL 4
REMARK VINA RESULT:      -6.0      1.281      1.430
REMARK  Name = 
REMARK  15 active torsions:
REMARK  status: ('A' for Active; 'I' for Inactive)
REMARK    1  A    between atoms: P_2  and  O_3
REMARK    2  A    between atoms: P_2  and  O_4
REMARK    3  A    between atoms: P_2  and  O_5
REMARK    4  A    between atoms: O_5  and  C_6
REMARK    5  A    between atoms: C_7  and  O_8
REMARK    6  A    between atoms: O_8  and  P_9
REMARK    7  A    between atoms: P_9  and  O_11
REMARK    8  A    between atoms: P_9  and  O_12
REMARK    9  A    between atoms: C_13  and  O_14
REMARK   10  A    between atoms: C_15  and  O_16
REMARK   11  A    between atoms: O_16  and  P_17
REMARK   12  A    between atoms: P_17  and  O_19
REMARK   13  A    between atoms: P_17  and  O_20
REMARK   14  A    between atoms: C_21  and  O_22
REMARK   15  A    between atoms: C_23  and  O_24
REMARK                            x       y       z     vdW  Elec       q    Type
REMARK                         _______ _______ _______ _____ _____    ______ ____
ROOT
ATOM      1  C   UNL     1       5.338   3.885  17.076  0.00  0.00    +0.000 C 
ATOM      2  C   UNL     1       5.002   5.212  17.832  0.00  0.00    +0.000 C 
ATOM      3  C   UNL     1       3.492   5.498  17.900  0.00  0.00    +0.000 C 
ATOM      4  C   UNL     1       2.792   4.306  18.517  0.00  0.00    +0.000 C 
ATOM      5  C   UNL     1       3.060   3.046  17.683  0.00  0.00    +0.000 C 
ATOM      6  C   UNL     1       4.569   2.714  17.712  0.00  0.00    +0.000 C 
ENDROOT
BRANCH   3   7
ATOM      7  O   UNL     1       3.232   6.652  18.724  0.00  0.00    +0.000 OA
ATOM      8  H   UNL     1       2.404   6.453  19.218  0.00  0.00    +0.000 HD
ENDBRANCH   3   7
BRANCH   5   9
ATOM      9  O   UNL     1       2.315   1.930  18.179  0.00  0.00    +0.000 OA
ATOM     10  H   UNL     1       1.370   2.121  18.016  0.00  0.00    +0.000 HD
ENDBRANCH   5   9
BRANCH   6  11
ATOM     11  O   UNL     1       5.053   2.387  19.019  0.00  0.00    +0.000 OA
ATOM     12  H   UNL     1       4.767   1.494  19.301  0.00  0.00    +0.000 HD
ENDBRANCH   6  11
BRANCH   1  13
ATOM     13  O   UNL     1       5.014   3.988  15.682  0.00  0.00    +0.000 OA
BRANCH  13  15
ATOM     14  O   UNL     1       6.208   3.778  13.327  0.00  0.00    +0.000 OA
ATOM     15  P   UNL     1       6.114   4.493  14.623  0.00  0.00    +0.000 P 
BRANCH  15  16
ATOM     16  O   UNL     1       7.500   4.490  15.427  0.00  0.00    +0.000 OA
ATOM     17  H   UNL     1       8.219   4.121  14.880  0.00  0.00    +0.000 HD
ENDBRANCH  15  16
BRANCH  15  18
ATOM     18  O   UNL     1       5.869   6.059  14.460  0.00  0.00    +0.000 OA
ATOM     19  H   UNL     1       5.839   6.525  15.318  0.00  0.00    +0.000 HD
ENDBRANCH  15  18
ENDBRANCH  13  15
ENDBRANCH   1  13
BRANCH   2  20
ATOM     20  O   UNL     1       5.655   6.327  17.249  0.00  0.00    +0.000 OA
BRANCH  20  21
ATOM     21  P   UNL     1       7.099   6.850  18.044  0.00  0.00    +0.000 P 
ATOM     22  O   UNL     1       7.491   5.403  18.344  0.00  0.00    +0.000 OA
BRANCH  21  23
ATOM     23  O   UNL     1       7.787   7.194  16.612  0.00  0.00    +0.000 OA
ATOM     24  H   UNL     1       7.275   6.705  15.938  0.00  0.00    +0.000 HD
ENDBRANCH  21  23
BRANCH  21  25
ATOM     25  O   UNL     1       8.543   7.374  18.840  0.00  0.00    +0.000 OA
ATOM     26  H   UNL     1       8.428   8.294  19.135  0.00  0.00    +0.000 HD
ENDBRANCH  21  25
ENDBRANCH  20  21
ENDBRANCH   2  20
BRANCH   4  27
ATOM     27  O   UNL     1       3.370   4.134  19.834  0.00  0.00    +0.000 OA
BRANCH  27  28
ATOM     28  P   UNL     1       2.113   3.469  20.820  0.00  0.00    +0.000 P 
ATOM     29  O   UNL     1       3.115   2.536  21.493  0.00  0.00    +0.000 OA
BRANCH  28  30
ATOM     30  O   UNL     1       2.112   4.809  21.745  0.00  0.00    +0.000 OA
ATOM     31  H   UNL     1       2.445   4.547  22.622  0.00  0.00    +0.000 HD
ENDBRANCH  28  30
BRANCH  28  32
ATOM     32  O   UNL     1       0.857   2.805  21.807  0.00  0.00    +0.000 OA
ATOM     33  H   UNL     1       0.375   3.563  22.185  0.00  0.00    +0.000 HD
ENDBRANCH  28  32
ENDBRANCH  27  28
ENDBRANCH   4  27
TORSDOF 15
ENDMDL
MODEL 5
REMARK VINA RESULT:      -5.9      0.596      1.313
REMARK  Name = 
REMARK  15 active torsions:
REMARK  status: ('A' for Active; 'I' for Inactive)
REMARK    1  A    between atoms: P_2  and  O_3
REMARK    2  A    between atoms: P_2  and  O_4
REMARK    3  A    between atoms: P_2  and  O_5
REMARK    4  A    between atoms: O_5  and  C_6
REMARK    5  A    between atoms: C_7  and  O_8
REMARK    6  A    between atoms: O_8  and  P_9
REMARK    7  A    between atoms: P_9  and  O_11
REMARK    8  A    between atoms: P_9  and  O_12
REMARK    9  A    between atoms: C_13  and  O_14
REMARK   10  A    between atoms: C_15  and  O_16
REMARK   11  A    between atoms: O_16  and  P_17
REMARK   12  A    between atoms: P_17  and  O_19
REMARK   13  A    between atoms: P_17  and  O_20
REMARK   14  A    between atoms: C_21  and  O_22
REMARK   15  A    between atoms: C_23  and  O_24
REMARK                            x       y       z     vdW  Elec       q    Type
REMARK                         _______ _______ _______ _____ _____    ______ ____
ROOT
ATOM      1  C   UNL     1       4.945   3.590  17.038  0.00  0.00    +0.000 C 
ATOM      2  C   UNL     1       5.007   4.512  18.300  0.00  0.00    +0.000 C 
ATOM      3  C   UNL     1       3.634   5.082  18.695  0.00  0.00    +0.000 C 
ATOM      4  C   UNL     1       2.660   3.938  18.880  0.00  0.00    +0.000 C 
ATOM      5  C   UNL     1       2.548   3.125  17.584  0.00  0.00    +0.000 C 
ATOM      6  C   UNL     1       3.912   2.472  17.259  0.00  0.00    +0.000 C 
ENDROOT
BRANCH   3   7
ATOM      7  O   UNL     1       3.724   5.806  19.938  0.00  0.00    +0.000 OA
ATOM      8  H   UNL     1       3.676   5.130  20.652  0.00  0.00    +0.000 HD
ENDBRANCH   3   7
BRANCH   5   9
ATOM      9  O   UNL     1       1.547   2.109  17.696  0.00  0.00    +0.000 OA
ATOM     10  H   UNL     1       1.813   1.377  17.106  0.00  0.00    +0.000 HD
ENDBRANCH   5   9
BRANCH   6  11
ATOM     11  O   UNL     1       4.335   1.523  18.243  0.00  0.00    +0.000 OA
ATOM     12  H   UNL     1       5.286   1.308  18.157  0.00  0.00    +0.000 HD
ENDBRANCH   6  11
BRANCH   1  13
ATOM     13  O   UNL     1       4.613   4.344  15.864  0.00  0.00    +0.000 OA
BRANCH  13  15
ATOM     14  O   UNL     1       7.177   4.614  15.254  0.00  0.00    +0.000 OA
ATOM     15  P   UNL     1       5.766   4.849  14.863  0.00  0.00    +0.000 P 
BRANCH  15  16
ATOM     16  O   UNL     1       5.450   6.400  14.611  0.00  0.00    +0.000 OA
ATOM     17  H   UNL     1       4.555   6.628  14.926  0.00  0.00    +0.000 HD
ENDBRANCH  15  16
BRANCH  15  18
ATOM     18  O   UNL     1       5.398   4.236  13.438  0.00  0.00    +0.000 OA
ATOM     19  H   UNL     1       4.730   3.527  13.497  0.00  0.00    +0.000 HD
ENDBRANCH  15  18
ENDBRANCH  13  15
ENDBRANCH   1  13
BRANCH   2  20
ATOM     20  O   UNL     1       5.916   5.585  18.122  0.00  0.00    +0.000 OA
BRANCH  20  21
ATOM     21  P   UNL     1       7.358   5.513  19.075  0.00  0.00    +0.000 P 
ATOM     22  O   UNL     1       6.596   4.855  20.227  0.00  0.00    +0.000 OA
BRANCH  21  23
ATOM     23  O   UNL     1       7.918   4.283  18.173  0.00  0.00    +0.000 OA
ATOM     24  H   UNL     1       8.490   4.684  17.488  0.00  0.00    +0.000 HD
ENDBRANCH  21  23
BRANCH  21  25
ATOM     25  O   UNL     1       8.800   5.442  20.029  0.00  0.00    +0.000 OA
ATOM     26  H   UNL     1       8.688   6.003  20.816  0.00  0.00    +0.000 HD
ENDBRANCH  21  25
ENDBRANCH  20  21
ENDBRANCH   2  20
BRANCH   4  27
ATOM     27  O   UNL     1       3.216   3.098  19.920  0.00  0.00    +0.000 OA
BRANCH  27  28
ATOM     28  P   UNL     1       1.981   2.954  21.124  0.00  0.00    +0.000 P 
ATOM     29  O   UNL     1       1.337   1.810  20.348  0.00  0.00    +0.000 OA
BRANCH  28  30
ATOM     30  O   UNL     1       3.032   2.227  22.134  0.00  0.00    +0.000 OA
ATOM     31  H   UNL     1       3.402   1.465  21.655  0.00  0.00    +0.000 HD
ENDBRANCH  28  30
BRANCH  28  32
ATOM     32  O   UNL     1       0.747   2.811  22.328  0.00  0.00    +0.000 OA
ATOM     33  H   UNL     1       0.790   3.625  22.863  0.00  0.00    +0.000 HD
ENDBRANCH  28  32
ENDBRANCH  27  28
ENDBRANCH   4  27
TORSDOF 15
ENDMDL
MODEL 6
REMARK VINA RESULT:      -5.6      1.035      1.319
REMARK  Name = 
REMARK  15 active torsions:
REMARK  status: ('A' for Active; 'I' for Inactive)
REMARK    1  A    between atoms: P_2  and  O_3
REMARK    2  A    between atoms: P_2  and  O_4
REMARK    3  A    between atoms: P_2  and  O_5
REMARK    4  A    between atoms: O_5  and  C_6
REMARK    5  A    between atoms: C_7  and  O_8
REMARK    6  A    between atoms: O_8  and  P_9
REMARK    7  A    between atoms: P_9  and  O_11
REMARK    8  A    between atoms: P_9  and  O_12
REMARK    9  A    between atoms: C_13  and  O_14
REMARK   10  A    between atoms: C_15  and  O_16
REMARK   11  A    between atoms: O_16  and  P_17
REMARK   12  A    between atoms: P_17  and  O_19
REMARK   13  A    between atoms: P_17  and  O_20
REMARK   14  A    between atoms: C_21  and  O_22
REMARK   15  A    between atoms: C_23  and  O_24
REMARK                            x       y       z     vdW  Elec       q    Type
REMARK                         _______ _______ _______ _____ _____    ______ ____
ROOT
ATOM      1  C   UNL     1       5.230   3.727  17.261  0.00  0.00    +0.000 C 
ATOM      2  C   UNL     1       4.916   5.006  18.103  0.00  0.00    +0.000 C 
ATOM      3  C   UNL     1       3.414   5.332  18.164  0.00  0.00    +0.000 C 
ATOM      4  C   UNL     1       2.669   4.120  18.682  0.00  0.00    +0.000 C 
ATOM      5  C   UNL     1       2.918   2.915  17.765  0.00  0.00    +0.000 C 
ATOM      6  C   UNL     1       4.416   2.537  17.799  0.00  0.00    +0.000 C 
ENDROOT
BRANCH   3   7
ATOM      7  O   UNL     1       3.169   6.432  19.062  0.00  0.00    +0.000 OA
ATOM      8  H   UNL     1       3.457   7.244  18.584  0.00  0.00    +0.000 HD
ENDBRANCH   3   7
BRANCH   5   9
ATOM      9  O   UNL     1       2.132   1.789  18.167  0.00  0.00    +0.000 OA
ATOM     10  H   UNL     1       1.696   2.029  19.009  0.00  0.00    +0.000 HD
ENDBRANCH   5   9
BRANCH   6  11
ATOM     11  O   UNL     1       4.864   2.105  19.087  0.00  0.00    +0.000 OA
ATOM     12  H   UNL     1       4.555   1.200  19.296  0.00  0.00    +0.000 HD
ENDBRANCH   6  11
BRANCH   1  13
ATOM     13  O   UNL     1       4.938   3.938  15.872  0.00  0.00    +0.000 OA
BRANCH  13  15
ATOM     14  O   UNL     1       5.841   5.873  14.305  0.00  0.00    +0.000 OA
ATOM     15  P   UNL     1       6.059   4.524  14.880  0.00  0.00    +0.000 P 
BRANCH  15  16
ATOM     16  O   UNL     1       6.246   3.400  13.753  0.00  0.00    +0.000 OA
ATOM     17  H   UNL     1       6.608   2.579  14.137  0.00  0.00    +0.000 HD
ENDBRANCH  15  16
BRANCH  15  18
ATOM     18  O   UNL     1       7.440   4.390  15.664  0.00  0.00    +0.000 OA
ATOM     19  H   UNL     1       8.184   4.155  15.076  0.00  0.00    +0.000 HD
ENDBRANCH  15  18
ENDBRANCH  13  15
ENDBRANCH   1  13
BRANCH   2  20
ATOM     20  O   UNL     1       5.612   6.140  17.612  0.00  0.00    +0.000 OA
BRANCH  20  21
ATOM     21  P   UNL     1       7.105   6.505  18.405  0.00  0.00    +0.000 P 
ATOM     22  O   UNL     1       7.426   5.016  18.545  0.00  0.00    +0.000 OA
BRANCH  21  23
ATOM     23  O   UNL     1       7.769   6.957  16.992  0.00  0.00    +0.000 OA
ATOM     24  H   UNL     1       8.720   6.740  17.054  0.00  0.00    +0.000 HD
ENDBRANCH  21  23
BRANCH  21  25
ATOM     25  O   UNL     1       8.599   6.869  19.199  0.00  0.00    +0.000 OA
ATOM     26  H   UNL     1       9.322   6.401  18.746  0.00  0.00    +0.000 HD
ENDBRANCH  21  25
ENDBRANCH  20  21
ENDBRANCH   2  20
BRANCH   4  27
ATOM     27  O   UNL     1       3.215   3.839  19.993  0.00  0.00    +0.000 OA
BRANCH  27  28
ATOM     28  P   UNL     1       1.906   3.193  20.924  0.00  0.00    +0.000 P 
ATOM     29  O   UNL     1       2.627   3.558  22.217  0.00  0.00    +0.000 OA
BRANCH  28  30
ATOM     30  O   UNL     1       0.997   4.499  20.576  0.00  0.00    +0.000 OA
ATOM     31  H   UNL     1       1.131   4.692  19.632  0.00  0.00    +0.000 HD
ENDBRANCH  28  30
BRANCH  28  32
ATOM     32  O   UNL     1       0.598   2.548  21.854  0.00  0.00    +0.000 OA
ATOM     33  H   UNL     1      -0.204   3.020  21.564  0.00  0.00    +0.000 HD
ENDBRANCH  28  32
ENDBRANCH  27  28
ENDBRANCH   4  27
TORSDOF 15
ENDMDL
MODEL 7
REMARK VINA RESULT:      -5.5      1.908      4.161
REMARK  Name = 
REMARK  15 active torsions:
REMARK  status: ('A' for Active; 'I' for Inactive)
REMARK    1  A    between atoms: P_2  and  O_3
REMARK    2  A    between atoms: P_2  and  O_4
REMARK    3  A    between atoms: P_2  and  O_5
REMARK    4  A    between atoms: O_5  and  C_6
REMARK    5  A    between atoms: C_7  and  O_8
REMARK    6  A    between atoms: O_8  and  P_9
REMARK    7  A    between atoms: P_9  and  O_11
REMARK    8  A    between atoms: P_9  and  O_12
REMARK    9  A    between atoms: C_13  and  O_14
REMARK   10  A    between atoms: C_15  and  O_16
REMARK   11  A    between atoms: O_16  and  P_17
REMARK   12  A    between atoms: P_17  and  O_19
REMARK   13  A    between atoms: P_17  and  O_20
REMARK   14  A    between atoms: C_21  and  O_22
REMARK   15  A    between atoms: C_23  and  O_24
REMARK                            x       y       z     vdW  Elec       q    Type
REMARK                         _______ _______ _______ _____ _____    ______ ____
ROOT
ATOM      1  C   UNL     1       5.132   6.346  17.489  0.00  0.00    +0.000 C 
ATOM      2  C   UNL     1       5.077   4.826  17.123  0.00  0.00    +0.000 C 
ATOM      3  C   UNL     1       4.799   3.925  18.338  0.00  0.00    +0.000 C 
ATOM      4  C   UNL     1       3.526   4.388  19.014  0.00  0.00    +0.000 C 
ATOM      5  C   UNL     1       3.663   5.852  19.454  0.00  0.00    +0.000 C 
ATOM      6  C   UNL     1       3.836   6.755  18.211  0.00  0.00    +0.000 C 
ENDROOT
BRANCH   3   7
ATOM      7  O   UNL     1       4.620   2.556  17.924  0.00  0.00    +0.000 OA
ATOM      8  H   UNL     1       4.584   2.023  18.752  0.00  0.00    +0.000 HD
ENDBRANCH   3   7
BRANCH   5   9
ATOM      9  O   UNL     1       2.518   6.277  20.198  0.00  0.00    +0.000 OA
ATOM     10  H   UNL     1       2.847   6.686  21.023  0.00  0.00    +0.000 HD
ENDBRANCH   5   9
BRANCH   6  11
ATOM     11  O   UNL     1       2.700   6.747  17.341  0.00  0.00    +0.000 OA
ATOM     12  H   UNL     1       2.962   6.732  16.398  0.00  0.00    +0.000 HD
ENDBRANCH   6  11
BRANCH   1  13
ATOM     13  O   UNL     1       6.269   6.637  18.312  0.00  0.00    +0.000 OA
BRANCH  13  15
ATOM     14  O   UNL     1       7.170   8.954  17.396  0.00  0.00    +0.000 OA
ATOM     15  P   UNL     1       7.472   7.547  17.754  0.00  0.00    +0.000 P 
BRANCH  15  16
ATOM     16  O   UNL     1       8.084   6.719  16.526  0.00  0.00    +0.000 OA
ATOM     17  H   UNL     1       7.754   5.801  16.525  0.00  0.00    +0.000 HD
ENDBRANCH  15  16
BRANCH  15  18
ATOM     18  O   UNL     1       8.648   7.408  18.820  0.00  0.00    +0.000 OA
ATOM     19  H   UNL     1       9.485   7.801  18.508  0.00  0.00    +0.000 HD
ENDBRANCH  15  18
ENDBRANCH  13  15
ENDBRANCH   1  13
BRANCH   2  20
ATOM     20  O   UNL     1       6.272   4.394  16.495  0.00  0.00    +0.000 OA
BRANCH  20  21
ATOM     21  P   UNL     1       6.146   4.037  14.807  0.00  0.00    +0.000 P 
ATOM     22  O   UNL     1       4.662   4.408  14.811  0.00  0.00    +0.000 OA
BRANCH  21  23
ATOM     23  O   UNL     1       6.932   5.411  14.437  0.00  0.00    +0.000 OA
ATOM     24  H   UNL     1       6.243   6.086  14.279  0.00  0.00    +0.000 HD
ENDBRANCH  21  23
BRANCH  21  25
ATOM     25  O   UNL     1       6.020   3.679  13.119  0.00  0.00    +0.000 OA
ATOM     26  H   UNL     1       6.680   4.203  12.633  0.00  0.00    +0.000 HD
ENDBRANCH  21  25
ENDBRANCH  20  21
ENDBRANCH   2  20
BRANCH   4  27
ATOM     27  O   UNL     1       2.480   4.289  18.017  0.00  0.00    +0.000 OA
BRANCH  27  28
ATOM     28  P   UNL     1       1.256   3.282  18.712  0.00  0.00    +0.000 P 
ATOM     29  O   UNL     1       1.665   2.131  17.798  0.00  0.00    +0.000 OA
BRANCH  28  30
ATOM     30  O   UNL     1       2.160   3.085  20.052  0.00  0.00    +0.000 OA
ATOM     31  H   UNL     1       1.542   2.947  20.791  0.00  0.00    +0.000 HD
ENDBRANCH  28  30
BRANCH  28  32
ATOM     32  O   UNL     1       0.033   2.275  19.406  0.00  0.00    +0.000 OA
ATOM     33  H   UNL     1       0.108   1.408  18.967  0.00  0.00    +0.000 HD
ENDBRANCH  28  32
ENDBRANCH  27  28
ENDBRANCH   4  27
TORSDOF 15
ENDMDL
MODEL 8
REMARK VINA RESULT:      -5.4      2.125      3.339
REMARK  Name = 
REMARK  15 active torsions:
REMARK  status: ('A' for Active; 'I' for Inactive)
REMARK    1  A    between atoms: P_2  and  O_3
REMARK    2  A    between atoms: P_2  and  O_4
REMARK    3  A    between atoms: P_2  and  O_5
REMARK    4  A    between atoms: O_5  and  C_6
REMARK    5  A    between atoms: C_7  and  O_8
REMARK    6  A    between atoms: O_8  and  P_9
REMARK    7  A    between atoms: P_9  and  O_11
REMARK    8  A    between atoms: P_9  and  O_12
REMARK    9  A    between atoms: C_13  and  O_14
REMARK   10  A    between atoms: C_15  and  O_16
REMARK   11  A    between atoms: O_16  and  P_17
REMARK   12  A    between atoms: P_17  and  O_19
REMARK   13  A    between atoms: P_17  and  O_20
REMARK   14  A    between atoms: C_21  and  O_22
REMARK   15  A    between atoms: C_23  and  O_24
REMARK                            x       y       z     vdW  Elec       q    Type
REMARK                         _______ _______ _______ _____ _____    ______ ____
ROOT
ATOM      1  C   UNL     1       5.074   5.170  17.831  0.00  0.00    +0.000 C 
ATOM      2  C   UNL     1       3.616   5.645  18.136  0.00  0.00    +0.000 C 
ATOM      3  C   UNL     1       2.594   4.495  18.124  0.00  0.00    +0.000 C 
ATOM      4  C   UNL     1       3.050   3.422  19.089  0.00  0.00    +0.000 C 
ATOM      5  C   UNL     1       4.439   2.907  18.690  0.00  0.00    +0.000 C 
ATOM      6  C   UNL     1       5.472   4.051  18.809  0.00  0.00    +0.000 C 
ENDROOT
BRANCH   3   7
ATOM      7  O   UNL     1       1.298   4.964  18.546  0.00  0.00    +0.000 OA
ATOM      8  H   UNL     1       0.639   4.447  18.028  0.00  0.00    +0.000 HD
ENDBRANCH   3   7
BRANCH   5   9
ATOM      9  O   UNL     1       4.842   1.812  19.518  0.00  0.00    +0.000 OA
ATOM     10  H   UNL     1       4.026   1.381  19.841  0.00  0.00    +0.000 HD
ENDBRANCH   5   9
BRANCH   6  11
ATOM     11  O   UNL     1       5.639   4.528  20.148  0.00  0.00    +0.000 OA
ATOM     12  H   UNL     1       6.453   4.176  20.562  0.00  0.00    +0.000 HD
ENDBRANCH   6  11
BRANCH   1  13
ATOM     13  O   UNL     1       5.194   4.709  16.478  0.00  0.00    +0.000 OA
BRANCH  13  15
ATOM     14  O   UNL     1       6.528   4.793  14.190  0.00  0.00    +0.000 OA
ATOM     15  P   UNL     1       6.105   5.506  15.420  0.00  0.00    +0.000 P 
BRANCH  15  16
ATOM     16  O   UNL     1       7.350   6.051  16.270  0.00  0.00    +0.000 OA
ATOM     17  H   UNL     1       7.558   6.974  16.029  0.00  0.00    +0.000 HD
ENDBRANCH  15  16
BRANCH  15  18
ATOM     18  O   UNL     1       5.331   6.867  15.123  0.00  0.00    +0.000 OA
ATOM     19  H   UNL     1       4.439   6.884  15.520  0.00  0.00    +0.000 HD
ENDBRANCH  15  18
ENDBRANCH  13  15
ENDBRANCH   1  13
BRANCH   2  20
ATOM     20  O   UNL     1       3.190   6.646  17.226  0.00  0.00    +0.000 OA
BRANCH  20  21
ATOM     21  P   UNL     1       2.592   8.103  17.942  0.00  0.00    +0.000 P 
ATOM     22  O   UNL     1       1.179   7.803  17.439  0.00  0.00    +0.000 OA
BRANCH  21  23
ATOM     23  O   UNL     1       2.674   7.435  19.421  0.00  0.00    +0.000 OA
ATOM     24  H   UNL     1       1.936   7.818  19.936  0.00  0.00    +0.000 HD
ENDBRANCH  21  23
BRANCH  21  25
ATOM     25  O   UNL     1       1.995   9.562  18.657  0.00  0.00    +0.000 OA
ATOM     26  H   UNL     1       1.211   9.859  18.164  0.00  0.00    +0.000 HD
ENDBRANCH  21  25
ENDBRANCH  20  21
ENDBRANCH   2  20
BRANCH   4  27
ATOM     27  O   UNL     1       3.136   4.056  20.389  0.00  0.00    +0.000 OA
BRANCH  27  28
ATOM     28  P   UNL     1       2.012   3.216  21.402  0.00  0.00    +0.000 P 
ATOM     29  O   UNL     1       1.430   2.501  20.187  0.00  0.00    +0.000 OA
BRANCH  28  30
ATOM     30  O   UNL     1       3.200   2.235  21.928  0.00  0.00    +0.000 OA
ATOM     31  H   UNL     1       3.925   2.808  22.234  0.00  0.00    +0.000 HD
ENDBRANCH  28  30
BRANCH  28  32
ATOM     32  O   UNL     1       0.889   2.377  22.415  0.00  0.00    +0.000 OA
ATOM     33  H   UNL     1       0.429   3.059  22.938  0.00  0.00    +0.000 HD
ENDBRANCH  28  32
ENDBRANCH  27  28
ENDBRANCH   4  27
TORSDOF 15
ENDMDL
MODEL 9
REMARK VINA RESULT:      -5.4      1.805      4.031
REMARK  Name = 
REMARK  15 active torsions:
REMARK  status: ('A' for Active; 'I' for Inactive)
REMARK    1  A    between atoms: P_2  and  O_3
REMARK    2  A    between atoms: P_2  and  O_4
REMARK    3  A    between atoms: P_2  and  O_5
REMARK    4  A    between atoms: O_5  and  C_6
REMARK    5  A    between atoms: C_7  and  O_8
REMARK    6  A    between atoms: O_8  and  P_9
REMARK    7  A    between atoms: P_9  and  O_11
REMARK    8  A    between atoms: P_9  and  O_12
REMARK    9  A    between atoms: C_13  and  O_14
REMARK   10  A    between atoms: C_15  and  O_16
REMARK   11  A    between atoms: O_16  and  P_17
REMARK   12  A    between atoms: P_17  and  O_19
REMARK   13  A    between atoms: P_17  and  O_20
REMARK   14  A    between atoms: C_21  and  O_22
REMARK   15  A    between atoms: C_23  and  O_24
REMARK                            x       y       z     vdW  Elec       q    Type
REMARK                         _______ _______ _______ _____ _____    ______ ____
ROOT
ATOM      1  C   UNL     1       5.214   5.886  17.292  0.00  0.00    +0.000 C 
ATOM      2  C   UNL     1       4.897   4.386  16.982  0.00  0.00    +0.000 C 
ATOM      3  C   UNL     1       4.639   3.553  18.248  0.00  0.00    +0.000 C 
ATOM      4  C   UNL     1       3.535   4.207  19.051  0.00  0.00    +0.000 C 
ATOM      5  C   UNL     1       3.933   5.640  19.427  0.00  0.00    +0.000 C 
ATOM      6  C   UNL     1       4.086   6.491  18.145  0.00  0.00    +0.000 C 
ENDROOT
BRANCH   3   7
ATOM      7  O   UNL     1       4.217   2.219  17.901  0.00  0.00    +0.000 OA
ATOM      8  H   UNL     1       4.927   1.616  18.221  0.00  0.00    +0.000 HD
ENDBRANCH   3   7
BRANCH   5   9
ATOM      9  O   UNL     1       2.957   6.239  20.285  0.00  0.00    +0.000 OA
ATOM     10  H   UNL     1       2.850   5.647  21.055  0.00  0.00    +0.000 HD
ENDBRANCH   5   9
BRANCH   6  11
ATOM     11  O   UNL     1       2.865   6.638  17.413  0.00  0.00    +0.000 OA
ATOM     12  H   UNL     1       2.117   6.880  17.997  0.00  0.00    +0.000 HD
ENDBRANCH   6  11
BRANCH   1  13
ATOM     13  O   UNL     1       6.471   6.019  17.969  0.00  0.00    +0.000 OA
BRANCH  13  15
ATOM     14  O   UNL     1       6.693   8.649  17.747  0.00  0.00    +0.000 OA
ATOM     15  P   UNL     1       7.376   7.332  17.766  0.00  0.00    +0.000 P 
BRANCH  15  16
ATOM     16  O   UNL     1       8.214   7.058  16.428  0.00  0.00    +0.000 OA
ATOM     17  H   UNL     1       7.785   7.472  15.657  0.00  0.00    +0.000 HD
ENDBRANCH  15  16
BRANCH  15  18
ATOM     18  O   UNL     1       8.527   7.237  18.863  0.00  0.00    +0.000 OA
ATOM     19  H   UNL     1       9.152   7.986  18.817  0.00  0.00    +0.000 HD
ENDBRANCH  15  18
ENDBRANCH  13  15
ENDBRANCH   1  13
BRANCH   2  20
ATOM     20  O   UNL     1       5.936   3.775  16.234  0.00  0.00    +0.000 OA
BRANCH  20  21
ATOM     21  P   UNL     1       6.421   4.613  14.801  0.00  0.00    +0.000 P 
ATOM     22  O   UNL     1       7.875   4.636  15.273  0.00  0.00    +0.000 OA
BRANCH  21  23
ATOM     23  O   UNL     1       6.273   3.250  13.929  0.00  0.00    +0.000 OA
ATOM     24  H   UNL     1       7.104   2.750  14.060  0.00  0.00    +0.000 HD
ENDBRANCH  21  23
BRANCH  21  25
ATOM     25  O   UNL     1       6.906   5.453  13.367  0.00  0.00    +0.000 OA
ATOM     26  H   UNL     1       6.113   5.768  12.900  0.00  0.00    +0.000 HD
ENDBRANCH  21  25
ENDBRANCH  20  21
ENDBRANCH   2  20
BRANCH   4  27
ATOM     27  O   UNL     1       2.375   4.249  18.185  0.00  0.00    +0.000 OA
BRANCH  27  28
ATOM     28  P   UNL     1       1.143   3.346  18.999  0.00  0.00    +0.000 P 
ATOM     29  O   UNL     1       1.355   2.172  18.048  0.00  0.00    +0.000 OA
BRANCH  28  30
ATOM     30  O   UNL     1       2.155   3.058  20.241  0.00  0.00    +0.000 OA
ATOM     31  H   UNL     1       3.051   3.280  19.933  0.00  0.00    +0.000 HD
ENDBRANCH  28  30
BRANCH  28  32
ATOM     32  O   UNL     1      -0.089   2.444  19.812  0.00  0.00    +0.000 OA
ATOM     33  H   UNL     1       0.130   2.473  20.761  0.00  0.00    +0.000 HD
ENDBRANCH  28  32
ENDBRANCH  27  28
ENDBRANCH   4  27
TORSDOF 15
ENDMDL
