MODEL 1
REMARK VINA RESULT:      -7.0      0.000      0.000
REMARK  Name = 
REMARK  4 active torsions:
REMARK  status: ('A' for Active; 'I' for Inactive)
REMARK    1  A    between atoms: C_1  and  C_2
REMARK    2  A    between atoms: C_6  and  S_7
REMARK    3  A    between atoms: S_7  and  C_8
REMARK    4  A    between atoms: C_22  and  C_23
REMARK                            x       y       z     vdW  Elec       q    Type
REMARK                         _______ _______ _______ _____ _____    ______ ____
ROOT
ATOM      1  C   UNL     1       3.960   4.298  18.365  0.00  0.00    +0.000 A 
ATOM      2  C   UNL     1       3.290   3.663  17.290  0.00  0.00    +0.000 A 
ATOM      3  C   UNL     1       3.828   3.604  15.991  0.00  0.00    +0.000 A 
ATOM      4  C   UNL     1       5.053   4.221  15.801  0.00  0.00    +0.000 A 
ATOM      5  C   UNL     1       5.708   4.857  16.860  0.00  0.00    +0.000 A 
ATOM      6  C   UNL     1       6.918   5.429  16.425  0.00  0.00    +0.000 A 
ATOM      7  C   UNL     1       7.723   6.122  17.322  0.00  0.00    +0.000 A 
ATOM      8  C   UNL     1       7.268   6.203  18.646  0.00  0.00    +0.000 A 
ATOM      9  C   UNL     1       6.049   5.622  19.055  0.00  0.00    +0.000 A 
ATOM     10  C   UNL     1       5.221   4.925  18.142  0.00  0.00    +0.000 A 
ATOM     11  C   UNL     1       7.095   5.176  15.030  0.00  0.00    +0.000 C 
ATOM     12  N   UNL     1       7.944   5.423  14.097  0.00  0.00    +0.000 NA
ATOM     13  C   UNL     1       7.384   4.825  12.975  0.00  0.00    +0.000 C 
ATOM     14  O   UNL     1       7.857   4.817  11.852  0.00  0.00    +0.000 OA
ATOM     15  C   UNL     1       6.095   4.184  13.340  0.00  0.00    +0.000 C 
ATOM     16  C   UNL     1       5.911   4.405  14.626  0.00  0.00    +0.000 C 
ENDROOT
BRANCH  15  17
ATOM     17  C   UNL     1       5.253   3.483  12.469  0.00  0.00    +0.000 C 
ATOM     18  N   UNL     1       4.502   2.910  11.794  0.00  0.00    +0.000 NA
ENDBRANCH  15  17
BRANCH   1  19
ATOM     19  S   UNL     1       3.161   4.383  19.977  0.00  0.00    +0.000 S 
BRANCH  19  25
ATOM     20  C   UNL     1       2.443   7.394  17.858  0.00  0.00    +0.000 C 
ATOM     21  C   UNL     1       2.566   7.034  19.329  0.00  0.00    +0.000 C 
ATOM     22  O   UNL     1       1.899   8.049  20.100  0.00  0.00    +0.000 OA
ATOM     23  C   UNL     1       1.520   7.432  21.331  0.00  0.00    +0.000 C 
ATOM     24  C   UNL     1       1.118   6.019  20.974  0.00  0.00    +0.000 C 
ATOM     25  C   UNL     1       1.902   5.698  19.708  0.00  0.00    +0.000 C 
ENDBRANCH  19  25
ENDBRANCH   1  19
TORSDOF 3
ENDMDL
MODEL 2
REMARK VINA RESULT:      -6.9      4.162      6.031
REMARK  Name = 
REMARK  4 active torsions:
REMARK  status: ('A' for Active; 'I' for Inactive)
REMARK    1  A    between atoms: C_1  and  C_2
REMARK    2  A    between atoms: C_6  and  S_7
REMARK    3  A    between atoms: S_7  and  C_8
REMARK    4  A    between atoms: C_22  and  C_23
REMARK                            x       y       z     vdW  Elec       q    Type
REMARK                         _______ _______ _______ _____ _____    ______ ____
ROOT
ATOM      1  C   UNL     1       1.829   8.425  19.236  0.00  0.00    +0.000 A 
ATOM      2  C   UNL     1       1.214   7.726  20.305  0.00  0.00    +0.000 A 
ATOM      3  C   UNL     1       1.503   6.379  20.594  0.00  0.00    +0.000 A 
ATOM      4  C   UNL     1       2.413   5.750  19.762  0.00  0.00    +0.000 A 
ATOM      5  C   UNL     1       3.010   6.437  18.701  0.00  0.00    +0.000 A 
ATOM      6  C   UNL     1       3.877   5.591  17.984  0.00  0.00    +0.000 A 
ATOM      7  C   UNL     1       4.566   6.075  16.878  0.00  0.00    +0.000 A 
ATOM      8  C   UNL     1       4.353   7.419  16.541  0.00  0.00    +0.000 A 
ATOM      9  C   UNL     1       3.476   8.245  17.274  0.00  0.00    +0.000 A 
ATOM     10  C   UNL     1       2.763   7.752  18.395  0.00  0.00    +0.000 A 
ATOM     11  C   UNL     1       3.873   4.289  18.574  0.00  0.00    +0.000 C 
ATOM     12  N   UNL     1       4.419   3.139  18.395  0.00  0.00    +0.000 NA
ATOM     13  C   UNL     1       3.887   2.360  19.414  0.00  0.00    +0.000 C 
ATOM     14  O   UNL     1       4.130   1.184  19.623  0.00  0.00    +0.000 OA
ATOM     15  C   UNL     1       2.956   3.176  20.235  0.00  0.00    +0.000 C 
ATOM     16  C   UNL     1       2.944   4.383  19.708  0.00  0.00    +0.000 C 
ENDROOT
BRANCH  15  17
ATOM     17  C   UNL     1       2.240   2.727  21.350  0.00  0.00    +0.000 C 
ATOM     18  N   UNL     1       1.705   2.318  22.296  0.00  0.00    +0.000 NA
ENDBRANCH  15  17
BRANCH   1  19
ATOM     19  S   UNL     1       1.345  10.126  18.901  0.00  0.00    +0.000 S 
BRANCH  19  25
ATOM     20  C   UNL     1      -2.210  10.026  17.707  0.00  0.00    +0.000 C 
ATOM     21  C   UNL     1      -1.309  10.920  18.543  0.00  0.00    +0.000 C 
ATOM     22  O   UNL     1      -2.140  11.766  19.356  0.00  0.00    +0.000 OA
ATOM     23  C   UNL     1      -1.352  12.135  20.487  0.00  0.00    +0.000 C 
ATOM     24  C   UNL     1      -0.529  10.913  20.828  0.00  0.00    +0.000 C 
ATOM     25  C   UNL     1      -0.390  10.157  19.513  0.00  0.00    +0.000 C 
ENDBRANCH  19  25
ENDBRANCH   1  19
TORSDOF 3
ENDMDL
MODEL 3
REMARK VINA RESULT:      -6.9      4.081      6.254
REMARK  Name = 
REMARK  4 active torsions:
REMARK  status: ('A' for Active; 'I' for Inactive)
REMARK    1  A    between atoms: C_1  and  C_2
REMARK    2  A    between atoms: C_6  and  S_7
REMARK    3  A    between atoms: S_7  and  C_8
REMARK    4  A    between atoms: C_22  and  C_23
REMARK                            x       y       z     vdW  Elec       q    Type
REMARK                         _______ _______ _______ _____ _____    ______ ____
ROOT
ATOM      1  C   UNL     1       1.339   8.468  19.622  0.00  0.00    +0.000 A 
ATOM      2  C   UNL     1       0.789   7.657  20.645  0.00  0.00    +0.000 A 
ATOM      3  C   UNL     1       1.216   6.335  20.876  0.00  0.00    +0.000 A 
ATOM      4  C   UNL     1       2.199   5.848  20.032  0.00  0.00    +0.000 A 
ATOM      5  C   UNL     1       2.733   6.646  19.015  0.00  0.00    +0.000 A 
ATOM      6  C   UNL     1       3.694   5.932  18.275  0.00  0.00    +0.000 A 
ATOM      7  C   UNL     1       4.342   6.540  17.206  0.00  0.00    +0.000 A 
ATOM      8  C   UNL     1       3.991   7.869  16.928  0.00  0.00    +0.000 A 
ATOM      9  C   UNL     1       3.021   8.560  17.684  0.00  0.00    +0.000 A 
ATOM     10  C   UNL     1       2.351   7.941  18.767  0.00  0.00    +0.000 A 
ATOM     11  C   UNL     1       3.822   4.610  18.803  0.00  0.00    +0.000 C 
ATOM     12  N   UNL     1       4.490   3.535  18.580  0.00  0.00    +0.000 NA
ATOM     13  C   UNL     1       4.032   2.654  19.551  0.00  0.00    +0.000 C 
ATOM     14  O   UNL     1       4.395   1.502  19.709  0.00  0.00    +0.000 OA
ATOM     15  C   UNL     1       3.008   3.326  20.392  0.00  0.00    +0.000 C 
ATOM     16  C   UNL     1       2.874   4.550  19.923  0.00  0.00    +0.000 C 
ENDROOT
BRANCH  15  17
ATOM     17  C   UNL     1       2.329   2.750  21.472  0.00  0.00    +0.000 C 
ATOM     18  N   UNL     1       1.708   2.310  22.349  0.00  0.00    +0.000 NA
ENDBRANCH  15  17
BRANCH   1  19
ATOM     19  S   UNL     1       0.680  10.123  19.358  0.00  0.00    +0.000 S 
BRANCH  19  25
ATOM     20  C   UNL     1      -0.358  10.013  22.962  0.00  0.00    +0.000 C 
ATOM     21  C   UNL     1      -0.285  11.016  21.822  0.00  0.00    +0.000 C 
ATOM     22  O   UNL     1      -0.307  12.340  22.384  0.00  0.00    +0.000 OA
ATOM     23  C   UNL     1       0.330  13.190  21.430  0.00  0.00    +0.000 C 
ATOM     24  C   UNL     1       1.455  12.371  20.839  0.00  0.00    +0.000 C 
ATOM     25  C   UNL     1       1.002  10.924  20.983  0.00  0.00    +0.000 C 
ENDBRANCH  19  25
ENDBRANCH   1  19
TORSDOF 3
ENDMDL
MODEL 4
REMARK VINA RESULT:      -6.8      3.842      7.949
REMARK  Name = 
REMARK  4 active torsions:
REMARK  status: ('A' for Active; 'I' for Inactive)
REMARK    1  A    between atoms: C_1  and  C_2
REMARK    2  A    between atoms: C_6  and  S_7
REMARK    3  A    between atoms: S_7  and  C_8
REMARK    4  A    between atoms: C_22  and  C_23
REMARK                            x       y       z     vdW  Elec       q    Type
REMARK                         _______ _______ _______ _____ _____    ______ ____
ROOT
ATOM      1  C   UNL     1       3.447   6.148  17.618  0.00  0.00    +0.000 A 
ATOM      2  C   UNL     1       3.384   7.449  17.059  0.00  0.00    +0.000 A 
ATOM      3  C   UNL     1       2.735   8.519  17.703  0.00  0.00    +0.000 A 
ATOM      4  C   UNL     1       2.132   8.236  18.916  0.00  0.00    +0.000 A 
ATOM      5  C   UNL     1       2.185   6.949  19.462  0.00  0.00    +0.000 A 
ATOM      6  C   UNL     1       1.486   6.896  20.682  0.00  0.00    +0.000 A 
ATOM      7  C   UNL     1       1.404   5.701  21.387  0.00  0.00    +0.000 A 
ATOM      8  C   UNL     1       2.050   4.591  20.824  0.00  0.00    +0.000 A 
ATOM      9  C   UNL     1       2.742   4.670  19.597  0.00  0.00    +0.000 A 
ATOM     10  C   UNL     1       2.818   5.884  18.870  0.00  0.00    +0.000 A 
ATOM     11  C   UNL     1       0.942   8.183  20.980  0.00  0.00    +0.000 C 
ATOM     12  N   UNL     1       0.240   8.755  21.893  0.00  0.00    +0.000 NA
ATOM     13  C   UNL     1       0.122  10.065  21.447  0.00  0.00    +0.000 C 
ATOM     14  O   UNL     1      -0.475  10.966  22.009  0.00  0.00    +0.000 OA
ATOM     15  C   UNL     1       0.840  10.220  20.156  0.00  0.00    +0.000 C 
ATOM     16  C   UNL     1       1.351   9.042  19.861  0.00  0.00    +0.000 C 
ENDROOT
BRANCH  15  17
ATOM     17  C   UNL     1       0.941  11.402  19.412  0.00  0.00    +0.000 C 
ATOM     18  N   UNL     1       1.040  12.342  18.737  0.00  0.00    +0.000 NA
ENDBRANCH  15  17
BRANCH   1  19
ATOM     19  S   UNL     1       4.240   4.825  16.689  0.00  0.00    +0.000 S 
BRANCH  19  25
ATOM     20  C   UNL     1       7.214   4.740  14.404  0.00  0.00    +0.000 C 
ATOM     21  C   UNL     1       6.871   4.413  15.848  0.00  0.00    +0.000 C 
ATOM     22  O   UNL     1       8.092   4.384  16.608  0.00  0.00    +0.000 OA
ATOM     23  C   UNL     1       7.730   4.664  17.959  0.00  0.00    +0.000 C 
ATOM     24  C   UNL     1       6.622   5.689  17.883  0.00  0.00    +0.000 C 
ATOM     25  C   UNL     1       5.963   5.451  16.531  0.00  0.00    +0.000 C 
ENDBRANCH  19  25
ENDBRANCH   1  19
TORSDOF 3
ENDMDL
MODEL 5
REMARK VINA RESULT:      -6.8      1.047      1.201
REMARK  Name = 
REMARK  4 active torsions:
REMARK  status: ('A' for Active; 'I' for Inactive)
REMARK    1  A    between atoms: C_1  and  C_2
REMARK    2  A    between atoms: C_6  and  S_7
REMARK    3  A    between atoms: S_7  and  C_8
REMARK    4  A    between atoms: C_22  and  C_23
REMARK                            x       y       z     vdW  Elec       q    Type
REMARK                         _______ _______ _______ _____ _____    ______ ____
ROOT
ATOM      1  C   UNL     1       4.347   3.269  18.487  0.00  0.00    +0.000 A 
ATOM      2  C   UNL     1       3.848   2.574  17.356  0.00  0.00    +0.000 A 
ATOM      3  C   UNL     1       4.380   2.748  16.065  0.00  0.00    +0.000 A 
ATOM      4  C   UNL     1       5.416   3.659  15.941  0.00  0.00    +0.000 A 
ATOM      5  C   UNL     1       5.900   4.352  17.055  0.00  0.00    +0.000 A 
ATOM      6  C   UNL     1       6.931   5.234  16.683  0.00  0.00    +0.000 A 
ATOM      7  C   UNL     1       7.545   6.031  17.642  0.00  0.00    +0.000 A 
ATOM      8  C   UNL     1       7.090   5.896  18.961  0.00  0.00    +0.000 A 
ATOM      9  C   UNL     1       6.051   5.006  19.307  0.00  0.00    +0.000 A 
ATOM     10  C   UNL     1       5.415   4.200  18.330  0.00  0.00    +0.000 A 
ATOM     11  C   UNL     1       7.159   5.140  15.276  0.00  0.00    +0.000 C 
ATOM     12  N   UNL     1       7.919   5.658  14.377  0.00  0.00    +0.000 NA
ATOM     13  C   UNL     1       7.518   5.030  13.205  0.00  0.00    +0.000 C 
ATOM     14  O   UNL     1       7.974   5.223  12.091  0.00  0.00    +0.000 OA
ATOM     15  C   UNL     1       6.427   4.067  13.501  0.00  0.00    +0.000 C 
ATOM     16  C   UNL     1       6.199   4.137  14.797  0.00  0.00    +0.000 C 
ENDROOT
BRANCH  15  17
ATOM     17  C   UNL     1       5.779   3.251  12.566  0.00  0.00    +0.000 C 
ATOM     18  N   UNL     1       5.224   2.635  11.753  0.00  0.00    +0.000 NA
ENDBRANCH  15  17
BRANCH   1  19
ATOM     19  S   UNL     1       3.558   3.032  20.087  0.00  0.00    +0.000 S 
BRANCH  19  25
ATOM     20  C   UNL     1       1.135   4.469  17.609  0.00  0.00    +0.000 C 
ATOM     21  C   UNL     1       2.130   4.954  18.650  0.00  0.00    +0.000 C 
ATOM     22  O   UNL     1       1.797   6.311  18.996  0.00  0.00    +0.000 OA
ATOM     23  C   UNL     1       2.312   6.528  20.309  0.00  0.00    +0.000 C 
ATOM     24  C   UNL     1       2.107   5.226  21.050  0.00  0.00    +0.000 C 
ATOM     25  C   UNL     1       2.106   4.156  19.966  0.00  0.00    +0.000 C 
ENDBRANCH  19  25
ENDBRANCH   1  19
TORSDOF 3
ENDMDL
MODEL 6
REMARK VINA RESULT:      -6.8      3.285      7.453
REMARK  Name = 
REMARK  4 active torsions:
REMARK  status: ('A' for Active; 'I' for Inactive)
REMARK    1  A    between atoms: C_1  and  C_2
REMARK    2  A    between atoms: C_6  and  S_7
REMARK    3  A    between atoms: S_7  and  C_8
REMARK    4  A    between atoms: C_22  and  C_23
REMARK                            x       y       z     vdW  Elec       q    Type
REMARK                         _______ _______ _______ _____ _____    ______ ____
ROOT
ATOM      1  C   UNL     1       4.994   4.854  16.684  0.00  0.00    +0.000 A 
ATOM      2  C   UNL     1       4.815   6.187  16.236  0.00  0.00    +0.000 A 
ATOM      3  C   UNL     1       4.027   7.120  16.934  0.00  0.00    +0.000 A 
ATOM      4  C   UNL     1       3.406   6.667  18.086  0.00  0.00    +0.000 A 
ATOM      5  C   UNL     1       3.575   5.348  18.520  0.00  0.00    +0.000 A 
ATOM      6  C   UNL     1       2.833   5.112  19.693  0.00  0.00    +0.000 A 
ATOM      7  C   UNL     1       2.852   3.855  20.287  0.00  0.00    +0.000 A 
ATOM      8  C   UNL     1       3.638   2.875  19.666  0.00  0.00    +0.000 A 
ATOM      9  C   UNL     1       4.369   3.137  18.488  0.00  0.00    +0.000 A 
ATOM     10  C   UNL     1       4.344   4.413  17.873  0.00  0.00    +0.000 A 
ATOM     11  C   UNL     1       2.140   6.303  20.071  0.00  0.00    +0.000 C 
ATOM     12  N   UNL     1       1.342   6.713  20.992  0.00  0.00    +0.000 NA
ATOM     13  C   UNL     1       1.102   8.038  20.654  0.00  0.00    +0.000 C 
ATOM     14  O   UNL     1       0.387   8.818  21.259  0.00  0.00    +0.000 OA
ATOM     15  C   UNL     1       1.854   8.385  19.421  0.00  0.00    +0.000 C 
ATOM     16  C   UNL     1       2.502   7.298  19.053  0.00  0.00    +0.000 C 
ENDROOT
BRANCH  15  17
ATOM     17  C   UNL     1       1.858   9.633  18.788  0.00  0.00    +0.000 C 
ATOM     18  N   UNL     1       1.800  10.649  18.229  0.00  0.00    +0.000 NA
ENDBRANCH  15  17
BRANCH   1  19
ATOM     19  S   UNL     1       5.966   3.712  15.687  0.00  0.00    +0.000 S 
BRANCH  19  25
ATOM     20  C   UNL     1       4.851   3.333  12.125  0.00  0.00    +0.000 C 
ATOM     21  C   UNL     1       6.137   3.557  12.904  0.00  0.00    +0.000 C 
ATOM     22  O   UNL     1       7.121   4.098  12.005  0.00  0.00    +0.000 OA
ATOM     23  C   UNL     1       8.049   4.819  12.814  0.00  0.00    +0.000 C 
ATOM     24  C   UNL     1       7.226   5.467  13.904  0.00  0.00    +0.000 C 
ATOM     25  C   UNL     1       6.007   4.567  14.058  0.00  0.00    +0.000 C 
ENDBRANCH  19  25
ENDBRANCH   1  19
TORSDOF 3
ENDMDL
MODEL 7
REMARK VINA RESULT:      -6.8      1.955      2.542
REMARK  Name = 
REMARK  4 active torsions:
REMARK  status: ('A' for Active; 'I' for Inactive)
REMARK    1  A    between atoms: C_1  and  C_2
REMARK    2  A    between atoms: C_6  and  S_7
REMARK    3  A    between atoms: S_7  and  C_8
REMARK    4  A    between atoms: C_22  and  C_23
REMARK                            x       y       z     vdW  Elec       q    Type
REMARK                         _______ _______ _______ _____ _____    ______ ____
ROOT
ATOM      1  C   UNL     1       3.772   4.893  18.461  0.00  0.00    +0.000 A 
ATOM      2  C   UNL     1       3.018   4.321  17.406  0.00  0.00    +0.000 A 
ATOM      3  C   UNL     1       3.547   4.123  16.117  0.00  0.00    +0.000 A 
ATOM      4  C   UNL     1       4.852   4.538  15.915  0.00  0.00    +0.000 A 
ATOM      5  C   UNL     1       5.592   5.113  16.953  0.00  0.00    +0.000 A 
ATOM      6  C   UNL     1       6.876   5.476  16.507  0.00  0.00    +0.000 A 
ATOM      7  C   UNL     1       7.773   6.078  17.382  0.00  0.00    +0.000 A 
ATOM      8  C   UNL     1       7.330   6.285  18.697  0.00  0.00    +0.000 A 
ATOM      9  C   UNL     1       6.035   5.915  19.117  0.00  0.00    +0.000 A 
ATOM     10  C   UNL     1       5.115   5.311  18.225  0.00  0.00    +0.000 A 
ATOM     11  C   UNL     1       7.019   5.138  15.126  0.00  0.00    +0.000 C 
ATOM     12  N   UNL     1       7.900   5.211  14.193  0.00  0.00    +0.000 NA
ATOM     13  C   UNL     1       7.261   4.657  13.091  0.00  0.00    +0.000 C 
ATOM     14  O   UNL     1       7.732   4.527  11.975  0.00  0.00    +0.000 OA
ATOM     15  C   UNL     1       5.888   4.235  13.470  0.00  0.00    +0.000 C 
ATOM     16  C   UNL     1       5.734   4.538  14.743  0.00  0.00    +0.000 C 
ENDROOT
BRANCH  15  17
ATOM     17  C   UNL     1       4.953   3.632  12.619  0.00  0.00    +0.000 C 
ATOM     18  N   UNL     1       4.214   3.161  11.858  0.00  0.00    +0.000 NA
ENDBRANCH  15  17
BRANCH   1  19
ATOM     19  S   UNL     1       2.988   5.170  20.058  0.00  0.00    +0.000 S 
BRANCH  19  25
ATOM     20  C   UNL     1       4.544   1.778  20.449  0.00  0.00    +0.000 C 
ATOM     21  C   UNL     1       3.361   2.420  19.743  0.00  0.00    +0.000 C 
ATOM     22  O   UNL     1       2.412   1.387  19.422  0.00  0.00    +0.000 OA
ATOM     23  C   UNL     1       1.141   2.028  19.323  0.00  0.00    +0.000 C 
ATOM     24  C   UNL     1       1.135   3.096  20.394  0.00  0.00    +0.000 C 
ATOM     25  C   UNL     1       2.602   3.453  20.595  0.00  0.00    +0.000 C 
ENDBRANCH  19  25
ENDBRANCH   1  19
TORSDOF 3
ENDMDL
MODEL 8
REMARK VINA RESULT:      -6.6      4.031      7.551
REMARK  Name = 
REMARK  4 active torsions:
REMARK  status: ('A' for Active; 'I' for Inactive)
REMARK    1  A    between atoms: C_1  and  C_2
REMARK    2  A    between atoms: C_6  and  S_7
REMARK    3  A    between atoms: S_7  and  C_8
REMARK    4  A    between atoms: C_22  and  C_23
REMARK                            x       y       z     vdW  Elec       q    Type
REMARK                         _______ _______ _______ _____ _____    ______ ____
ROOT
ATOM      1  C   UNL     1       4.090   5.727  17.675  0.00  0.00    +0.000 A 
ATOM      2  C   UNL     1       3.973   7.022  17.110  0.00  0.00    +0.000 A 
ATOM      3  C   UNL     1       3.178   8.030  17.687  0.00  0.00    +0.000 A 
ATOM      4  C   UNL     1       2.487   7.690  18.837  0.00  0.00    +0.000 A 
ATOM      5  C   UNL     1       2.594   6.408  19.387  0.00  0.00    +0.000 A 
ATOM      6  C   UNL     1       1.788   6.289  20.534  0.00  0.00    +0.000 A 
ATOM      7  C   UNL     1       1.740   5.087  21.230  0.00  0.00    +0.000 A 
ATOM      8  C   UNL     1       2.528   4.038  20.734  0.00  0.00    +0.000 A 
ATOM      9  C   UNL     1       3.324   4.183  19.579  0.00  0.00    +0.000 A 
ATOM     10  C   UNL     1       3.368   5.404  18.861  0.00  0.00    +0.000 A 
ATOM     11  C   UNL     1       1.113   7.525  20.777  0.00  0.00    +0.000 C 
ATOM     12  N   UNL     1       0.281   8.030  21.617  0.00  0.00    +0.000 NA
ATOM     13  C   UNL     1       0.098   9.329  21.160  0.00  0.00    +0.000 C 
ATOM     14  O   UNL     1      -0.624  10.174  21.660  0.00  0.00    +0.000 OA
ATOM     15  C   UNL     1       0.920   9.552  19.943  0.00  0.00    +0.000 C 
ATOM     16  C   UNL     1       1.554   8.422  19.701  0.00  0.00    +0.000 C 
ENDROOT
BRANCH  15  17
ATOM     17  C   UNL     1       0.993  10.742  19.211  0.00  0.00    +0.000 C 
ATOM     18  N   UNL     1       1.077  11.763  18.664  0.00  0.00    +0.000 NA
ENDBRANCH  15  17
BRANCH   1  19
ATOM     19  S   UNL     1       5.076   4.481  16.828  0.00  0.00    +0.000 S 
BRANCH  19  25
ATOM     20  C   UNL     1       7.394   5.077  19.717  0.00  0.00    +0.000 C 
ATOM     21  C   UNL     1       6.831   5.835  18.526  0.00  0.00    +0.000 C 
ATOM     22  O   UNL     1       7.681   6.967  18.269  0.00  0.00    +0.000 OA
ATOM     23  C   UNL     1       7.509   7.292  16.890  0.00  0.00    +0.000 C 
ATOM     24  C   UNL     1       7.357   5.970  16.173  0.00  0.00    +0.000 C 
ATOM     25  C   UNL     1       6.791   5.021  17.221  0.00  0.00    +0.000 C 
ENDBRANCH  19  25
ENDBRANCH   1  19
TORSDOF 3
ENDMDL
MODEL 9
REMARK VINA RESULT:      -6.6      1.920      2.260
REMARK  Name = 
REMARK  4 active torsions:
REMARK  status: ('A' for Active; 'I' for Inactive)
REMARK    1  A    between atoms: C_1  and  C_2
REMARK    2  A    between atoms: C_6  and  S_7
REMARK    3  A    between atoms: S_7  and  C_8
REMARK    4  A    between atoms: C_22  and  C_23
REMARK                            x       y       z     vdW  Elec       q    Type
REMARK                         _______ _______ _______ _____ _____    ______ ____
ROOT
ATOM      1  C   UNL     1       4.142   4.589  18.261  0.00  0.00    +0.000 A 
ATOM      2  C   UNL     1       3.437   3.880  17.257  0.00  0.00    +0.000 A 
ATOM      3  C   UNL     1       3.926   3.739  15.944  0.00  0.00    +0.000 A 
ATOM      4  C   UNL     1       5.136   4.353  15.667  0.00  0.00    +0.000 A 
ATOM      5  C   UNL     1       5.825   5.062  16.655  0.00  0.00    +0.000 A 
ATOM      6  C   UNL     1       7.010   5.615  16.137  0.00  0.00    +0.000 A 
ATOM      7  C   UNL     1       7.842   6.372  16.954  0.00  0.00    +0.000 A 
ATOM      8  C   UNL     1       7.437   6.536  18.287  0.00  0.00    +0.000 A 
ATOM      9  C   UNL     1       6.241   5.973  18.780  0.00  0.00    +0.000 A 
ATOM     10  C   UNL     1       5.386   5.211  17.948  0.00  0.00    +0.000 A 
ATOM     11  C   UNL     1       7.136   5.272  14.755  0.00  0.00    +0.000 C 
ATOM     12  N   UNL     1       7.946   5.463  13.776  0.00  0.00    +0.000 NA
ATOM     13  C   UNL     1       7.350   4.789  12.718  0.00  0.00    +0.000 C 
ATOM     14  O   UNL     1       7.779   4.711  11.580  0.00  0.00    +0.000 OA
ATOM     15  C   UNL     1       6.083   4.162  13.175  0.00  0.00    +0.000 C 
ATOM     16  C   UNL     1       5.947   4.466  14.449  0.00  0.00    +0.000 C 
ENDROOT
BRANCH  15  17
ATOM     17  C   UNL     1       5.216   3.399  12.384  0.00  0.00    +0.000 C 
ATOM     18  N   UNL     1       4.555   2.738  11.695  0.00  0.00    +0.000 NA
ENDBRANCH  15  17
BRANCH   1  19
ATOM     19  S   UNL     1       3.405   4.774  19.893  0.00  0.00    +0.000 S 
BRANCH  19  25
ATOM     20  C   UNL     1       0.517   2.667  18.755  0.00  0.00    +0.000 C 
ATOM     21  C   UNL     1       1.092   3.217  20.049  0.00  0.00    +0.000 C 
ATOM     22  O   UNL     1       0.572   2.437  21.141  0.00  0.00    +0.000 OA
ATOM     23  C   UNL     1       1.516   2.557  22.204  0.00  0.00    +0.000 C 
ATOM     24  C   UNL     1       2.876   2.573  21.544  0.00  0.00    +0.000 C 
ATOM     25  C   UNL     1       2.625   3.127  20.147  0.00  0.00    +0.000 C 
ENDBRANCH  19  25
ENDBRANCH   1  19
TORSDOF 3
ENDMDL
