MODEL 1
REMARK VINA RESULT:      -9.3      0.000      0.000
REMARK  Name = 
REMARK  3 active torsions:
REMARK  status: ('A' for Active; 'I' for Inactive)
REMARK    1  A    between atoms: C_1  and  N_2
REMARK    2  A    between atoms: C_8  and  C_9
REMARK    3  A    between atoms: C_22  and  C_23
REMARK                            x       y       z     vdW  Elec       q    Type
REMARK                         _______ _______ _______ _____ _____    ______ ____
ROOT
ATOM      1  C   UNL     1       4.026   1.195  18.962  0.00  0.00    +0.000 C 
ATOM      2  N   UNL     1       3.716   2.620  18.844  0.00  0.00    +0.000 N 
ATOM      3  C   UNL     1       2.878   3.258  19.826  0.00  0.00    +0.000 A 
ATOM      4  O   UNL     1       2.435   2.599  20.753  0.00  0.00    +0.000 OA
ATOM      5  C   UNL     1       2.589   4.705  19.658  0.00  0.00    +0.000 A 
ATOM      6  C   UNL     1       1.760   5.332  20.585  0.00  0.00    +0.000 A 
ATOM      7  C   UNL     1       1.473   6.690  20.448  0.00  0.00    +0.000 A 
ATOM      8  C   UNL     1       2.016   7.466  19.400  0.00  0.00    +0.000 A 
ATOM      9  C   UNL     1       2.848   6.813  18.463  0.00  0.00    +0.000 A 
ATOM     10  C   UNL     1       3.126   5.445  18.592  0.00  0.00    +0.000 A 
ATOM     11  N   UNL     1       3.937   4.751  17.671  0.00  0.00    +0.000 N 
ATOM     12  N   UNL     1       4.521   5.282  16.577  0.00  0.00    +0.000 NA
ATOM     13  C   UNL     1       5.130   4.236  15.980  0.00  0.00    +0.000 A 
ATOM     14  C   UNL     1       4.971   3.045  16.743  0.00  0.00    +0.000 A 
ATOM     15  C   UNL     1       4.195   3.408  17.808  0.00  0.00    +0.000 A 
ENDROOT
BRANCH   8  16
ATOM     16  C   UNL     1       1.715   8.917  19.317  0.00  0.00    +0.000 A 
ATOM     17  C   UNL     1       0.791   9.526  20.183  0.00  0.00    +0.000 A 
ATOM     18  C   UNL     1       0.493  10.897  20.116  0.00  0.00    +0.000 A 
ATOM     19  C   UNL     1       1.146  11.700  19.166  0.00  0.00    +0.000 A 
ATOM     20  C   UNL     1       1.097  13.080  18.829  0.00  0.00    +0.000 A 
ATOM     21  C   UNL     1       1.981  13.292  17.796  0.00  0.00    +0.000 A 
ATOM     22  N   UNL     1       2.564  12.091  17.492  0.00  0.00    +0.000 N 
ATOM     23  C   UNL     1       2.068  11.102  18.312  0.00  0.00    +0.000 A 
ATOM     24  C   UNL     1       2.360   9.733  18.359  0.00  0.00    +0.000 A 
ATOM     25  H   UNL     1       3.258  11.946  16.771  0.00  0.00    +0.000 HD
ENDBRANCH   8  16
BRANCH  13  26
ATOM     26  C   UNL     1       5.832   4.352  14.700  0.00  0.00    +0.000 A 
ATOM     27  C   UNL     1       5.358   3.700  13.556  0.00  0.00    +0.000 A 
ATOM     28  C   UNL     1       6.053   3.798  12.345  0.00  0.00    +0.000 A 
ATOM     29  C   UNL     1       7.228   4.544  12.268  0.00  0.00    +0.000 A 
ATOM     30  C   UNL     1       7.702   5.210  13.395  0.00  0.00    +0.000 A 
ATOM     31  C   UNL     1       7.006   5.119  14.604  0.00  0.00    +0.000 A 
ENDBRANCH  13  26
TORSDOF 2
ENDMDL
MODEL 2
REMARK VINA RESULT:      -9.3      0.845      1.573
REMARK  Name = 
REMARK  3 active torsions:
REMARK  status: ('A' for Active; 'I' for Inactive)
REMARK    1  A    between atoms: C_1  and  N_2
REMARK    2  A    between atoms: C_8  and  C_9
REMARK    3  A    between atoms: C_22  and  C_23
REMARK                            x       y       z     vdW  Elec       q    Type
REMARK                         _______ _______ _______ _____ _____    ______ ____
ROOT
ATOM      1  C   UNL     1       4.084   1.277  19.016  0.00  0.00    +0.000 C 
ATOM      2  N   UNL     1       3.775   2.698  18.850  0.00  0.00    +0.000 N 
ATOM      3  C   UNL     1       2.939   3.370  19.810  0.00  0.00    +0.000 A 
ATOM      4  O   UNL     1       2.497   2.744  20.760  0.00  0.00    +0.000 OA
ATOM      5  C   UNL     1       2.651   4.811  19.593  0.00  0.00    +0.000 A 
ATOM      6  C   UNL     1       1.824   5.470  20.499  0.00  0.00    +0.000 A 
ATOM      7  C   UNL     1       1.538   6.823  20.316  0.00  0.00    +0.000 A 
ATOM      8  C   UNL     1       2.081   7.562  19.241  0.00  0.00    +0.000 A 
ATOM      9  C   UNL     1       2.911   6.877  18.326  0.00  0.00    +0.000 A 
ATOM     10  C   UNL     1       3.187   5.513  18.501  0.00  0.00    +0.000 A 
ATOM     11  N   UNL     1       3.996   4.787  17.604  0.00  0.00    +0.000 N 
ATOM     12  N   UNL     1       4.579   5.279  16.491  0.00  0.00    +0.000 NA
ATOM     13  C   UNL     1       5.187   4.213  15.930  0.00  0.00    +0.000 A 
ATOM     14  C   UNL     1       5.027   3.049  16.734  0.00  0.00    +0.000 A 
ATOM     15  C   UNL     1       4.254   3.450  17.786  0.00  0.00    +0.000 A 
ENDROOT
BRANCH   8  16
ATOM     16  C   UNL     1       1.781   9.010  19.108  0.00  0.00    +0.000 A 
ATOM     17  C   UNL     1       2.278   9.767  18.034  0.00  0.00    +0.000 A 
ATOM     18  C   UNL     1       2.004  11.138  17.894  0.00  0.00    +0.000 A 
ATOM     19  C   UNL     1       1.194  11.780  18.846  0.00  0.00    +0.000 A 
ATOM     20  C   UNL     1       0.721  13.110  19.012  0.00  0.00    +0.000 A 
ATOM     21  C   UNL     1      -0.052  13.142  20.150  0.00  0.00    +0.000 A 
ATOM     22  N   UNL     1      -0.064  11.880  20.682  0.00  0.00    +0.000 N 
ATOM     23  C   UNL     1       0.693  11.032  19.906  0.00  0.00    +0.000 A 
ATOM     24  C   UNL     1       0.973   9.668  20.064  0.00  0.00    +0.000 A 
ATOM     25  H   UNL     1      -0.556  11.608  21.523  0.00  0.00    +0.000 HD
ENDBRANCH   8  16
BRANCH  13  26
ATOM     26  C   UNL     1       5.887   4.284  14.645  0.00  0.00    +0.000 A 
ATOM     27  C   UNL     1       7.044   5.058  14.496  0.00  0.00    +0.000 A 
ATOM     28  C   UNL     1       7.688   5.137  13.257  0.00  0.00    +0.000 A 
ATOM     29  C   UNL     1       7.182   4.447  12.157  0.00  0.00    +0.000 A 
ATOM     30  C   UNL     1       6.042   3.660  12.295  0.00  0.00    +0.000 A 
ATOM     31  C   UNL     1       5.400   3.575  13.534  0.00  0.00    +0.000 A 
ENDBRANCH  13  26
TORSDOF 2
ENDMDL
MODEL 3
REMARK VINA RESULT:      -9.2      0.985      1.396
REMARK  Name = 
REMARK  3 active torsions:
REMARK  status: ('A' for Active; 'I' for Inactive)
REMARK    1  A    between atoms: C_1  and  N_2
REMARK    2  A    between atoms: C_8  and  C_9
REMARK    3  A    between atoms: C_22  and  C_23
REMARK                            x       y       z     vdW  Elec       q    Type
REMARK                         _______ _______ _______ _____ _____    ______ ____
ROOT
ATOM      1  C   UNL     1       4.270   1.697  19.475  0.00  0.00    +0.000 C 
ATOM      2  N   UNL     1       3.888   3.083  19.204  0.00  0.00    +0.000 N 
ATOM      3  C   UNL     1       3.051   3.794  20.134  0.00  0.00    +0.000 A 
ATOM      4  O   UNL     1       2.669   3.230  21.147  0.00  0.00    +0.000 OA
ATOM      5  C   UNL     1       2.687   5.197  19.810  0.00  0.00    +0.000 A 
ATOM      6  C   UNL     1       1.858   5.892  20.687  0.00  0.00    +0.000 A 
ATOM      7  C   UNL     1       1.501   7.210  20.403  0.00  0.00    +0.000 A 
ATOM      8  C   UNL     1       1.974   7.881  19.253  0.00  0.00    +0.000 A 
ATOM      9  C   UNL     1       2.807   7.160  18.369  0.00  0.00    +0.000 A 
ATOM     10  C   UNL     1       3.154   5.830  18.646  0.00  0.00    +0.000 A 
ATOM     11  N   UNL     1       3.969   5.069  17.783  0.00  0.00    +0.000 N 
ATOM     12  N   UNL     1       4.492   5.492  16.614  0.00  0.00    +0.000 NA
ATOM     13  C   UNL     1       5.133   4.411  16.121  0.00  0.00    +0.000 A 
ATOM     14  C   UNL     1       5.055   3.313  17.023  0.00  0.00    +0.000 A 
ATOM     15  C   UNL     1       4.296   3.764  18.066  0.00  0.00    +0.000 A 
ENDROOT
BRANCH   8  16
ATOM     16  C   UNL     1       1.600   9.297  19.012  0.00  0.00    +0.000 A 
ATOM     17  C   UNL     1       2.320  10.104  18.115  0.00  0.00    +0.000 A 
ATOM     18  C   UNL     1       1.980  11.446  17.877  0.00  0.00    +0.000 A 
ATOM     19  C   UNL     1       0.875  12.007  18.540  0.00  0.00    +0.000 A 
ATOM     20  C   UNL     1       0.260  13.288  18.538  0.00  0.00    +0.000 A 
ATOM     21  C   UNL     1      -0.810  13.241  19.402  0.00  0.00    +0.000 A 
ATOM     22  N   UNL     1      -0.866  11.980  19.931  0.00  0.00    +0.000 N 
ATOM     23  C   UNL     1       0.155  11.208  19.423  0.00  0.00    +0.000 A 
ATOM     24  C   UNL     1       0.495   9.873  19.680  0.00  0.00    +0.000 A 
ATOM     25  H   UNL     1      -1.555  11.658  20.597  0.00  0.00    +0.000 HD
ENDBRANCH   8  16
BRANCH  13  26
ATOM     26  C   UNL     1       5.789   4.406  14.811  0.00  0.00    +0.000 A 
ATOM     27  C   UNL     1       5.229   3.721  13.727  0.00  0.00    +0.000 A 
ATOM     28  C   UNL     1       5.879   3.702  12.489  0.00  0.00    +0.000 A 
ATOM     29  C   UNL     1       7.094   4.365  12.323  0.00  0.00    +0.000 A 
ATOM     30  C   UNL     1       7.654   5.063  13.389  0.00  0.00    +0.000 A 
ATOM     31  C   UNL     1       7.003   5.088  14.626  0.00  0.00    +0.000 A 
ENDBRANCH  13  26
TORSDOF 2
ENDMDL
MODEL 4
REMARK VINA RESULT:      -9.0      2.695      8.899
REMARK  Name = 
REMARK  3 active torsions:
REMARK  status: ('A' for Active; 'I' for Inactive)
REMARK    1  A    between atoms: C_1  and  N_2
REMARK    2  A    between atoms: C_8  and  C_9
REMARK    3  A    between atoms: C_22  and  C_23
REMARK                            x       y       z     vdW  Elec       q    Type
REMARK                         _______ _______ _______ _____ _____    ______ ____
ROOT
ATOM      1  C   UNL     1      -1.237  12.752  22.962  0.00  0.00    +0.000 C 
ATOM      2  N   UNL     1      -0.461  11.866  22.094  0.00  0.00    +0.000 N 
ATOM      3  C   UNL     1      -0.449  10.448  22.338  0.00  0.00    +0.000 A 
ATOM      4  O   UNL     1      -1.094   9.996  23.272  0.00  0.00    +0.000 OA
ATOM      5  C   UNL     1       0.359   9.593  21.432  0.00  0.00    +0.000 A 
ATOM      6  C   UNL     1       0.401   8.221  21.669  0.00  0.00    +0.000 A 
ATOM      7  C   UNL     1       1.154   7.398  20.832  0.00  0.00    +0.000 A 
ATOM      8  C   UNL     1       1.869   7.910  19.726  0.00  0.00    +0.000 A 
ATOM      9  C   UNL     1       1.823   9.305  19.504  0.00  0.00    +0.000 A 
ATOM     10  C   UNL     1       1.078  10.135  20.353  0.00  0.00    +0.000 A 
ATOM     11  N   UNL     1       1.018  11.532  20.178  0.00  0.00    +0.000 N 
ATOM     12  N   UNL     1       1.655  12.236  19.219  0.00  0.00    +0.000 NA
ATOM     13  C   UNL     1       1.354  13.523  19.490  0.00  0.00    +0.000 A 
ATOM     14  C   UNL     1       0.471  13.621  20.602  0.00  0.00    +0.000 A 
ATOM     15  C   UNL     1       0.288  12.334  21.022  0.00  0.00    +0.000 A 
ENDROOT
BRANCH   8  16
ATOM     16  C   UNL     1       2.625   6.990  18.839  0.00  0.00    +0.000 A 
ATOM     17  C   UNL     1       2.460   5.597  18.915  0.00  0.00    +0.000 A 
ATOM     18  C   UNL     1       3.169   4.713  18.084  0.00  0.00    +0.000 A 
ATOM     19  C   UNL     1       4.063   5.229  17.131  0.00  0.00    +0.000 A 
ATOM     20  C   UNL     1       4.916   4.649  16.153  0.00  0.00    +0.000 A 
ATOM     21  C   UNL     1       5.563   5.674  15.500  0.00  0.00    +0.000 A 
ATOM     22  N   UNL     1       5.136   6.854  16.046  0.00  0.00    +0.000 N 
ATOM     23  C   UNL     1       4.222   6.609  17.048  0.00  0.00    +0.000 A 
ATOM     24  C   UNL     1       3.533   7.498  17.882  0.00  0.00    +0.000 A 
ATOM     25  H   UNL     1       5.444   7.773  15.760  0.00  0.00    +0.000 HD
ENDBRANCH   8  16
BRANCH  13  26
ATOM     26  C   UNL     1       1.907  14.645  18.728  0.00  0.00    +0.000 A 
ATOM     27  C   UNL     1       3.087  14.503  17.989  0.00  0.00    +0.000 A 
ATOM     28  C   UNL     1       3.619  15.590  17.287  0.00  0.00    +0.000 A 
ATOM     29  C   UNL     1       2.978  16.827  17.318  0.00  0.00    +0.000 A 
ATOM     30  C   UNL     1       1.794  16.978  18.036  0.00  0.00    +0.000 A 
ATOM     31  C   UNL     1       1.258  15.892  18.733  0.00  0.00    +0.000 A 
ENDBRANCH  13  26
TORSDOF 2
ENDMDL
MODEL 5
REMARK VINA RESULT:      -9.0      3.065      9.334
REMARK  Name = 
REMARK  3 active torsions:
REMARK  status: ('A' for Active; 'I' for Inactive)
REMARK    1  A    between atoms: C_1  and  N_2
REMARK    2  A    between atoms: C_8  and  C_9
REMARK    3  A    between atoms: C_22  and  C_23
REMARK                            x       y       z     vdW  Elec       q    Type
REMARK                         _______ _______ _______ _____ _____    ______ ____
ROOT
ATOM      1  C   UNL     1      -1.609  13.495  22.951  0.00  0.00    +0.000 C 
ATOM      2  N   UNL     1      -0.830  12.527  22.178  0.00  0.00    +0.000 N 
ATOM      3  C   UNL     1      -0.879  11.129  22.517  0.00  0.00    +0.000 A 
ATOM      4  O   UNL     1      -1.577  10.764  23.450  0.00  0.00    +0.000 OA
ATOM      5  C   UNL     1      -0.066  10.188  21.705  0.00  0.00    +0.000 A 
ATOM      6  C   UNL     1      -0.083   8.834  22.035  0.00  0.00    +0.000 A 
ATOM      7  C   UNL     1       0.674   7.932  21.288  0.00  0.00    +0.000 A 
ATOM      8  C   UNL     1       1.451   8.343  20.182  0.00  0.00    +0.000 A 
ATOM      9  C   UNL     1       1.464   9.721  19.866  0.00  0.00    +0.000 A 
ATOM     10  C   UNL     1       0.716  10.631  20.625  0.00  0.00    +0.000 A 
ATOM     11  N   UNL     1       0.713  12.014  20.355  0.00  0.00    +0.000 N 
ATOM     12  N   UNL     1       1.413  12.630  19.379  0.00  0.00    +0.000 NA
ATOM     13  C   UNL     1       1.148  13.942  19.550  0.00  0.00    +0.000 A 
ATOM     14  C   UNL     1       0.224  14.144  20.615  0.00  0.00    +0.000 A 
ATOM     15  C   UNL     1      -0.022  12.895  21.111  0.00  0.00    +0.000 A 
ENDROOT
BRANCH   8  16
ATOM     16  C   UNL     1       2.209   7.341  19.392  0.00  0.00    +0.000 A 
ATOM     17  C   UNL     1       2.879   7.694  18.209  0.00  0.00    +0.000 A 
ATOM     18  C   UNL     1       3.599   6.758  17.449  0.00  0.00    +0.000 A 
ATOM     19  C   UNL     1       3.673   5.424  17.886  0.00  0.00    +0.000 A 
ATOM     20  C   UNL     1       4.297   4.248  17.387  0.00  0.00    +0.000 A 
ATOM     21  C   UNL     1       4.018   3.222  18.261  0.00  0.00    +0.000 A 
ATOM     22  N   UNL     1       3.246   3.731  19.271  0.00  0.00    +0.000 N 
ATOM     23  C   UNL     1       3.018   5.073  19.062  0.00  0.00    +0.000 A 
ATOM     24  C   UNL     1       2.283   5.995  19.819  0.00  0.00    +0.000 A 
ATOM     25  H   UNL     1       2.892   3.202  20.056  0.00  0.00    +0.000 HD
ENDBRANCH   8  16
BRANCH  13  26
ATOM     26  C   UNL     1       1.772  14.990  18.740  0.00  0.00    +0.000 A 
ATOM     27  C   UNL     1       1.197  16.262  18.639  0.00  0.00    +0.000 A 
ATOM     28  C   UNL     1       1.789  17.246  17.841  0.00  0.00    +0.000 A 
ATOM     29  C   UNL     1       2.959  16.968  17.135  0.00  0.00    +0.000 A 
ATOM     30  C   UNL     1       3.550  15.711  17.238  0.00  0.00    +0.000 A 
ATOM     31  C   UNL     1       2.963  14.729  18.040  0.00  0.00    +0.000 A 
ENDBRANCH  13  26
TORSDOF 2
ENDMDL
MODEL 6
REMARK VINA RESULT:      -8.7      4.157     10.643
REMARK  Name = 
REMARK  3 active torsions:
REMARK  status: ('A' for Active; 'I' for Inactive)
REMARK    1  A    between atoms: C_1  and  N_2
REMARK    2  A    between atoms: C_8  and  C_9
REMARK    3  A    between atoms: C_22  and  C_23
REMARK                            x       y       z     vdW  Elec       q    Type
REMARK                         _______ _______ _______ _____ _____    ______ ____
ROOT
ATOM      1  C   UNL     1      -3.072  15.102  23.419  0.00  0.00    +0.000 C 
ATOM      2  N   UNL     1      -2.260  14.162  22.645  0.00  0.00    +0.000 N 
ATOM      3  C   UNL     1      -2.119  12.799  23.088  0.00  0.00    +0.000 A 
ATOM      4  O   UNL     1      -2.684  12.440  24.108  0.00  0.00    +0.000 OA
ATOM      5  C   UNL     1      -1.280  11.886  22.270  0.00  0.00    +0.000 A 
ATOM      6  C   UNL     1      -1.113  10.571  22.697  0.00  0.00    +0.000 A 
ATOM      7  C   UNL     1      -0.329   9.696  21.945  0.00  0.00    +0.000 A 
ATOM      8  C   UNL     1       0.293  10.095  20.742  0.00  0.00    +0.000 A 
ATOM      9  C   UNL     1       0.121  11.435  20.327  0.00  0.00    +0.000 A 
ATOM     10  C   UNL     1      -0.655  12.320  21.089  0.00  0.00    +0.000 A 
ATOM     11  N   UNL     1      -0.840  13.668  20.721  0.00  0.00    +0.000 N 
ATOM     12  N   UNL     1      -0.305  14.271  19.639  0.00  0.00    +0.000 NA
ATOM     13  C   UNL     1      -0.701  15.557  19.740  0.00  0.00    +0.000 A 
ATOM     14  C   UNL     1      -1.542  15.747  20.873  0.00  0.00    +0.000 A 
ATOM     15  C   UNL     1      -1.599  14.525  21.480  0.00  0.00    +0.000 A 
ENDROOT
BRANCH   8  16
ATOM     16  C   UNL     1       1.086   9.117  19.955  0.00  0.00    +0.000 A 
ATOM     17  C   UNL     1       1.329   9.303  18.584  0.00  0.00    +0.000 A 
ATOM     18  C   UNL     1       2.076   8.387  17.825  0.00  0.00    +0.000 A 
ATOM     19  C   UNL     1       2.618   7.252  18.451  0.00  0.00    +0.000 A 
ATOM     20  C   UNL     1       3.404   6.153  18.008  0.00  0.00    +0.000 A 
ATOM     21  C   UNL     1       3.638   5.340  19.094  0.00  0.00    +0.000 A 
ATOM     22  N   UNL     1       3.020   5.903  20.179  0.00  0.00    +0.000 N 
ATOM     23  C   UNL     1       2.387   7.069  19.811  0.00  0.00    +0.000 A 
ATOM     24  C   UNL     1       1.630   7.968  20.574  0.00  0.00    +0.000 A 
ATOM     25  H   UNL     1       3.026   5.521  21.115  0.00  0.00    +0.000 HD
ENDBRANCH   8  16
BRANCH  13  26
ATOM     26  C   UNL     1      -0.276  16.596  18.799  0.00  0.00    +0.000 A 
ATOM     27  C   UNL     1       1.050  16.670  18.357  0.00  0.00    +0.000 A 
ATOM     28  C   UNL     1       1.448  17.683  17.478  0.00  0.00    +0.000 A 
ATOM     29  C   UNL     1       0.526  18.630  17.034  0.00  0.00    +0.000 A 
ATOM     30  C   UNL     1      -0.800  18.558  17.453  0.00  0.00    +0.000 A 
ATOM     31  C   UNL     1      -1.201  17.544  18.326  0.00  0.00    +0.000 A 
ENDBRANCH  13  26
TORSDOF 2
ENDMDL
MODEL 7
REMARK VINA RESULT:      -8.5      3.013      9.185
REMARK  Name = 
REMARK  3 active torsions:
REMARK  status: ('A' for Active; 'I' for Inactive)
REMARK    1  A    between atoms: C_1  and  N_2
REMARK    2  A    between atoms: C_8  and  C_9
REMARK    3  A    between atoms: C_22  and  C_23
REMARK                            x       y       z     vdW  Elec       q    Type
REMARK                         _______ _______ _______ _____ _____    ______ ____
ROOT
ATOM      1  C   UNL     1      -1.693  13.816  22.848  0.00  0.00    +0.000 C 
ATOM      2  N   UNL     1      -0.924  12.761  22.187  0.00  0.00    +0.000 N 
ATOM      3  C   UNL     1      -1.071  11.392  22.608  0.00  0.00    +0.000 A 
ATOM      4  O   UNL     1      -1.842  11.125  23.516  0.00  0.00    +0.000 OA
ATOM      5  C   UNL     1      -0.264  10.359  21.909  0.00  0.00    +0.000 A 
ATOM      6  C   UNL     1      -0.376   9.033  22.320  0.00  0.00    +0.000 A 
ATOM      7  C   UNL     1       0.373   8.046  21.679  0.00  0.00    +0.000 A 
ATOM      8  C   UNL     1       1.236   8.344  20.601  0.00  0.00    +0.000 A 
ATOM      9  C   UNL     1       1.344   9.695  20.202  0.00  0.00    +0.000 A 
ATOM     10  C   UNL     1       0.604  10.691  20.855  0.00  0.00    +0.000 A 
ATOM     11  N   UNL     1       0.694  12.051  20.500  0.00  0.00    +0.000 N 
ATOM     12  N   UNL     1       1.484  12.565  19.534  0.00  0.00    +0.000 NA
ATOM     13  C   UNL     1       1.283  13.897  19.607  0.00  0.00    +0.000 A 
ATOM     14  C   UNL     1       0.310  14.216  20.597  0.00  0.00    +0.000 A 
ATOM     15  C   UNL     1      -0.035  13.017  21.153  0.00  0.00    +0.000 A 
ENDROOT
BRANCH   8  16
ATOM     16  C   UNL     1       1.983   7.255  19.924  0.00  0.00    +0.000 A 
ATOM     17  C   UNL     1       1.974   5.940  20.420  0.00  0.00    +0.000 A 
ATOM     18  C   UNL     1       2.677   4.899  19.792  0.00  0.00    +0.000 A 
ATOM     19  C   UNL     1       3.403   5.164  18.619  0.00  0.00    +0.000 A 
ATOM     20  C   UNL     1       4.201   4.378  17.745  0.00  0.00    +0.000 A 
ATOM     21  C   UNL     1       4.661   5.201  16.742  0.00  0.00    +0.000 A 
ATOM     22  N   UNL     1       4.175   6.459  16.977  0.00  0.00    +0.000 N 
ATOM     23  C   UNL     1       3.407   6.463  18.120  0.00  0.00    +0.000 A 
ATOM     24  C   UNL     1       2.723   7.513  18.748  0.00  0.00    +0.000 A 
ATOM     25  H   UNL     1       4.352   7.269  16.399  0.00  0.00    +0.000 HD
ENDBRANCH   8  16
BRANCH  13  26
ATOM     26  C   UNL     1       2.011  14.857  18.775  0.00  0.00    +0.000 A 
ATOM     27  C   UNL     1       3.266  14.542  18.241  0.00  0.00    +0.000 A 
ATOM     28  C   UNL     1       3.962  15.478  17.469  0.00  0.00    +0.000 A 
ATOM     29  C   UNL     1       3.413  16.736  17.225  0.00  0.00    +0.000 A 
ATOM     30  C   UNL     1       2.158  17.057  17.737  0.00  0.00    +0.000 A 
ATOM     31  C   UNL     1       1.458  16.121  18.503  0.00  0.00    +0.000 A 
ENDBRANCH  13  26
TORSDOF 2
ENDMDL
MODEL 8
REMARK VINA RESULT:      -8.3      2.401      8.835
REMARK  Name = 
REMARK  3 active torsions:
REMARK  status: ('A' for Active; 'I' for Inactive)
REMARK    1  A    between atoms: C_1  and  N_2
REMARK    2  A    between atoms: C_8  and  C_9
REMARK    3  A    between atoms: C_22  and  C_23
REMARK                            x       y       z     vdW  Elec       q    Type
REMARK                         _______ _______ _______ _____ _____    ______ ____
ROOT
ATOM      1  C   UNL     1      -1.301  11.251  22.778  0.00  0.00    +0.000 C 
ATOM      2  N   UNL     1      -0.396  10.620  21.817  0.00  0.00    +0.000 N 
ATOM      3  C   UNL     1      -0.175   9.198  21.864  0.00  0.00    +0.000 A 
ATOM      4  O   UNL     1      -0.751   8.530  22.708  0.00  0.00    +0.000 OA
ATOM      5  C   UNL     1       0.757   8.606  20.870  0.00  0.00    +0.000 A 
ATOM      6  C   UNL     1       1.001   7.235  20.917  0.00  0.00    +0.000 A 
ATOM      7  C   UNL     1       1.873   6.657  19.994  0.00  0.00    +0.000 A 
ATOM      8  C   UNL     1       2.510   7.419  18.990  0.00  0.00    +0.000 A 
ATOM      9  C   UNL     1       2.259   8.809  18.961  0.00  0.00    +0.000 A 
ATOM     10  C   UNL     1       1.394   9.394  19.897  0.00  0.00    +0.000 A 
ATOM     11  N   UNL     1       1.128  10.778  19.914  0.00  0.00    +0.000 N 
ATOM     12  N   UNL     1       1.659  11.695  19.079  0.00  0.00    +0.000 NA
ATOM     13  C   UNL     1       1.169  12.873  19.517  0.00  0.00    +0.000 A 
ATOM     14  C   UNL     1       0.274  12.683  20.608  0.00  0.00    +0.000 A 
ATOM     15  C   UNL     1       0.282  11.337  20.841  0.00  0.00    +0.000 A 
ENDROOT
BRANCH   8  16
ATOM     16  C   UNL     1       3.400   6.754  18.005  0.00  0.00    +0.000 A 
ATOM     17  C   UNL     1       4.076   7.486  17.015  0.00  0.00    +0.000 A 
ATOM     18  C   UNL     1       4.920   6.872  16.075  0.00  0.00    +0.000 A 
ATOM     19  C   UNL     1       5.116   5.481  16.127  0.00  0.00    +0.000 A 
ATOM     20  C   UNL     1       5.879   4.556  15.365  0.00  0.00    +0.000 A 
ATOM     21  C   UNL     1       5.675   3.303  15.898  0.00  0.00    +0.000 A 
ATOM     22  N   UNL     1       4.814   3.434  16.954  0.00  0.00    +0.000 N 
ATOM     23  C   UNL     1       4.455   4.754  17.112  0.00  0.00    +0.000 A 
ATOM     24  C   UNL     1       3.598   5.354  18.044  0.00  0.00    +0.000 A 
ATOM     25  H   UNL     1       4.486   2.674  17.536  0.00  0.00    +0.000 HD
ENDBRANCH   8  16
BRANCH  13  26
ATOM     26  C   UNL     1       1.554  14.160  18.932  0.00  0.00    +0.000 A 
ATOM     27  C   UNL     1       2.754  14.301  18.227  0.00  0.00    +0.000 A 
ATOM     28  C   UNL     1       3.123  15.542  17.696  0.00  0.00    +0.000 A 
ATOM     29  C   UNL     1       2.296  16.652  17.867  0.00  0.00    +0.000 A 
ATOM     30  C   UNL     1       1.091  16.521  18.552  0.00  0.00    +0.000 A 
ATOM     31  C   UNL     1       0.719  15.281  19.078  0.00  0.00    +0.000 A 
ENDBRANCH  13  26
TORSDOF 2
ENDMDL
MODEL 9
REMARK VINA RESULT:      -8.1      1.132      1.556
REMARK  Name = 
REMARK  3 active torsions:
REMARK  status: ('A' for Active; 'I' for Inactive)
REMARK    1  A    between atoms: C_1  and  N_2
REMARK    2  A    between atoms: C_8  and  C_9
REMARK    3  A    between atoms: C_22  and  C_23
REMARK                            x       y       z     vdW  Elec       q    Type
REMARK                         _______ _______ _______ _____ _____    ______ ____
ROOT
ATOM      1  C   UNL     1       3.904   2.261  20.304  0.00  0.00    +0.000 C 
ATOM      2  N   UNL     1       3.503   3.614  19.921  0.00  0.00    +0.000 N 
ATOM      3  C   UNL     1       2.598   4.361  20.756  0.00  0.00    +0.000 A 
ATOM      4  O   UNL     1       2.176   3.854  21.783  0.00  0.00    +0.000 OA
ATOM      5  C   UNL     1       2.218   5.728  20.319  0.00  0.00    +0.000 A 
ATOM      6  C   UNL     1       1.324   6.455  21.103  0.00  0.00    +0.000 A 
ATOM      7  C   UNL     1       0.951   7.741  20.712  0.00  0.00    +0.000 A 
ATOM      8  C   UNL     1       1.469   8.348  19.546  0.00  0.00    +0.000 A 
ATOM      9  C   UNL     1       2.367   7.594  18.758  0.00  0.00    +0.000 A 
ATOM     10  C   UNL     1       2.732   6.296  19.141  0.00  0.00    +0.000 A 
ATOM     11  N   UNL     1       3.612   5.504  18.376  0.00  0.00    +0.000 N 
ATOM     12  N   UNL     1       4.187   5.864  17.211  0.00  0.00    +0.000 NA
ATOM     13  C   UNL     1       4.881   4.772  16.826  0.00  0.00    +0.000 A 
ATOM     14  C   UNL     1       4.782   3.734  17.795  0.00  0.00    +0.000 A 
ATOM     15  C   UNL     1       3.956   4.231  18.762  0.00  0.00    +0.000 A 
ENDROOT
BRANCH   8  16
ATOM     16  C   UNL     1       1.073   9.734  19.191  0.00  0.00    +0.000 A 
ATOM     17  C   UNL     1      -0.243  10.047  18.812  0.00  0.00    +0.000 A 
ATOM     18  C   UNL     1      -0.634  11.352  18.472  0.00  0.00    +0.000 A 
ATOM     19  C   UNL     1       0.310  12.391  18.524  0.00  0.00    +0.000 A 
ATOM     20  C   UNL     1       0.267  13.787  18.261  0.00  0.00    +0.000 A 
ATOM     21  C   UNL     1       1.525  14.297  18.493  0.00  0.00    +0.000 A 
ATOM     22  N   UNL     1       2.330  13.262  18.885  0.00  0.00    +0.000 N 
ATOM     23  C   UNL     1       1.613  12.087  18.908  0.00  0.00    +0.000 A 
ATOM     24  C   UNL     1       2.017  10.785  19.234  0.00  0.00    +0.000 A 
ATOM     25  H   UNL     1       3.309  13.344  19.123  0.00  0.00    +0.000 HD
ENDBRANCH   8  16
BRANCH  13  26
ATOM     26  C   UNL     1       5.608   4.700  15.556  0.00  0.00    +0.000 A 
ATOM     27  C   UNL     1       6.867   5.293  15.411  0.00  0.00    +0.000 A 
ATOM     28  C   UNL     1       7.539   5.238  14.185  0.00  0.00    +0.000 A 
ATOM     29  C   UNL     1       6.957   4.594  13.094  0.00  0.00    +0.000 A 
ATOM     30  C   UNL     1       5.712   3.987  13.229  0.00  0.00    +0.000 A 
ATOM     31  C   UNL     1       5.042   4.034  14.455  0.00  0.00    +0.000 A 
ENDBRANCH  13  26
TORSDOF 2
ENDMDL
