MODEL 1
REMARK VINA RESULT:      -6.8      0.000      0.000
REMARK  Name = 
REMARK  12 active torsions:
REMARK  status: ('A' for Active; 'I' for Inactive)
REMARK    1  A    between atoms: C_1  and  C_2
REMARK    2  A    between atoms: C_2  and  O_4
REMARK    3  A    between atoms: O_4  and  C_5
REMARK    4  A    between atoms: C_10  and  C_11
REMARK    5  A    between atoms: C_11  and  O_13
REMARK    6  A    between atoms: O_13  and  C_14
REMARK    7  A    between atoms: C_14  and  C_15
REMARK    8  A    between atoms: C_14  and  C_20
REMARK    9  A    between atoms: C_15  and  O_16
REMARK   10  A    between atoms: O_16  and  N_17
REMARK   11  A    between atoms: C_20  and  O_21
REMARK   12  A    between atoms: O_21  and  N_22
REMARK                            x       y       z     vdW  Elec       q    Type
REMARK                         _______ _______ _______ _____ _____    ______ ____
ROOT
ATOM      1  C   UNL     1       4.618   4.409  18.759  0.00  0.00    +0.000 C 
ATOM      2  O   UNL     1       5.685   4.040  19.231  0.00  0.00    +0.000 OA
ENDROOT
BRANCH   1   8
ATOM      3  C   UNL     1       2.429   4.652  20.079  0.00  0.00    +0.000 A 
ATOM      4  C   UNL     1       1.139   4.160  20.338  0.00  0.00    +0.000 A 
ATOM      5  C   UNL     1       0.726   2.937  19.820  0.00  0.00    +0.000 A 
ATOM      6  C   UNL     1       1.592   2.203  19.015  0.00  0.00    +0.000 A 
ATOM      7  C   UNL     1       2.866   2.696  18.732  0.00  0.00    +0.000 A 
ATOM      8  C   UNL     1       3.300   3.931  19.252  0.00  0.00    +0.000 A 
BRANCH   3   9
ATOM      9  O   UNL     1       2.756   5.937  20.544  0.00  0.00    +0.000 OA
BRANCH   9  11
ATOM     10  C   UNL     1       1.434   7.875  20.804  0.00  0.00    +0.000 C 
ATOM     11  C   UNL     1       2.179   6.996  19.846  0.00  0.00    +0.000 C 
ATOM     12  O   UNL     1       2.280   7.213  18.646  0.00  0.00    +0.000 OA
ENDBRANCH   9  11
ENDBRANCH   3   9
ENDBRANCH   1   8
BRANCH   1  13
ATOM     13  O   UNL     1       4.477   5.010  17.552  0.00  0.00    +0.000 OA
BRANCH  13  14
ATOM     14  C   UNL     1       5.689   5.043  16.760  0.00  0.00    +0.000 C 
BRANCH  14  15
ATOM     15  C   UNL     1       5.344   4.385  15.409  0.00  0.00    +0.000 C 
BRANCH  15  16
ATOM     16  O   UNL     1       6.472   3.749  14.829  0.00  0.00    +0.000 OA
BRANCH  16  17
ATOM     17  N   UNL     1       6.806   4.311  13.567  0.00  0.00    +0.000 N 
ATOM     18  O   UNL     1       7.486   5.338  13.570  0.00  0.00    +0.000 OA
ATOM     19  O   UNL     1       6.364   3.659  12.626  0.00  0.00    +0.000 OA
ENDBRANCH  16  17
ENDBRANCH  15  16
ENDBRANCH  14  15
BRANCH  14  20
ATOM     20  C   UNL     1       6.085   6.509  16.554  0.00  0.00    +0.000 C 
BRANCH  20  21
ATOM     21  O   UNL     1       7.501   6.644  16.680  0.00  0.00    +0.000 OA
BRANCH  21  22
ATOM     22  N   UNL     1       7.864   7.355  17.851  0.00  0.00    +0.000 N 
ATOM     23  O   UNL     1       8.145   6.689  18.850  0.00  0.00    +0.000 OA
ATOM     24  O   UNL     1       7.850   8.574  17.695  0.00  0.00    +0.000 OA
ENDBRANCH  21  22
ENDBRANCH  20  21
ENDBRANCH  14  20
ENDBRANCH  13  14
ENDBRANCH   1  13
TORSDOF 11
ENDMDL
MODEL 2
REMARK VINA RESULT:      -6.8      1.751      2.958
REMARK  Name = 
REMARK  12 active torsions:
REMARK  status: ('A' for Active; 'I' for Inactive)
REMARK    1  A    between atoms: C_1  and  C_2
REMARK    2  A    between atoms: C_2  and  O_4
REMARK    3  A    between atoms: O_4  and  C_5
REMARK    4  A    between atoms: C_10  and  C_11
REMARK    5  A    between atoms: C_11  and  O_13
REMARK    6  A    between atoms: O_13  and  C_14
REMARK    7  A    between atoms: C_14  and  C_15
REMARK    8  A    between atoms: C_14  and  C_20
REMARK    9  A    between atoms: C_15  and  O_16
REMARK   10  A    between atoms: O_16  and  N_17
REMARK   11  A    between atoms: C_20  and  O_21
REMARK   12  A    between atoms: O_21  and  N_22
REMARK                            x       y       z     vdW  Elec       q    Type
REMARK                         _______ _______ _______ _____ _____    ______ ____
ROOT
ATOM      1  C   UNL     1       3.710   4.343  17.436  0.00  0.00    +0.000 C 
ATOM      2  O   UNL     1       3.314   3.298  16.936  0.00  0.00    +0.000 OA
ENDROOT
BRANCH   1   8
ATOM      3  C   UNL     1       2.244   4.547  19.534  0.00  0.00    +0.000 A 
ATOM      4  C   UNL     1       1.693   5.381  20.520  0.00  0.00    +0.000 A 
ATOM      5  C   UNL     1       1.786   6.766  20.413  0.00  0.00    +0.000 A 
ATOM      6  C   UNL     1       2.454   7.330  19.331  0.00  0.00    +0.000 A 
ATOM      7  C   UNL     1       3.027   6.507  18.360  0.00  0.00    +0.000 A 
ATOM      8  C   UNL     1       2.937   5.104  18.452  0.00  0.00    +0.000 A 
BRANCH   3   9
ATOM      9  O   UNL     1       2.208   3.158  19.744  0.00  0.00    +0.000 OA
BRANCH   9  11
ATOM     10  C   UNL     1       4.333   2.268  20.253  0.00  0.00    +0.000 C 
ATOM     11  C   UNL     1       2.998   2.685  20.789  0.00  0.00    +0.000 C 
ATOM     12  O   UNL     1       2.684   2.638  21.971  0.00  0.00    +0.000 OA
ENDBRANCH   9  11
ENDBRANCH   3   9
ENDBRANCH   1   8
BRANCH   1  13
ATOM     13  O   UNL     1       4.698   5.116  16.923  0.00  0.00    +0.000 OA
BRANCH  13  14
ATOM     14  C   UNL     1       5.775   4.371  16.304  0.00  0.00    +0.000 C 
BRANCH  14  15
ATOM     15  C   UNL     1       5.631   4.582  14.784  0.00  0.00    +0.000 C 
BRANCH  15  16
ATOM     16  O   UNL     1       6.252   3.540  14.046  0.00  0.00    +0.000 OA
BRANCH  16  17
ATOM     17  N   UNL     1       6.152   3.753  12.644  0.00  0.00    +0.000 N 
ATOM     18  O   UNL     1       7.125   4.254  12.080  0.00  0.00    +0.000 OA
ATOM     19  O   UNL     1       5.079   3.377  12.183  0.00  0.00    +0.000 OA
ENDBRANCH  16  17
ENDBRANCH  15  16
ENDBRANCH  14  15
BRANCH  14  20
ATOM     20  C   UNL     1       7.105   4.951  16.800  0.00  0.00    +0.000 C 
BRANCH  20  21
ATOM     21  O   UNL     1       7.352   4.505  18.134  0.00  0.00    +0.000 OA
BRANCH  21  22
ATOM     22  N   UNL     1       7.569   5.586  19.023  0.00  0.00    +0.000 N 
ATOM     23  O   UNL     1       7.477   5.350  20.230  0.00  0.00    +0.000 OA
ATOM     24  O   UNL     1       7.829   6.639  18.445  0.00  0.00    +0.000 OA
ENDBRANCH  21  22
ENDBRANCH  20  21
ENDBRANCH  14  20
ENDBRANCH  13  14
ENDBRANCH   1  13
TORSDOF 11
ENDMDL
MODEL 3
REMARK VINA RESULT:      -6.7      1.219      1.608
REMARK  Name = 
REMARK  12 active torsions:
REMARK  status: ('A' for Active; 'I' for Inactive)
REMARK    1  A    between atoms: C_1  and  C_2
REMARK    2  A    between atoms: C_2  and  O_4
REMARK    3  A    between atoms: O_4  and  C_5
REMARK    4  A    between atoms: C_10  and  C_11
REMARK    5  A    between atoms: C_11  and  O_13
REMARK    6  A    between atoms: O_13  and  C_14
REMARK    7  A    between atoms: C_14  and  C_15
REMARK    8  A    between atoms: C_14  and  C_20
REMARK    9  A    between atoms: C_15  and  O_16
REMARK   10  A    between atoms: O_16  and  N_17
REMARK   11  A    between atoms: C_20  and  O_21
REMARK   12  A    between atoms: O_21  and  N_22
REMARK                            x       y       z     vdW  Elec       q    Type
REMARK                         _______ _______ _______ _____ _____    ______ ____
ROOT
ATOM      1  C   UNL     1       4.926   4.294  18.460  0.00  0.00    +0.000 C 
ATOM      2  O   UNL     1       5.841   3.975  19.207  0.00  0.00    +0.000 OA
ENDROOT
BRANCH   1   8
ATOM      3  C   UNL     1       2.376   4.551  18.311  0.00  0.00    +0.000 A 
ATOM      4  C   UNL     1       1.116   3.933  18.365  0.00  0.00    +0.000 A 
ATOM      5  C   UNL     1       0.989   2.611  18.783  0.00  0.00    +0.000 A 
ATOM      6  C   UNL     1       2.125   1.886  19.128  0.00  0.00    +0.000 A 
ATOM      7  C   UNL     1       3.384   2.485  19.053  0.00  0.00    +0.000 A 
ATOM      8  C   UNL     1       3.527   3.823  18.635  0.00  0.00    +0.000 A 
BRANCH   3   9
ATOM      9  O   UNL     1       2.455   5.852  17.786  0.00  0.00    +0.000 OA
BRANCH   9  11
ATOM     10  C   UNL     1       2.420   8.201  18.015  0.00  0.00    +0.000 C 
ATOM     11  C   UNL     1       2.451   6.882  18.725  0.00  0.00    +0.000 C 
ATOM     12  O   UNL     1       2.441   6.754  19.941  0.00  0.00    +0.000 OA
ENDBRANCH   9  11
ENDBRANCH   3   9
ENDBRANCH   1   8
BRANCH   1  13
ATOM     13  O   UNL     1       5.092   4.817  17.220  0.00  0.00    +0.000 OA
BRANCH  13  14
ATOM     14  C   UNL     1       6.080   4.131  16.413  0.00  0.00    +0.000 C 
BRANCH  14  15
ATOM     15  C   UNL     1       5.661   4.338  14.945  0.00  0.00    +0.000 C 
BRANCH  15  16
ATOM     16  O   UNL     1       6.621   3.808  14.043  0.00  0.00    +0.000 OA
BRANCH  16  17
ATOM     17  N   UNL     1       6.060   3.556  12.761  0.00  0.00    +0.000 N 
ATOM     18  O   UNL     1       4.837   3.650  12.653  0.00  0.00    +0.000 OA
ATOM     19  O   UNL     1       6.908   3.287  11.917  0.00  0.00    +0.000 OA
ENDBRANCH  16  17
ENDBRANCH  15  16
ENDBRANCH  14  15
BRANCH  14  20
ATOM     20  C   UNL     1       7.445   4.778  16.676  0.00  0.00    +0.000 C 
BRANCH  20  21
ATOM     21  O   UNL     1       7.403   6.152  16.292  0.00  0.00    +0.000 OA
BRANCH  21  22
ATOM     22  N   UNL     1       7.588   7.018  17.399  0.00  0.00    +0.000 N 
ATOM     23  O   UNL     1       7.415   8.223  17.207  0.00  0.00    +0.000 OA
ATOM     24  O   UNL     1       7.902   6.422  18.427  0.00  0.00    +0.000 OA
ENDBRANCH  21  22
ENDBRANCH  20  21
ENDBRANCH  14  20
ENDBRANCH  13  14
ENDBRANCH   1  13
TORSDOF 11
ENDMDL
MODEL 4
REMARK VINA RESULT:      -6.7      1.595      2.913
REMARK  Name = 
REMARK  12 active torsions:
REMARK  status: ('A' for Active; 'I' for Inactive)
REMARK    1  A    between atoms: C_1  and  C_2
REMARK    2  A    between atoms: C_2  and  O_4
REMARK    3  A    between atoms: O_4  and  C_5
REMARK    4  A    between atoms: C_10  and  C_11
REMARK    5  A    between atoms: C_11  and  O_13
REMARK    6  A    between atoms: O_13  and  C_14
REMARK    7  A    between atoms: C_14  and  C_15
REMARK    8  A    between atoms: C_14  and  C_20
REMARK    9  A    between atoms: C_15  and  O_16
REMARK   10  A    between atoms: O_16  and  N_17
REMARK   11  A    between atoms: C_20  and  O_21
REMARK   12  A    between atoms: O_21  and  N_22
REMARK                            x       y       z     vdW  Elec       q    Type
REMARK                         _______ _______ _______ _____ _____    ______ ____
ROOT
ATOM      1  C   UNL     1       3.409   4.519  17.523  0.00  0.00    +0.000 C 
ATOM      2  O   UNL     1       2.904   3.411  17.405  0.00  0.00    +0.000 OA
ENDROOT
BRANCH   1   8
ATOM      3  C   UNL     1       2.438   5.542  19.669  0.00  0.00    +0.000 A 
ATOM      4  C   UNL     1       2.020   6.697  20.349  0.00  0.00    +0.000 A 
ATOM      5  C   UNL     1       1.909   7.914  19.683  0.00  0.00    +0.000 A 
ATOM      6  C   UNL     1       2.238   7.993  18.334  0.00  0.00    +0.000 A 
ATOM      7  C   UNL     1       2.679   6.855  17.656  0.00  0.00    +0.000 A 
ATOM      8  C   UNL     1       2.793   5.615  18.316  0.00  0.00    +0.000 A 
BRANCH   3   9
ATOM      9  O   UNL     1       2.629   4.365  20.414  0.00  0.00    +0.000 OA
BRANCH   9  11
ATOM     10  C   UNL     1       1.679   2.669  21.751  0.00  0.00    +0.000 C 
ATOM     11  C   UNL     1       1.506   3.552  20.553  0.00  0.00    +0.000 C 
ATOM     12  O   UNL     1       0.511   3.562  19.842  0.00  0.00    +0.000 OA
ENDBRANCH   9  11
ENDBRANCH   3   9
ENDBRANCH   1   8
BRANCH   1  13
ATOM     13  O   UNL     1       4.379   5.014  16.715  0.00  0.00    +0.000 OA
BRANCH  13  14
ATOM     14  C   UNL     1       5.624   4.276  16.761  0.00  0.00    +0.000 C 
BRANCH  14  15
ATOM     15  C   UNL     1       6.530   4.883  15.672  0.00  0.00    +0.000 C 
BRANCH  15  16
ATOM     16  O   UNL     1       6.446   4.160  14.453  0.00  0.00    +0.000 OA
BRANCH  16  17
ATOM     17  N   UNL     1       7.244   4.747  13.434  0.00  0.00    +0.000 N 
ATOM     18  O   UNL     1       7.094   4.324  12.287  0.00  0.00    +0.000 OA
ATOM     19  O   UNL     1       7.981   5.631  13.859  0.00  0.00    +0.000 OA
ENDBRANCH  16  17
ENDBRANCH  15  16
ENDBRANCH  14  15
BRANCH  14  20
ATOM     20  C   UNL     1       6.248   4.477  18.147  0.00  0.00    +0.000 C 
BRANCH  20  21
ATOM     21  O   UNL     1       7.551   5.043  18.007  0.00  0.00    +0.000 OA
BRANCH  21  22
ATOM     22  N   UNL     1       7.882   5.888  19.096  0.00  0.00    +0.000 N 
ATOM     23  O   UNL     1       7.786   5.410  20.229  0.00  0.00    +0.000 OA
ATOM     24  O   UNL     1       8.231   7.012  18.742  0.00  0.00    +0.000 OA
ENDBRANCH  21  22
ENDBRANCH  20  21
ENDBRANCH  14  20
ENDBRANCH  13  14
ENDBRANCH   1  13
TORSDOF 11
ENDMDL
MODEL 5
REMARK VINA RESULT:      -6.7      1.343      2.709
REMARK  Name = 
REMARK  12 active torsions:
REMARK  status: ('A' for Active; 'I' for Inactive)
REMARK    1  A    between atoms: C_1  and  C_2
REMARK    2  A    between atoms: C_2  and  O_4
REMARK    3  A    between atoms: O_4  and  C_5
REMARK    4  A    between atoms: C_10  and  C_11
REMARK    5  A    between atoms: C_11  and  O_13
REMARK    6  A    between atoms: O_13  and  C_14
REMARK    7  A    between atoms: C_14  and  C_15
REMARK    8  A    between atoms: C_14  and  C_20
REMARK    9  A    between atoms: C_15  and  O_16
REMARK   10  A    between atoms: O_16  and  N_17
REMARK   11  A    between atoms: C_20  and  O_21
REMARK   12  A    between atoms: O_21  and  N_22
REMARK                            x       y       z     vdW  Elec       q    Type
REMARK                         _______ _______ _______ _____ _____    ______ ____
ROOT
ATOM      1  C   UNL     1       4.969   4.523  18.556  0.00  0.00    +0.000 C 
ATOM      2  O   UNL     1       5.890   4.040  19.200  0.00  0.00    +0.000 OA
ENDROOT
BRANCH   1   8
ATOM      3  C   UNL     1       2.814   4.194  19.914  0.00  0.00    +0.000 A 
ATOM      4  C   UNL     1       1.734   4.787  20.588  0.00  0.00    +0.000 A 
ATOM      5  C   UNL     1       1.502   6.156  20.493  0.00  0.00    +0.000 A 
ATOM      6  C   UNL     1       2.362   6.950  19.742  0.00  0.00    +0.000 A 
ATOM      7  C   UNL     1       3.453   6.373  19.090  0.00  0.00    +0.000 A 
ATOM      8  C   UNL     1       3.699   4.988  19.174  0.00  0.00    +0.000 A 
BRANCH   3   9
ATOM      9  O   UNL     1       3.060   2.827  20.126  0.00  0.00    +0.000 OA
BRANCH   9  11
ATOM     10  C   UNL     1       1.302   2.123  18.719  0.00  0.00    +0.000 C 
ATOM     11  C   UNL     1       2.754   1.986  19.058  0.00  0.00    +0.000 C 
ATOM     12  O   UNL     1       3.538   1.266  18.456  0.00  0.00    +0.000 OA
ENDBRANCH   9  11
ENDBRANCH   3   9
ENDBRANCH   1   8
BRANCH   1  13
ATOM     13  O   UNL     1       4.820   4.401  17.215  0.00  0.00    +0.000 OA
BRANCH  13  14
ATOM     14  C   UNL     1       6.058   4.492  16.468  0.00  0.00    +0.000 C 
BRANCH  14  15
ATOM     15  C   UNL     1       5.882   3.600  15.224  0.00  0.00    +0.000 C 
BRANCH  15  16
ATOM     16  O   UNL     1       6.718   4.015  14.155  0.00  0.00    +0.000 OA
BRANCH  16  17
ATOM     17  N   UNL     1       6.137   3.734  12.888  0.00  0.00    +0.000 N 
ATOM     18  O   UNL     1       6.905   3.480  11.960  0.00  0.00    +0.000 OA
ATOM     19  O   UNL     1       4.911   3.772  12.911  0.00  0.00    +0.000 OA
ENDBRANCH  16  17
ENDBRANCH  15  16
ENDBRANCH  14  15
BRANCH  14  20
ATOM     20  C   UNL     1       6.260   5.954  16.054  0.00  0.00    +0.000 C 
BRANCH  20  21
ATOM     21  O   UNL     1       7.584   6.367  16.389  0.00  0.00    +0.000 OA
BRANCH  21  22
ATOM     22  N   UNL     1       7.609   7.178  17.551  0.00  0.00    +0.000 N 
ATOM     23  O   UNL     1       7.889   6.625  18.618  0.00  0.00    +0.000 OA
ATOM     24  O   UNL     1       7.343   8.355  17.321  0.00  0.00    +0.000 OA
ENDBRANCH  21  22
ENDBRANCH  20  21
ENDBRANCH  14  20
ENDBRANCH  13  14
ENDBRANCH   1  13
TORSDOF 11
ENDMDL
MODEL 6
REMARK VINA RESULT:      -6.6      1.502      2.869
REMARK  Name = 
REMARK  12 active torsions:
REMARK  status: ('A' for Active; 'I' for Inactive)
REMARK    1  A    between atoms: C_1  and  C_2
REMARK    2  A    between atoms: C_2  and  O_4
REMARK    3  A    between atoms: O_4  and  C_5
REMARK    4  A    between atoms: C_10  and  C_11
REMARK    5  A    between atoms: C_11  and  O_13
REMARK    6  A    between atoms: O_13  and  C_14
REMARK    7  A    between atoms: C_14  and  C_15
REMARK    8  A    between atoms: C_14  and  C_20
REMARK    9  A    between atoms: C_15  and  O_16
REMARK   10  A    between atoms: O_16  and  N_17
REMARK   11  A    between atoms: C_20  and  O_21
REMARK   12  A    between atoms: O_21  and  N_22
REMARK                            x       y       z     vdW  Elec       q    Type
REMARK                         _______ _______ _______ _____ _____    ______ ____
ROOT
ATOM      1  C   UNL     1       3.588   4.802  18.008  0.00  0.00    +0.000 C 
ATOM      2  O   UNL     1       3.110   3.999  17.217  0.00  0.00    +0.000 OA
ENDROOT
BRANCH   1   8
ATOM      3  C   UNL     1       2.397   6.172  19.824  0.00  0.00    +0.000 A 
ATOM      4  C   UNL     1       1.859   7.408  20.216  0.00  0.00    +0.000 A 
ATOM      5  C   UNL     1       1.725   8.448  19.300  0.00  0.00    +0.000 A 
ATOM      6  C   UNL     1       2.149   8.270  17.988  0.00  0.00    +0.000 A 
ATOM      7  C   UNL     1       2.708   7.052  17.596  0.00  0.00    +0.000 A 
ATOM      8  C   UNL     1       2.848   5.989  18.510  0.00  0.00    +0.000 A 
BRANCH   3   9
ATOM      9  O   UNL     1       2.602   5.194  20.811  0.00  0.00    +0.000 OA
BRANCH   9  11
ATOM     10  C   UNL     1       2.329   2.954  21.503  0.00  0.00    +0.000 C 
ATOM     11  C   UNL     1       1.715   4.119  20.789  0.00  0.00    +0.000 C 
ATOM     12  O   UNL     1       0.594   4.115  20.300  0.00  0.00    +0.000 OA
ENDBRANCH   9  11
ENDBRANCH   3   9
ENDBRANCH   1   8
BRANCH   1  13
ATOM     13  O   UNL     1       4.911   4.929  18.272  0.00  0.00    +0.000 OA
BRANCH  13  14
ATOM     14  C   UNL     1       5.774   4.580  17.162  0.00  0.00    +0.000 C 
BRANCH  14  15
ATOM     15  C   UNL     1       5.678   5.742  16.154  0.00  0.00    +0.000 C 
BRANCH  15  16
ATOM     16  O   UNL     1       5.450   5.276  14.833  0.00  0.00    +0.000 OA
BRANCH  16  17
ATOM     17  N   UNL     1       6.643   4.790  14.231  0.00  0.00    +0.000 N 
ATOM     18  O   UNL     1       7.669   5.451  14.398  0.00  0.00    +0.000 OA
ATOM     19  O   UNL     1       6.473   3.737  13.625  0.00  0.00    +0.000 OA
ENDBRANCH  16  17
ENDBRANCH  15  16
ENDBRANCH  14  15
BRANCH  14  20
ATOM     20  C   UNL     1       7.207   4.450  17.693  0.00  0.00    +0.000 C 
BRANCH  20  21
ATOM     21  O   UNL     1       7.858   5.718  17.624  0.00  0.00    +0.000 OA
BRANCH  21  22
ATOM     22  N   UNL     1       8.014   6.305  18.904  0.00  0.00    +0.000 N 
ATOM     23  O   UNL     1       7.652   5.639  19.877  0.00  0.00    +0.000 OA
ATOM     24  O   UNL     1       8.508   7.430  18.860  0.00  0.00    +0.000 OA
ENDBRANCH  21  22
ENDBRANCH  20  21
ENDBRANCH  14  20
ENDBRANCH  13  14
ENDBRANCH   1  13
TORSDOF 11
ENDMDL
MODEL 7
REMARK VINA RESULT:      -6.6      1.086      1.281
REMARK  Name = 
REMARK  12 active torsions:
REMARK  status: ('A' for Active; 'I' for Inactive)
REMARK    1  A    between atoms: C_1  and  C_2
REMARK    2  A    between atoms: C_2  and  O_4
REMARK    3  A    between atoms: O_4  and  C_5
REMARK    4  A    between atoms: C_10  and  C_11
REMARK    5  A    between atoms: C_11  and  O_13
REMARK    6  A    between atoms: O_13  and  C_14
REMARK    7  A    between atoms: C_14  and  C_15
REMARK    8  A    between atoms: C_14  and  C_20
REMARK    9  A    between atoms: C_15  and  O_16
REMARK   10  A    between atoms: O_16  and  N_17
REMARK   11  A    between atoms: C_20  and  O_21
REMARK   12  A    between atoms: O_21  and  N_22
REMARK                            x       y       z     vdW  Elec       q    Type
REMARK                         _______ _______ _______ _____ _____    ______ ____
ROOT
ATOM      1  C   UNL     1       4.759   4.373  19.119  0.00  0.00    +0.000 C 
ATOM      2  O   UNL     1       5.812   4.447  19.738  0.00  0.00    +0.000 OA
ENDROOT
BRANCH   1   8
ATOM      3  C   UNL     1       2.249   4.759  19.503  0.00  0.00    +0.000 A 
ATOM      4  C   UNL     1       1.047   4.289  20.056  0.00  0.00    +0.000 A 
ATOM      5  C   UNL     1       1.039   3.187  20.906  0.00  0.00    +0.000 A 
ATOM      6  C   UNL     1       2.230   2.529  21.193  0.00  0.00    +0.000 A 
ATOM      7  C   UNL     1       3.426   2.975  20.628  0.00  0.00    +0.000 A 
ATOM      8  C   UNL     1       3.451   4.090  19.768  0.00  0.00    +0.000 A 
BRANCH   3   9
ATOM      9  O   UNL     1       2.186   5.811  18.573  0.00  0.00    +0.000 OA
BRANCH   9  11
ATOM     10  C   UNL     1       2.664   8.050  18.001  0.00  0.00    +0.000 C 
ATOM     11  C   UNL     1       2.322   7.093  19.101  0.00  0.00    +0.000 C 
ATOM     12  O   UNL     1       2.161   7.415  20.270  0.00  0.00    +0.000 OA
ENDBRANCH   9  11
ENDBRANCH   3   9
ENDBRANCH   1   8
BRANCH   1  13
ATOM     13  O   UNL     1       4.664   4.198  17.779  0.00  0.00    +0.000 OA
BRANCH  13  14
ATOM     14  C   UNL     1       5.794   4.711  17.031  0.00  0.00    +0.000 C 
BRANCH  14  15
ATOM     15  C   UNL     1       5.878   3.873  15.741  0.00  0.00    +0.000 C 
BRANCH  15  16
ATOM     16  O   UNL     1       5.680   4.669  14.582  0.00  0.00    +0.000 OA
BRANCH  16  17
ATOM     17  N   UNL     1       6.801   4.619  13.708  0.00  0.00    +0.000 N 
ATOM     18  O   UNL     1       7.718   5.413  13.922  0.00  0.00    +0.000 OA
ATOM     19  O   UNL     1       6.693   3.750  12.849  0.00  0.00    +0.000 OA
ENDBRANCH  16  17
ENDBRANCH  15  16
ENDBRANCH  14  15
BRANCH  14  20
ATOM     20  C   UNL     1       5.518   6.181  16.697  0.00  0.00    +0.000 C 
BRANCH  20  21
ATOM     21  O   UNL     1       6.067   7.014  17.718  0.00  0.00    +0.000 OA
BRANCH  21  22
ATOM     22  N   UNL     1       7.484   7.015  17.698  0.00  0.00    +0.000 N 
ATOM     23  O   UNL     1       8.062   6.759  18.756  0.00  0.00    +0.000 OA
ATOM     24  O   UNL     1       7.948   7.276  16.590  0.00  0.00    +0.000 OA
ENDBRANCH  21  22
ENDBRANCH  20  21
ENDBRANCH  14  20
ENDBRANCH  13  14
ENDBRANCH   1  13
TORSDOF 11
ENDMDL
MODEL 8
REMARK VINA RESULT:      -6.6      1.375      1.728
REMARK  Name = 
REMARK  12 active torsions:
REMARK  status: ('A' for Active; 'I' for Inactive)
REMARK    1  A    between atoms: C_1  and  C_2
REMARK    2  A    between atoms: C_2  and  O_4
REMARK    3  A    between atoms: O_4  and  C_5
REMARK    4  A    between atoms: C_10  and  C_11
REMARK    5  A    between atoms: C_11  and  O_13
REMARK    6  A    between atoms: O_13  and  C_14
REMARK    7  A    between atoms: C_14  and  C_15
REMARK    8  A    between atoms: C_14  and  C_20
REMARK    9  A    between atoms: C_15  and  O_16
REMARK   10  A    between atoms: O_16  and  N_17
REMARK   11  A    between atoms: C_20  and  O_21
REMARK   12  A    between atoms: O_21  and  N_22
REMARK                            x       y       z     vdW  Elec       q    Type
REMARK                         _______ _______ _______ _____ _____    ______ ____
ROOT
ATOM      1  C   UNL     1       4.748   4.038  18.945  0.00  0.00    +0.000 C 
ATOM      2  O   UNL     1       5.547   3.417  19.633  0.00  0.00    +0.000 OA
ENDROOT
BRANCH   1   8
ATOM      3  C   UNL     1       2.304   4.513  18.318  0.00  0.00    +0.000 A 
ATOM      4  C   UNL     1       1.001   4.013  18.159  0.00  0.00    +0.000 A 
ATOM      5  C   UNL     1       0.673   2.732  18.591  0.00  0.00    +0.000 A 
ATOM      6  C   UNL     1       1.651   1.927  19.165  0.00  0.00    +0.000 A 
ATOM      7  C   UNL     1       2.955   2.406  19.304  0.00  0.00    +0.000 A 
ATOM      8  C   UNL     1       3.301   3.703  18.874  0.00  0.00    +0.000 A 
BRANCH   3   9
ATOM      9  O   UNL     1       2.603   5.773  17.773  0.00  0.00    +0.000 OA
BRANCH   9  11
ATOM     10  C   UNL     1       2.608   8.131  17.871  0.00  0.00    +0.000 C 
ATOM     11  C   UNL     1       2.462   6.854  18.641  0.00  0.00    +0.000 C 
ATOM     12  O   UNL     1       2.224   6.795  19.839  0.00  0.00    +0.000 OA
ENDBRANCH   9  11
ENDBRANCH   3   9
ENDBRANCH   1   8
BRANCH   1  13
ATOM     13  O   UNL     1       5.087   4.863  17.924  0.00  0.00    +0.000 OA
BRANCH  13  14
ATOM     14  C   UNL     1       6.034   4.292  16.988  0.00  0.00    +0.000 C 
BRANCH  14  15
ATOM     15  C   UNL     1       5.447   4.520  15.582  0.00  0.00    +0.000 C 
BRANCH  15  16
ATOM     16  O   UNL     1       6.198   5.474  14.846  0.00  0.00    +0.000 OA
BRANCH  16  17
ATOM     17  N   UNL     1       6.893   4.877  13.759  0.00  0.00    +0.000 N 
ATOM     18  O   UNL     1       7.828   5.511  13.271  0.00  0.00    +0.000 OA
ATOM     19  O   UNL     1       6.452   3.770  13.467  0.00  0.00    +0.000 OA
ENDBRANCH  16  17
ENDBRANCH  15  16
ENDBRANCH  14  15
BRANCH  14  20
ATOM     20  C   UNL     1       7.365   5.037  17.140  0.00  0.00    +0.000 C 
BRANCH  20  21
ATOM     21  O   UNL     1       7.992   4.652  18.363  0.00  0.00    +0.000 OA
BRANCH  21  22
ATOM     22  N   UNL     1       8.047   5.721  19.292  0.00  0.00    +0.000 N 
ATOM     23  O   UNL     1       8.192   6.857  18.834  0.00  0.00    +0.000 OA
ATOM     24  O   UNL     1       7.935   5.351  20.458  0.00  0.00    +0.000 OA
ENDBRANCH  21  22
ENDBRANCH  20  21
ENDBRANCH  14  20
ENDBRANCH  13  14
ENDBRANCH   1  13
TORSDOF 11
ENDMDL
MODEL 9
REMARK VINA RESULT:      -6.6      1.763      2.978
REMARK  Name = 
REMARK  12 active torsions:
REMARK  status: ('A' for Active; 'I' for Inactive)
REMARK    1  A    between atoms: C_1  and  C_2
REMARK    2  A    between atoms: C_2  and  O_4
REMARK    3  A    between atoms: O_4  and  C_5
REMARK    4  A    between atoms: C_10  and  C_11
REMARK    5  A    between atoms: C_11  and  O_13
REMARK    6  A    between atoms: O_13  and  C_14
REMARK    7  A    between atoms: C_14  and  C_15
REMARK    8  A    between atoms: C_14  and  C_20
REMARK    9  A    between atoms: C_15  and  O_16
REMARK   10  A    between atoms: O_16  and  N_17
REMARK   11  A    between atoms: C_20  and  O_21
REMARK   12  A    between atoms: O_21  and  N_22
REMARK                            x       y       z     vdW  Elec       q    Type
REMARK                         _______ _______ _______ _____ _____    ______ ____
ROOT
ATOM      1  C   UNL     1       3.244   3.950  17.488  0.00  0.00    +0.000 C 
ATOM      2  O   UNL     1       2.647   2.900  17.293  0.00  0.00    +0.000 OA
ENDROOT
BRANCH   1   8
ATOM      3  C   UNL     1       2.564   4.859  19.792  0.00  0.00    +0.000 A 
ATOM      4  C   UNL     1       2.258   5.978  20.583  0.00  0.00    +0.000 A 
ATOM      5  C   UNL     1       2.093   7.233  20.005  0.00  0.00    +0.000 A 
ATOM      6  C   UNL     1       2.257   7.387  18.633  0.00  0.00    +0.000 A 
ATOM      7  C   UNL     1       2.587   6.284  17.842  0.00  0.00    +0.000 A 
ATOM      8  C   UNL     1       2.753   5.007  18.412  0.00  0.00    +0.000 A 
BRANCH   3   9
ATOM      9  O   UNL     1       2.818   3.637  20.439  0.00  0.00    +0.000 OA
BRANCH   9  11
ATOM     10  C   UNL     1       0.596   2.931  20.075  0.00  0.00    +0.000 C 
ATOM     11  C   UNL     1       1.721   3.043  21.058  0.00  0.00    +0.000 C 
ATOM     12  O   UNL     1       1.671   2.638  22.211  0.00  0.00    +0.000 OA
ENDBRANCH   9  11
ENDBRANCH   3   9
ENDBRANCH   1   8
BRANCH   1  13
ATOM     13  O   UNL     1       4.211   4.448  16.679  0.00  0.00    +0.000 OA
BRANCH  13  14
ATOM     14  C   UNL     1       5.551   4.018  17.021  0.00  0.00    +0.000 C 
BRANCH  14  15
ATOM     15  C   UNL     1       6.277   3.755  15.688  0.00  0.00    +0.000 C 
BRANCH  15  16
ATOM     16  O   UNL     1       7.382   4.628  15.508  0.00  0.00    +0.000 OA
BRANCH  16  17
ATOM     17  N   UNL     1       7.223   5.451  14.360  0.00  0.00    +0.000 N 
ATOM     18  O   UNL     1       8.185   5.546  13.597  0.00  0.00    +0.000 OA
ATOM     19  O   UNL     1       6.106   5.953  14.287  0.00  0.00    +0.000 OA
ENDBRANCH  16  17
ENDBRANCH  15  16
ENDBRANCH  14  15
BRANCH  14  20
ATOM     20  C   UNL     1       6.237   5.155  17.788  0.00  0.00    +0.000 C 
BRANCH  20  21
ATOM     21  O   UNL     1       7.260   4.617  18.626  0.00  0.00    +0.000 OA
BRANCH  21  22
ATOM     22  N   UNL     1       7.824   5.603  19.474  0.00  0.00    +0.000 N 
ATOM     23  O   UNL     1       7.887   5.341  20.677  0.00  0.00    +0.000 OA
ATOM     24  O   UNL     1       8.183   6.609  18.867  0.00  0.00    +0.000 OA
ENDBRANCH  21  22
ENDBRANCH  20  21
ENDBRANCH  14  20
ENDBRANCH  13  14
ENDBRANCH   1  13
TORSDOF 11
ENDMDL
