MODEL 1
REMARK VINA RESULT:      -8.4      0.000      0.000
REMARK  Name = 
REMARK  7 active torsions:
REMARK  status: ('A' for Active; 'I' for Inactive)
REMARK    1  A    between atoms: C_2  and  C_3
REMARK    2  A    between atoms: C_5  and  N_6
REMARK    3  A    between atoms: N_6  and  C_7
REMARK    4  A    between atoms: C_7  and  C_8
REMARK    5  A    between atoms: C_14  and  N_15
REMARK    6  A    between atoms: C_17  and  C_18
REMARK    7  A    between atoms: N_22  and  C_23
REMARK                            x       y       z     vdW  Elec       q    Type
REMARK                         _______ _______ _______ _____ _____    ______ ____
ROOT
ATOM      1  N   UNL     1       4.298   5.312  19.139  0.00  0.00    +0.000 N 
ATOM      2  C   UNL     1       3.900   4.195  19.808  0.00  0.00    +0.000 A 
ATOM      3  C   UNL     1       2.678   4.508  20.377  0.00  0.00    +0.000 A 
ATOM      4  C   UNL     1       2.444   5.862  20.012  0.00  0.00    +0.000 A 
ATOM      5  N   UNL     1       1.351   6.582  20.367  0.00  0.00    +0.000 N 
ATOM      6  N   UNL     1       3.463   6.337  19.295  0.00  0.00    +0.000 NA
ATOM      7  H   UNL     1       0.547   6.082  20.745  0.00  0.00    +0.000 HD
ENDROOT
BRANCH   5   8
ATOM      8  C   UNL     1       1.269   7.983  20.531  0.00  0.00    +0.000 A 
ATOM      9  C   UNL     1       1.135   8.534  21.806  0.00  0.00    +0.000 A 
ATOM     10  C   UNL     1       1.007   9.911  21.930  0.00  0.00    +0.000 A 
ATOM     11  N   UNL     1       1.009  10.767  20.888  0.00  0.00    +0.000 NA
ATOM     12  C   UNL     1       1.124  10.212  19.666  0.00  0.00    +0.000 A 
ATOM     13  F   UNL     1       1.135  11.036  18.608  0.00  0.00    +0.000 F 
ATOM     14  C   UNL     1       1.240   8.855  19.441  0.00  0.00    +0.000 A 
ENDBRANCH   5   8
BRANCH   1  20
ATOM     15  C   UNL     1       5.424   6.747  17.474  0.00  0.00    +0.000 C 
ATOM     16  C   UNL     1       4.704   6.480  16.137  0.00  0.00    +0.000 C 
ATOM     17  C   UNL     1       5.142   5.201  15.392  0.00  0.00    +0.000 C 
ATOM     18  C   UNL     1       5.112   3.995  16.343  0.00  0.00    +0.000 C 
ATOM     19  C   UNL     1       5.934   4.224  17.612  0.00  0.00    +0.000 C 
ATOM     20  C   UNL     1       5.533   5.499  18.377  0.00  0.00    +0.000 C 
BRANCH  15  22
ATOM     21  N   UNL     1       7.830   7.718  17.028  0.00  0.00    +0.000 NA
ATOM     22  C   UNL     1       6.776   7.300  17.257  0.00  0.00    +0.000 C 
ENDBRANCH  15  22
BRANCH  17  23
ATOM     23  N   UNL     1       6.442   5.429  14.758  0.00  0.00    +0.000 NA
ATOM     24  H   UNL     1       7.143   5.845  15.371  0.00  0.00    +0.000 HD
BRANCH  23  25
ATOM     25  C   UNL     1       7.018   4.236  14.096  0.00  0.00    +0.000 C 
BRANCH  25  26
ATOM     26  C   UNL     1       6.433   3.865  12.713  0.00  0.00    +0.000 C 
ATOM     27  F   UNL     1       5.094   4.033  12.659  0.00  0.00    +0.000 F 
ATOM     28  F   UNL     1       6.974   4.651  11.752  0.00  0.00    +0.000 F 
ATOM     29  F   UNL     1       6.707   2.582  12.392  0.00  0.00    +0.000 F 
ENDBRANCH  25  26
ENDBRANCH  23  25
ENDBRANCH  17  23
ENDBRANCH   1  20
BRANCH   3  30
ATOM     30  C   UNL     1       1.840   3.651  21.185  0.00  0.00    +0.000 C 
ATOM     31  N   UNL     1       0.681   3.240  20.589  0.00  0.00    +0.000 N 
ATOM     32  O   UNL     1       2.155   3.264  22.304  0.00  0.00    +0.000 OA
ATOM     33  H   UNL     1       0.559   3.314  19.588  0.00  0.00    +0.000 HD
ATOM     34  H   UNL     1       0.144   2.539  21.079  0.00  0.00    +0.000 HD
ENDBRANCH   3  30
TORSDOF 7
ENDMDL
MODEL 2
REMARK VINA RESULT:      -8.1      0.827      1.181
REMARK  Name = 
REMARK  7 active torsions:
REMARK  status: ('A' for Active; 'I' for Inactive)
REMARK    1  A    between atoms: C_2  and  C_3
REMARK    2  A    between atoms: C_5  and  N_6
REMARK    3  A    between atoms: N_6  and  C_7
REMARK    4  A    between atoms: C_7  and  C_8
REMARK    5  A    between atoms: C_14  and  N_15
REMARK    6  A    between atoms: C_17  and  C_18
REMARK    7  A    between atoms: N_22  and  C_23
REMARK                            x       y       z     vdW  Elec       q    Type
REMARK                         _______ _______ _______ _____ _____    ______ ____
ROOT
ATOM      1  N   UNL     1       4.276   5.272  19.157  0.00  0.00    +0.000 N 
ATOM      2  C   UNL     1       3.912   4.153  19.841  0.00  0.00    +0.000 A 
ATOM      3  C   UNL     1       2.675   4.432  20.396  0.00  0.00    +0.000 A 
ATOM      4  C   UNL     1       2.397   5.771  20.007  0.00  0.00    +0.000 A 
ATOM      5  N   UNL     1       1.276   6.458  20.342  0.00  0.00    +0.000 N 
ATOM      6  N   UNL     1       3.404   6.270  19.291  0.00  0.00    +0.000 NA
ATOM      7  H   UNL     1       0.487   5.936  20.722  0.00  0.00    +0.000 HD
ENDROOT
BRANCH   5   8
ATOM      8  C   UNL     1       1.143   7.857  20.482  0.00  0.00    +0.000 A 
ATOM      9  C   UNL     1       1.433   8.700  19.409  0.00  0.00    +0.000 A 
ATOM     10  C   UNL     1       1.339  10.074  19.593  0.00  0.00    +0.000 A 
ATOM     11  N   UNL     1       0.977  10.658  20.753  0.00  0.00    +0.000 NA
ATOM     12  C   UNL     1       0.717   9.826  21.779  0.00  0.00    +0.000 A 
ATOM     13  F   UNL     1       0.350  10.374  22.946  0.00  0.00    +0.000 F 
ATOM     14  C   UNL     1       0.798   8.449  21.698  0.00  0.00    +0.000 A 
ENDBRANCH   5   8
BRANCH   1  20
ATOM     15  C   UNL     1       5.375   6.736  17.500  0.00  0.00    +0.000 C 
ATOM     16  C   UNL     1       4.669   6.454  16.159  0.00  0.00    +0.000 C 
ATOM     17  C   UNL     1       5.142   5.187  15.415  0.00  0.00    +0.000 C 
ATOM     18  C   UNL     1       5.136   3.979  16.365  0.00  0.00    +0.000 C 
ATOM     19  C   UNL     1       5.945   4.226  17.637  0.00  0.00    +0.000 C 
ATOM     20  C   UNL     1       5.510   5.490  18.402  0.00  0.00    +0.000 C 
BRANCH  15  22
ATOM     21  N   UNL     1       7.778   7.732  17.095  0.00  0.00    +0.000 NA
ATOM     22  C   UNL     1       6.714   7.323  17.291  0.00  0.00    +0.000 C 
ENDBRANCH  15  22
BRANCH  17  23
ATOM     23  N   UNL     1       6.439   5.447  14.787  0.00  0.00    +0.000 NA
ATOM     24  H   UNL     1       7.127   5.879  15.405  0.00  0.00    +0.000 HD
BRANCH  23  25
ATOM     25  C   UNL     1       7.046   4.269  14.127  0.00  0.00    +0.000 C 
BRANCH  25  26
ATOM     26  C   UNL     1       6.514   3.918  12.717  0.00  0.00    +0.000 C 
ATOM     27  F   UNL     1       5.168   4.012  12.639  0.00  0.00    +0.000 F 
ATOM     28  F   UNL     1       7.028   4.769  11.798  0.00  0.00    +0.000 F 
ATOM     29  F   UNL     1       6.867   2.666  12.357  0.00  0.00    +0.000 F 
ENDBRANCH  25  26
ENDBRANCH  23  25
ENDBRANCH  17  23
ENDBRANCH   1  20
BRANCH   3  30
ATOM     30  C   UNL     1       1.861   3.559  21.211  0.00  0.00    +0.000 C 
ATOM     31  N   UNL     1       0.711   3.115  20.621  0.00  0.00    +0.000 N 
ATOM     32  O   UNL     1       2.188   3.188  22.333  0.00  0.00    +0.000 OA
ATOM     33  H   UNL     1       0.585   3.179  19.619  0.00  0.00    +0.000 HD
ATOM     34  H   UNL     1       0.193   2.403  21.117  0.00  0.00    +0.000 HD
ENDBRANCH   3  30
TORSDOF 7
ENDMDL
MODEL 3
REMARK VINA RESULT:      -7.7      0.987      1.144
REMARK  Name = 
REMARK  7 active torsions:
REMARK  status: ('A' for Active; 'I' for Inactive)
REMARK    1  A    between atoms: C_2  and  C_3
REMARK    2  A    between atoms: C_5  and  N_6
REMARK    3  A    between atoms: N_6  and  C_7
REMARK    4  A    between atoms: C_7  and  C_8
REMARK    5  A    between atoms: C_14  and  N_15
REMARK    6  A    between atoms: C_17  and  C_18
REMARK    7  A    between atoms: N_22  and  C_23
REMARK                            x       y       z     vdW  Elec       q    Type
REMARK                         _______ _______ _______ _____ _____    ______ ____
ROOT
ATOM      1  N   UNL     1       4.291   5.464  19.103  0.00  0.00    +0.000 N 
ATOM      2  C   UNL     1       3.845   4.305  19.661  0.00  0.00    +0.000 A 
ATOM      3  C   UNL     1       2.607   4.598  20.207  0.00  0.00    +0.000 A 
ATOM      4  C   UNL     1       2.415   5.982  19.947  0.00  0.00    +0.000 A 
ATOM      5  N   UNL     1       1.323   6.696  20.318  0.00  0.00    +0.000 N 
ATOM      6  N   UNL     1       3.470   6.491  19.311  0.00  0.00    +0.000 NA
ATOM      7  H   UNL     1       0.495   6.184  20.623  0.00  0.00    +0.000 HD
ENDROOT
BRANCH   5   8
ATOM      8  C   UNL     1       1.261   8.080  20.594  0.00  0.00    +0.000 A 
ATOM      9  C   UNL     1       1.201   8.531  21.913  0.00  0.00    +0.000 A 
ATOM     10  C   UNL     1       1.092   9.895  22.150  0.00  0.00    +0.000 A 
ATOM     11  N   UNL     1       1.044  10.829  21.178  0.00  0.00    +0.000 NA
ATOM     12  C   UNL     1       1.088  10.370  19.913  0.00  0.00    +0.000 A 
ATOM     13  F   UNL     1       1.049  11.273  18.923  0.00  0.00    +0.000 F 
ATOM     14  C   UNL     1       1.181   9.033  19.578  0.00  0.00    +0.000 A 
ENDBRANCH   5   8
BRANCH   1  20
ATOM     15  C   UNL     1       5.468   6.936  17.507  0.00  0.00    +0.000 C 
ATOM     16  C   UNL     1       4.824   6.663  16.134  0.00  0.00    +0.000 C 
ATOM     17  C   UNL     1       5.329   5.400  15.404  0.00  0.00    +0.000 C 
ATOM     18  C   UNL     1       5.278   4.186  16.345  0.00  0.00    +0.000 C 
ATOM     19  C   UNL     1       6.028   4.424  17.656  0.00  0.00    +0.000 C 
ATOM     20  C   UNL     1       5.559   5.684  18.406  0.00  0.00    +0.000 C 
BRANCH  15  22
ATOM     21  N   UNL     1       7.895   7.923  17.252  0.00  0.00    +0.000 NA
ATOM     22  C   UNL     1       6.816   7.522  17.364  0.00  0.00    +0.000 C 
ENDBRANCH  15  22
BRANCH  17  23
ATOM     23  N   UNL     1       6.654   5.662  14.839  0.00  0.00    +0.000 NA
ATOM     24  H   UNL     1       7.394   5.772  15.533  0.00  0.00    +0.000 HD
BRANCH  23  25
ATOM     25  C   UNL     1       7.087   4.683  13.815  0.00  0.00    +0.000 C 
BRANCH  25  26
ATOM     26  C   UNL     1       7.875   5.249  12.610  0.00  0.00    +0.000 C 
ATOM     27  F   UNL     1       7.389   6.438  12.191  0.00  0.00    +0.000 F 
ATOM     28  F   UNL     1       9.171   5.444  12.950  0.00  0.00    +0.000 F 
ATOM     29  F   UNL     1       7.852   4.396  11.564  0.00  0.00    +0.000 F 
ENDBRANCH  25  26
ENDBRANCH  23  25
ENDBRANCH  17  23
ENDBRANCH   1  20
BRANCH   3  30
ATOM     30  C   UNL     1       1.722   3.697  20.909  0.00  0.00    +0.000 C 
ATOM     31  N   UNL     1       2.219   3.181  22.073  0.00  0.00    +0.000 N 
ATOM     32  O   UNL     1       0.584   3.443  20.533  0.00  0.00    +0.000 OA
ATOM     33  H   UNL     1       3.018   3.603  22.527  0.00  0.00    +0.000 HD
ATOM     34  H   UNL     1       1.575   2.656  22.647  0.00  0.00    +0.000 HD
ENDBRANCH   3  30
TORSDOF 7
ENDMDL
MODEL 4
REMARK VINA RESULT:      -7.4      2.259      7.634
REMARK  Name = 
REMARK  7 active torsions:
REMARK  status: ('A' for Active; 'I' for Inactive)
REMARK    1  A    between atoms: C_2  and  C_3
REMARK    2  A    between atoms: C_5  and  N_6
REMARK    3  A    between atoms: N_6  and  C_7
REMARK    4  A    between atoms: C_7  and  C_8
REMARK    5  A    between atoms: C_14  and  N_15
REMARK    6  A    between atoms: C_17  and  C_18
REMARK    7  A    between atoms: N_22  and  C_23
REMARK                            x       y       z     vdW  Elec       q    Type
REMARK                         _______ _______ _______ _____ _____    ______ ____
ROOT
ATOM      1  N   UNL     1       2.228   7.401  19.950  0.00  0.00    +0.000 N 
ATOM      2  C   UNL     1       1.389   6.524  20.567  0.00  0.00    +0.000 A 
ATOM      3  C   UNL     1       1.984   5.280  20.447  0.00  0.00    +0.000 A 
ATOM      4  C   UNL     1       3.173   5.517  19.706  0.00  0.00    +0.000 A 
ATOM      5  N   UNL     1       4.067   4.561  19.349  0.00  0.00    +0.000 N 
ATOM      6  N   UNL     1       3.276   6.806  19.382  0.00  0.00    +0.000 NA
ATOM      7  H   UNL     1       4.004   3.650  19.803  0.00  0.00    +0.000 HD
ENDROOT
BRANCH   5   8
ATOM      8  C   UNL     1       4.927   4.571  18.228  0.00  0.00    +0.000 A 
ATOM      9  C   UNL     1       6.288   4.828  18.391  0.00  0.00    +0.000 A 
ATOM     10  C   UNL     1       7.099   4.880  17.264  0.00  0.00    +0.000 A 
ATOM     11  N   UNL     1       6.656   4.690  16.005  0.00  0.00    +0.000 NA
ATOM     12  C   UNL     1       5.335   4.459  15.871  0.00  0.00    +0.000 A 
ATOM     13  F   UNL     1       4.862   4.261  14.632  0.00  0.00    +0.000 F 
ATOM     14  C   UNL     1       4.448   4.405  16.928  0.00  0.00    +0.000 A 
ENDBRANCH   5   8
BRANCH   1  20
ATOM     15  C   UNL     1       0.733   9.297  20.465  0.00  0.00    +0.000 C 
ATOM     16  C   UNL     1      -0.513   9.100  19.580  0.00  0.00    +0.000 C 
ATOM     17  C   UNL     1      -0.364   9.562  18.115  0.00  0.00    +0.000 C 
ATOM     18  C   UNL     1       0.913   8.972  17.498  0.00  0.00    +0.000 C 
ATOM     19  C   UNL     1       2.163   9.281  18.321  0.00  0.00    +0.000 C 
ATOM     20  C   UNL     1       2.047   8.844  19.793  0.00  0.00    +0.000 C 
BRANCH  15  22
ATOM     21  N   UNL     1       0.981  11.821  21.168  0.00  0.00    +0.000 NA
ATOM     22  C   UNL     1       0.874  10.703  20.893  0.00  0.00    +0.000 C 
ENDBRANCH  15  22
BRANCH  17  23
ATOM     23  N   UNL     1      -0.435  11.024  18.057  0.00  0.00    +0.000 NA
ATOM     24  H   UNL     1       0.001  11.434  17.231  0.00  0.00    +0.000 HD
BRANCH  23  25
ATOM     25  C   UNL     1      -1.800  11.576  18.215  0.00  0.00    +0.000 C 
BRANCH  25  26
ATOM     26  C   UNL     1      -2.860  11.097  17.196  0.00  0.00    +0.000 C 
ATOM     27  F   UNL     1      -3.917  11.935  17.122  0.00  0.00    +0.000 F 
ATOM     28  F   UNL     1      -2.318  11.026  15.956  0.00  0.00    +0.000 F 
ATOM     29  F   UNL     1      -3.322   9.867  17.510  0.00  0.00    +0.000 F 
ENDBRANCH  25  26
ENDBRANCH  23  25
ENDBRANCH  17  23
ENDBRANCH   1  20
BRANCH   3  30
ATOM     30  C   UNL     1       1.487   4.018  20.946  0.00  0.00    +0.000 C 
ATOM     31  N   UNL     1       0.493   3.448  20.200  0.00  0.00    +0.000 N 
ATOM     32  O   UNL     1       1.947   3.456  21.933  0.00  0.00    +0.000 OA
ATOM     33  H   UNL     1       0.318   3.752  19.251  0.00  0.00    +0.000 HD
ATOM     34  H   UNL     1       0.221   2.508  20.451  0.00  0.00    +0.000 HD
ENDBRANCH   3  30
TORSDOF 7
ENDMDL
MODEL 5
REMARK VINA RESULT:      -7.3      2.454      7.715
REMARK  Name = 
REMARK  7 active torsions:
REMARK  status: ('A' for Active; 'I' for Inactive)
REMARK    1  A    between atoms: C_2  and  C_3
REMARK    2  A    between atoms: C_5  and  N_6
REMARK    3  A    between atoms: N_6  and  C_7
REMARK    4  A    between atoms: C_7  and  C_8
REMARK    5  A    between atoms: C_14  and  N_15
REMARK    6  A    between atoms: C_17  and  C_18
REMARK    7  A    between atoms: N_22  and  C_23
REMARK                            x       y       z     vdW  Elec       q    Type
REMARK                         _______ _______ _______ _____ _____    ______ ____
ROOT
ATOM      1  N   UNL     1       2.105   7.557  20.052  0.00  0.00    +0.000 N 
ATOM      2  C   UNL     1       1.340   6.630  20.690  0.00  0.00    +0.000 A 
ATOM      3  C   UNL     1       1.958   5.411  20.472  0.00  0.00    +0.000 A 
ATOM      4  C   UNL     1       3.082   5.715  19.657  0.00  0.00    +0.000 A 
ATOM      5  N   UNL     1       3.973   4.803  19.194  0.00  0.00    +0.000 N 
ATOM      6  N   UNL     1       3.123   7.019  19.383  0.00  0.00    +0.000 NA
ATOM      7  H   UNL     1       3.969   3.872  19.611  0.00  0.00    +0.000 HD
ENDROOT
BRANCH   5   8
ATOM      8  C   UNL     1       4.745   4.887  18.015  0.00  0.00    +0.000 A 
ATOM      9  C   UNL     1       4.446   4.074  16.921  0.00  0.00    +0.000 A 
ATOM     10  C   UNL     1       5.254   4.145  15.793  0.00  0.00    +0.000 A 
ATOM     11  N   UNL     1       6.321   4.961  15.679  0.00  0.00    +0.000 NA
ATOM     12  C   UNL     1       6.600   5.725  16.752  0.00  0.00    +0.000 A 
ATOM     13  F   UNL     1       7.652   6.553  16.669  0.00  0.00    +0.000 F 
ATOM     14  C   UNL     1       5.866   5.714  17.922  0.00  0.00    +0.000 A 
ENDBRANCH   5   8
BRANCH   1  20
ATOM     15  C   UNL     1       0.506   9.359  20.594  0.00  0.00    +0.000 C 
ATOM     16  C   UNL     1      -0.680   9.170  19.628  0.00  0.00    +0.000 C 
ATOM     17  C   UNL     1      -0.470   9.729  18.204  0.00  0.00    +0.000 C 
ATOM     18  C   UNL     1       0.863   9.227  17.627  0.00  0.00    +0.000 C 
ATOM     19  C   UNL     1       2.052   9.531  18.538  0.00  0.00    +0.000 C 
ATOM     20  C   UNL     1       1.873   9.000  19.972  0.00  0.00    +0.000 C 
BRANCH  15  22
ATOM     21  N   UNL     1       0.629  11.840  21.463  0.00  0.00    +0.000 NA
ATOM     22  C   UNL     1       0.564  10.740  21.112  0.00  0.00    +0.000 C 
ENDBRANCH  15  22
BRANCH  17  23
ATOM     23  N   UNL     1      -0.598  11.187  18.230  0.00  0.00    +0.000 NA
ATOM     24  H   UNL     1      -0.082  11.669  17.494  0.00  0.00    +0.000 HD
BRANCH  23  25
ATOM     25  C   UNL     1      -1.996  11.677  18.249  0.00  0.00    +0.000 C 
BRANCH  25  26
ATOM     26  C   UNL     1      -2.931  11.135  17.143  0.00  0.00    +0.000 C 
ATOM     27  F   UNL     1      -3.383   9.892  17.417  0.00  0.00    +0.000 F 
ATOM     28  F   UNL     1      -4.016  11.936  17.015  0.00  0.00    +0.000 F 
ATOM     29  F   UNL     1      -2.307  11.099  15.946  0.00  0.00    +0.000 F 
ENDBRANCH  25  26
ENDBRANCH  23  25
ENDBRANCH  17  23
ENDBRANCH   1  20
BRANCH   3  30
ATOM     30  C   UNL     1       1.535   4.114  20.950  0.00  0.00    +0.000 C 
ATOM     31  N   UNL     1       0.555   3.513  20.211  0.00  0.00    +0.000 N 
ATOM     32  O   UNL     1       2.043   3.553  21.914  0.00  0.00    +0.000 OA
ATOM     33  H   UNL     1       0.344   3.830  19.274  0.00  0.00    +0.000 HD
ATOM     34  H   UNL     1       0.335   2.555  20.445  0.00  0.00    +0.000 HD
ENDBRANCH   3  30
TORSDOF 7
ENDMDL
MODEL 6
REMARK VINA RESULT:      -7.2      3.797      8.246
REMARK  Name = 
REMARK  7 active torsions:
REMARK  status: ('A' for Active; 'I' for Inactive)
REMARK    1  A    between atoms: C_2  and  C_3
REMARK    2  A    between atoms: C_5  and  N_6
REMARK    3  A    between atoms: N_6  and  C_7
REMARK    4  A    between atoms: C_7  and  C_8
REMARK    5  A    between atoms: C_14  and  N_15
REMARK    6  A    between atoms: C_17  and  C_18
REMARK    7  A    between atoms: N_22  and  C_23
REMARK                            x       y       z     vdW  Elec       q    Type
REMARK                         _______ _______ _______ _____ _____    ______ ____
ROOT
ATOM      1  N   UNL     1       5.535   4.747  18.174  0.00  0.00    +0.000 N 
ATOM      2  C   UNL     1       6.314   5.707  18.743  0.00  0.00    +0.000 A 
ATOM      3  C   UNL     1       6.904   6.390  17.694  0.00  0.00    +0.000 A 
ATOM      4  C   UNL     1       6.434   5.734  16.524  0.00  0.00    +0.000 A 
ATOM      5  N   UNL     1       6.771   6.076  15.256  0.00  0.00    +0.000 N 
ATOM      6  N   UNL     1       5.637   4.715  16.847  0.00  0.00    +0.000 NA
ATOM      7  H   UNL     1       7.224   6.976  15.105  0.00  0.00    +0.000 HD
ENDROOT
BRANCH   5   8
ATOM      8  C   UNL     1       6.816   5.228  14.127  0.00  0.00    +0.000 A 
ATOM      9  C   UNL     1       7.844   5.358  13.193  0.00  0.00    +0.000 A 
ATOM     10  C   UNL     1       7.834   4.542  12.068  0.00  0.00    +0.000 A 
ATOM     11  N   UNL     1       6.888   3.615  11.816  0.00  0.00    +0.000 NA
ATOM     12  C   UNL     1       5.898   3.517  12.723  0.00  0.00    +0.000 A 
ATOM     13  F   UNL     1       4.943   2.601  12.506  0.00  0.00    +0.000 F 
ATOM     14  C   UNL     1       5.813   4.294  13.862  0.00  0.00    +0.000 A 
ENDBRANCH   5   8
BRANCH   1  20
ATOM     15  C   UNL     1       3.950   2.885  17.829  0.00  0.00    +0.000 C 
ATOM     16  C   UNL     1       2.649   3.533  17.317  0.00  0.00    +0.000 C 
ATOM     17  C   UNL     1       1.746   4.155  18.404  0.00  0.00    +0.000 C 
ATOM     18  C   UNL     1       2.567   5.086  19.309  0.00  0.00    +0.000 C 
ATOM     19  C   UNL     1       3.790   4.395  19.912  0.00  0.00    +0.000 C 
ATOM     20  C   UNL     1       4.709   3.751  18.858  0.00  0.00    +0.000 C 
BRANCH  15  22
ATOM     21  N   UNL     1       3.552   0.514  18.902  0.00  0.00    +0.000 NA
ATOM     22  C   UNL     1       3.694   1.556  18.419  0.00  0.00    +0.000 C 
ENDBRANCH  15  22
BRANCH  17  23
ATOM     23  N   UNL     1       1.046   3.088  19.123  0.00  0.00    +0.000 NA
ATOM     24  H   UNL     1       1.550   2.202  19.157  0.00  0.00    +0.000 HD
BRANCH  23  25
ATOM     25  C   UNL     1       0.611   3.456  20.490  0.00  0.00    +0.000 C 
BRANCH  25  26
ATOM     26  C   UNL     1       1.373   2.789  21.659  0.00  0.00    +0.000 C 
ATOM     27  F   UNL     1       0.538   2.238  22.568  0.00  0.00    +0.000 F 
ATOM     28  F   UNL     1       2.167   1.797  21.192  0.00  0.00    +0.000 F 
ATOM     29  F   UNL     1       2.163   3.677  22.300  0.00  0.00    +0.000 F 
ENDBRANCH  25  26
ENDBRANCH  23  25
ENDBRANCH  17  23
ENDBRANCH   1  20
BRANCH   3  30
ATOM     30  C   UNL     1       7.818   7.507  17.777  0.00  0.00    +0.000 C 
ATOM     31  N   UNL     1       8.572   7.559  18.915  0.00  0.00    +0.000 N 
ATOM     32  O   UNL     1       7.959   8.329  16.879  0.00  0.00    +0.000 OA
ATOM     33  H   UNL     1       8.669   6.747  19.510  0.00  0.00    +0.000 HD
ATOM     34  H   UNL     1       9.308   8.251  18.940  0.00  0.00    +0.000 HD
ENDBRANCH   3  30
TORSDOF 7
ENDMDL
MODEL 7
REMARK VINA RESULT:      -7.1      2.393      7.887
REMARK  Name = 
REMARK  7 active torsions:
REMARK  status: ('A' for Active; 'I' for Inactive)
REMARK    1  A    between atoms: C_2  and  C_3
REMARK    2  A    between atoms: C_5  and  N_6
REMARK    3  A    between atoms: N_6  and  C_7
REMARK    4  A    between atoms: C_7  and  C_8
REMARK    5  A    between atoms: C_14  and  N_15
REMARK    6  A    between atoms: C_17  and  C_18
REMARK    7  A    between atoms: N_22  and  C_23
REMARK                            x       y       z     vdW  Elec       q    Type
REMARK                         _______ _______ _______ _____ _____    ______ ____
ROOT
ATOM      1  N   UNL     1       1.936   7.778  20.053  0.00  0.00    +0.000 N 
ATOM      2  C   UNL     1       1.270   6.804  20.732  0.00  0.00    +0.000 A 
ATOM      3  C   UNL     1       1.905   5.616  20.415  0.00  0.00    +0.000 A 
ATOM      4  C   UNL     1       2.930   5.986  19.503  0.00  0.00    +0.000 A 
ATOM      5  N   UNL     1       3.801   5.121  18.925  0.00  0.00    +0.000 N 
ATOM      6  N   UNL     1       2.900   7.298  19.269  0.00  0.00    +0.000 NA
ATOM      7  H   UNL     1       3.871   4.179  19.309  0.00  0.00    +0.000 HD
ENDROOT
BRANCH   5   8
ATOM      8  C   UNL     1       4.449   5.268  17.678  0.00  0.00    +0.000 A 
ATOM      9  C   UNL     1       4.535   6.524  17.076  0.00  0.00    +0.000 A 
ATOM     10  C   UNL     1       5.135   6.628  15.827  0.00  0.00    +0.000 A 
ATOM     11  N   UNL     1       5.654   5.585  15.149  0.00  0.00    +0.000 NA
ATOM     12  C   UNL     1       5.546   4.380  15.742  0.00  0.00    +0.000 A 
ATOM     13  F   UNL     1       6.056   3.322  15.097  0.00  0.00    +0.000 F 
ATOM     14  C   UNL     1       4.953   4.174  16.973  0.00  0.00    +0.000 A 
ENDBRANCH   5   8
BRANCH   1  20
ATOM     15  C   UNL     1       0.280   9.489  20.706  0.00  0.00    +0.000 C 
ATOM     16  C   UNL     1      -0.916   9.299  19.754  0.00  0.00    +0.000 C 
ATOM     17  C   UNL     1      -0.756   9.930  18.354  0.00  0.00    +0.000 C 
ATOM     18  C   UNL     1       0.584   9.507  17.731  0.00  0.00    +0.000 C 
ATOM     19  C   UNL     1       1.777   9.815  18.633  0.00  0.00    +0.000 C 
ATOM     20  C   UNL     1       1.648   9.212  20.044  0.00  0.00    +0.000 C 
BRANCH  15  22
ATOM     21  N   UNL     1       0.315  11.885  21.797  0.00  0.00    +0.000 NA
ATOM     22  C   UNL     1       0.297  10.847  21.287  0.00  0.00    +0.000 C 
ENDBRANCH  15  22
BRANCH  17  23
ATOM     23  N   UNL     1      -0.939  11.379  18.450  0.00  0.00    +0.000 NA
ATOM     24  H   UNL     1      -0.351  11.921  17.816  0.00  0.00    +0.000 HD
BRANCH  23  25
ATOM     25  C   UNL     1      -2.344  11.828  18.319  0.00  0.00    +0.000 C 
BRANCH  25  26
ATOM     26  C   UNL     1      -3.140  11.260  17.120  0.00  0.00    +0.000 C 
ATOM     27  F   UNL     1      -3.530   9.983  17.321  0.00  0.00    +0.000 F 
ATOM     28  F   UNL     1      -4.260  11.993  16.914  0.00  0.00    +0.000 F 
ATOM     29  F   UNL     1      -2.411  11.301  15.984  0.00  0.00    +0.000 F 
ENDBRANCH  25  26
ENDBRANCH  23  25
ENDBRANCH  17  23
ENDBRANCH   1  20
BRANCH   3  30
ATOM     30  C   UNL     1       1.576   4.291  20.889  0.00  0.00    +0.000 C 
ATOM     31  N   UNL     1       0.553   3.672  20.227  0.00  0.00    +0.000 N 
ATOM     32  O   UNL     1       2.193   3.724  21.783  0.00  0.00    +0.000 OA
ATOM     33  H   UNL     1       0.243   4.007  19.323  0.00  0.00    +0.000 HD
ATOM     34  H   UNL     1       0.391   2.700  20.449  0.00  0.00    +0.000 HD
ENDBRANCH   3  30
TORSDOF 7
ENDMDL
MODEL 8
REMARK VINA RESULT:      -7.0      2.533      7.816
REMARK  Name = 
REMARK  7 active torsions:
REMARK  status: ('A' for Active; 'I' for Inactive)
REMARK    1  A    between atoms: C_2  and  C_3
REMARK    2  A    between atoms: C_5  and  N_6
REMARK    3  A    between atoms: N_6  and  C_7
REMARK    4  A    between atoms: C_7  and  C_8
REMARK    5  A    between atoms: C_14  and  N_15
REMARK    6  A    between atoms: C_17  and  C_18
REMARK    7  A    between atoms: N_22  and  C_23
REMARK                            x       y       z     vdW  Elec       q    Type
REMARK                         _______ _______ _______ _____ _____    ______ ____
ROOT
ATOM      1  N   UNL     1       2.060   7.601  20.034  0.00  0.00    +0.000 N 
ATOM      2  C   UNL     1       1.245   6.658  20.581  0.00  0.00    +0.000 A 
ATOM      3  C   UNL     1       1.885   5.446  20.392  0.00  0.00    +0.000 A 
ATOM      4  C   UNL     1       3.075   5.771  19.684  0.00  0.00    +0.000 A 
ATOM      5  N   UNL     1       4.006   4.871  19.281  0.00  0.00    +0.000 N 
ATOM      6  N   UNL     1       3.135   7.081  19.444  0.00  0.00    +0.000 NA
ATOM      7  H   UNL     1       3.970   3.932  19.675  0.00  0.00    +0.000 HD
ENDROOT
BRANCH   5   8
ATOM      8  C   UNL     1       4.879   4.983  18.176  0.00  0.00    +0.000 A 
ATOM      9  C   UNL     1       4.411   5.484  16.961  0.00  0.00    +0.000 A 
ATOM     10  C   UNL     1       5.280   5.537  15.878  0.00  0.00    +0.000 A 
ATOM     11  N   UNL     1       6.567   5.136  15.923  0.00  0.00    +0.000 NA
ATOM     12  C   UNL     1       6.993   4.642  17.101  0.00  0.00    +0.000 A 
ATOM     13  F   UNL     1       8.269   4.239  17.182  0.00  0.00    +0.000 F 
ATOM     14  C   UNL     1       6.200   4.535  18.227  0.00  0.00    +0.000 A 
ENDBRANCH   5   8
BRANCH   1  20
ATOM     15  C   UNL     1       0.446   9.396  20.555  0.00  0.00    +0.000 C 
ATOM     16  C   UNL     1      -0.713   9.220  19.554  0.00  0.00    +0.000 C 
ATOM     17  C   UNL     1      -0.464   9.797  18.144  0.00  0.00    +0.000 C 
ATOM     18  C   UNL     1       0.885   9.303  17.597  0.00  0.00    +0.000 C 
ATOM     19  C   UNL     1       2.047   9.595  18.545  0.00  0.00    +0.000 C 
ATOM     20  C   UNL     1       1.830   9.045  19.966  0.00  0.00    +0.000 C 
BRANCH  15  22
ATOM     21  N   UNL     1       0.463  11.844  21.523  0.00  0.00    +0.000 NA
ATOM     22  C   UNL     1       0.489  10.771  21.092  0.00  0.00    +0.000 C 
ENDBRANCH  15  22
BRANCH  17  23
ATOM     23  N   UNL     1      -0.593  11.254  18.185  0.00  0.00    +0.000 NA
ATOM     24  H   UNL     1      -0.097  11.743  17.439  0.00  0.00    +0.000 HD
BRANCH  23  25
ATOM     25  C   UNL     1      -1.990  11.743  18.244  0.00  0.00    +0.000 C 
BRANCH  25  26
ATOM     26  C   UNL     1      -2.953  11.211  17.157  0.00  0.00    +0.000 C 
ATOM     27  F   UNL     1      -4.049  11.988  17.016  0.00  0.00    +0.000 F 
ATOM     28  F   UNL     1      -2.329  11.177  15.956  0.00  0.00    +0.000 F 
ATOM     29  F   UNL     1      -3.365   9.955  17.438  0.00  0.00    +0.000 F 
ENDBRANCH  25  26
ENDBRANCH  23  25
ENDBRANCH  17  23
ENDBRANCH   1  20
BRANCH   3  30
ATOM     30  C   UNL     1       1.427   4.138  20.802  0.00  0.00    +0.000 C 
ATOM     31  N   UNL     1       2.078   3.604  21.879  0.00  0.00    +0.000 N 
ATOM     32  O   UNL     1       0.489   3.556  20.270  0.00  0.00    +0.000 OA
ATOM     33  H   UNL     1       2.638   4.188  22.487  0.00  0.00    +0.000 HD
ATOM     34  H   UNL     1       1.693   2.755  22.266  0.00  0.00    +0.000 HD
ENDBRANCH   3  30
TORSDOF 7
ENDMDL
MODEL 9
REMARK VINA RESULT:      -7.0      2.089      8.093
REMARK  Name = 
REMARK  7 active torsions:
REMARK  status: ('A' for Active; 'I' for Inactive)
REMARK    1  A    between atoms: C_2  and  C_3
REMARK    2  A    between atoms: C_5  and  N_6
REMARK    3  A    between atoms: N_6  and  C_7
REMARK    4  A    between atoms: C_7  and  C_8
REMARK    5  A    between atoms: C_14  and  N_15
REMARK    6  A    between atoms: C_17  and  C_18
REMARK    7  A    between atoms: N_22  and  C_23
REMARK                            x       y       z     vdW  Elec       q    Type
REMARK                         _______ _______ _______ _____ _____    ______ ____
ROOT
ATOM      1  N   UNL     1       2.248   7.429  19.913  0.00  0.00    +0.000 N 
ATOM      2  C   UNL     1       1.403   6.558  20.531  0.00  0.00    +0.000 A 
ATOM      3  C   UNL     1       1.990   5.311  20.415  0.00  0.00    +0.000 A 
ATOM      4  C   UNL     1       3.183   5.539  19.676  0.00  0.00    +0.000 A 
ATOM      5  N   UNL     1       4.072   4.577  19.324  0.00  0.00    +0.000 N 
ATOM      6  N   UNL     1       3.293   6.827  19.349  0.00  0.00    +0.000 NA
ATOM      7  H   UNL     1       4.002   3.668  19.779  0.00  0.00    +0.000 HD
ENDROOT
BRANCH   5   8
ATOM      8  C   UNL     1       4.934   4.580  18.205  0.00  0.00    +0.000 A 
ATOM      9  C   UNL     1       6.294   4.844  18.367  0.00  0.00    +0.000 A 
ATOM     10  C   UNL     1       7.107   4.889  17.242  0.00  0.00    +0.000 A 
ATOM     11  N   UNL     1       6.667   4.685  15.984  0.00  0.00    +0.000 NA
ATOM     12  C   UNL     1       5.349   4.446  15.849  0.00  0.00    +0.000 A 
ATOM     13  F   UNL     1       4.879   4.234  14.611  0.00  0.00    +0.000 F 
ATOM     14  C   UNL     1       4.459   4.399  16.904  0.00  0.00    +0.000 A 
ENDBRANCH   5   8
BRANCH   1  20
ATOM     15  C   UNL     1       0.851   9.361  20.559  0.00  0.00    +0.000 C 
ATOM     16  C   UNL     1      -0.488   9.174  19.819  0.00  0.00    +0.000 C 
ATOM     17  C   UNL     1      -0.494   9.612  18.339  0.00  0.00    +0.000 C 
ATOM     18  C   UNL     1       0.697   8.988  17.595  0.00  0.00    +0.000 C 
ATOM     19  C   UNL     1       2.035   9.285  18.270  0.00  0.00    +0.000 C 
ATOM     20  C   UNL     1       2.075   8.873  19.753  0.00  0.00    +0.000 C 
BRANCH  15  22
ATOM     21  N   UNL     1       1.200  11.891  21.193  0.00  0.00    +0.000 NA
ATOM     22  C   UNL     1       1.063  10.771  20.944  0.00  0.00    +0.000 C 
ENDBRANCH  15  22
BRANCH  17  23
ATOM     23  N   UNL     1      -0.546  11.073  18.264  0.00  0.00    +0.000 NA
ATOM     24  H   UNL     1      -0.089  11.469  17.443  0.00  0.00    +0.000 HD
BRANCH  23  25
ATOM     25  C   UNL     1      -1.907  11.644  18.389  0.00  0.00    +0.000 C 
BRANCH  25  26
ATOM     26  C   UNL     1      -2.189  12.479  19.660  0.00  0.00    +0.000 C 
ATOM     27  F   UNL     1      -2.000  11.770  20.794  0.00  0.00    +0.000 F 
ATOM     28  F   UNL     1      -1.357  13.546  19.712  0.00  0.00    +0.000 F 
ATOM     29  F   UNL     1      -3.456  12.949  19.667  0.00  0.00    +0.000 F 
ENDBRANCH  25  26
ENDBRANCH  23  25
ENDBRANCH  17  23
ENDBRANCH   1  20
BRANCH   3  30
ATOM     30  C   UNL     1       1.485   4.052  20.915  0.00  0.00    +0.000 C 
ATOM     31  N   UNL     1       0.490   3.487  20.169  0.00  0.00    +0.000 N 
ATOM     32  O   UNL     1       1.940   3.490  21.905  0.00  0.00    +0.000 OA
ATOM     33  H   UNL     1       0.318   3.790  19.219  0.00  0.00    +0.000 HD
ATOM     34  H   UNL     1       0.212   2.549  20.421  0.00  0.00    +0.000 HD
ENDBRANCH   3  30
TORSDOF 7
ENDMDL
