MODEL 1
REMARK VINA RESULT:      -5.5      0.000      0.000
REMARK  Name = 
REMARK  8 active torsions:
REMARK  status: ('A' for Active; 'I' for Inactive)
REMARK    1  A    between atoms: C_1  and  N_2
REMARK    2  A    between atoms: N_2  and  C_3
REMARK    3  A    between atoms: N_2  and  C_4
REMARK    4  A    between atoms: C_4  and  C_5
REMARK    5  A    between atoms: C_5  and  C_6
REMARK    6  A    between atoms: C_6  and  C_7
REMARK    7  A    between atoms: C_7  and  C_8
REMARK    8  A    between atoms: C_8  and  C_9
REMARK                            x       y       z     vdW  Elec       q    Type
REMARK                         _______ _______ _______ _____ _____    ______ ____
ROOT
ATOM      1  C   UNL     1       3.692   4.007  16.851  0.00  0.00    +0.000 C 
ENDROOT
BRANCH   1   2
ATOM      2  C   UNL     1       3.767   5.375  17.533  0.00  0.00    +0.000 C 
BRANCH   2   3
ATOM      3  C   UNL     1       5.213   5.695  17.925  0.00  0.00    +0.000 C 
BRANCH   3   4
ATOM      4  C   UNL     1       6.051   6.271  16.774  0.00  0.00    +0.000 C 
BRANCH   4   6
ATOM      5  C   UNL     1       7.616   4.548  17.494  0.00  0.00    +0.000 C 
ATOM      6  N   UNL     1       7.231   5.465  16.420  0.00  0.00    +0.000 NA
ATOM      7  C   UNL     1       6.974   4.708  15.192  0.00  0.00    +0.000 C 
ENDBRANCH   4   6
ENDBRANCH   3   4
ENDBRANCH   2   3
ENDBRANCH   1   2
BRANCH   1   8
ATOM      8  C   UNL     1       3.990   2.863  17.820  0.00  0.00    +0.000 C 
BRANCH   8   9
ATOM      9  C   UNL     1       3.012   2.853  18.971  0.00  0.00    +0.000 A 
ATOM     10  C   UNL     1       1.634   2.946  18.729  0.00  0.00    +0.000 A 
ATOM     11  C   UNL     1       0.730   2.965  19.795  0.00  0.00    +0.000 A 
ATOM     12  C   UNL     1       1.192   2.899  21.106  0.00  0.00    +0.000 A 
ATOM     13  C   UNL     1       2.560   2.814  21.356  0.00  0.00    +0.000 A 
ATOM     14  C   UNL     1       3.467   2.795  20.294  0.00  0.00    +0.000 A 
ENDBRANCH   8   9
ENDBRANCH   1   8
TORSDOF 6
ENDMDL
MODEL 2
REMARK VINA RESULT:      -5.4      1.176      1.661
REMARK  Name = 
REMARK  8 active torsions:
REMARK  status: ('A' for Active; 'I' for Inactive)
REMARK    1  A    between atoms: C_1  and  N_2
REMARK    2  A    between atoms: N_2  and  C_3
REMARK    3  A    between atoms: N_2  and  C_4
REMARK    4  A    between atoms: C_4  and  C_5
REMARK    5  A    between atoms: C_5  and  C_6
REMARK    6  A    between atoms: C_6  and  C_7
REMARK    7  A    between atoms: C_7  and  C_8
REMARK    8  A    between atoms: C_8  and  C_9
REMARK                            x       y       z     vdW  Elec       q    Type
REMARK                         _______ _______ _______ _____ _____    ______ ____
ROOT
ATOM      1  C   UNL     1       4.156   3.895  16.987  0.00  0.00    +0.000 C 
ENDROOT
BRANCH   1   2
ATOM      2  C   UNL     1       4.112   5.406  17.225  0.00  0.00    +0.000 C 
BRANCH   2   3
ATOM      3  C   UNL     1       5.395   6.063  16.708  0.00  0.00    +0.000 C 
BRANCH   3   4
ATOM      4  C   UNL     1       6.671   5.283  17.056  0.00  0.00    +0.000 C 
BRANCH   4   6
ATOM      5  C   UNL     1       7.508   7.527  17.502  0.00  0.00    +0.000 C 
ATOM      6  N   UNL     1       7.723   6.092  17.694  0.00  0.00    +0.000 NA
ATOM      7  C   UNL     1       7.792   5.789  19.126  0.00  0.00    +0.000 C 
ENDBRANCH   4   6
ENDBRANCH   3   4
ENDBRANCH   2   3
ENDBRANCH   1   2
BRANCH   1   8
ATOM      8  C   UNL     1       2.799   3.233  17.230  0.00  0.00    +0.000 C 
BRANCH   8   9
ATOM      9  C   UNL     1       2.444   3.239  18.698  0.00  0.00    +0.000 A 
ATOM     10  C   UNL     1       1.295   3.907  19.144  0.00  0.00    +0.000 A 
ATOM     11  C   UNL     1       0.979   3.936  20.506  0.00  0.00    +0.000 A 
ATOM     12  C   UNL     1       1.808   3.308  21.430  0.00  0.00    +0.000 A 
ATOM     13  C   UNL     1       2.956   2.648  20.996  0.00  0.00    +0.000 A 
ATOM     14  C   UNL     1       3.276   2.616  19.637  0.00  0.00    +0.000 A 
ENDBRANCH   8   9
ENDBRANCH   1   8
TORSDOF 6
ENDMDL
MODEL 3
REMARK VINA RESULT:      -5.4      1.463      1.689
REMARK  Name = 
REMARK  8 active torsions:
REMARK  status: ('A' for Active; 'I' for Inactive)
REMARK    1  A    between atoms: C_1  and  N_2
REMARK    2  A    between atoms: N_2  and  C_3
REMARK    3  A    between atoms: N_2  and  C_4
REMARK    4  A    between atoms: C_4  and  C_5
REMARK    5  A    between atoms: C_5  and  C_6
REMARK    6  A    between atoms: C_6  and  C_7
REMARK    7  A    between atoms: C_7  and  C_8
REMARK    8  A    between atoms: C_8  and  C_9
REMARK                            x       y       z     vdW  Elec       q    Type
REMARK                         _______ _______ _______ _____ _____    ______ ____
ROOT
ATOM      1  C   UNL     1       3.499   6.581  18.363  0.00  0.00    +0.000 C 
ENDROOT
BRANCH   1   2
ATOM      2  C   UNL     1       4.074   7.351  17.173  0.00  0.00    +0.000 C 
BRANCH   2   3
ATOM      3  C   UNL     1       5.132   6.507  16.454  0.00  0.00    +0.000 C 
BRANCH   3   4
ATOM      4  C   UNL     1       6.512   6.545  17.126  0.00  0.00    +0.000 C 
BRANCH   4   6
ATOM      5  C   UNL     1       7.719   4.525  17.757  0.00  0.00    +0.000 C 
ATOM      6  N   UNL     1       7.430   5.481  16.687  0.00  0.00    +0.000 NA
ATOM      7  C   UNL     1       6.869   4.777  15.532  0.00  0.00    +0.000 C 
ENDBRANCH   4   6
ENDBRANCH   3   4
ENDBRANCH   2   3
ENDBRANCH   1   2
BRANCH   1   8
ATOM      8  C   UNL     1       2.310   5.706  17.964  0.00  0.00    +0.000 C 
BRANCH   8   9
ATOM      9  C   UNL     1       2.008   4.676  19.028  0.00  0.00    +0.000 A 
ATOM     10  C   UNL     1       1.344   3.488  18.692  0.00  0.00    +0.000 A 
ATOM     11  C   UNL     1       1.040   2.547  19.680  0.00  0.00    +0.000 A 
ATOM     12  C   UNL     1       1.388   2.786  21.006  0.00  0.00    +0.000 A 
ATOM     13  C   UNL     1       2.042   3.967  21.349  0.00  0.00    +0.000 A 
ATOM     14  C   UNL     1       2.348   4.911  20.366  0.00  0.00    +0.000 A 
ENDBRANCH   8   9
ENDBRANCH   1   8
TORSDOF 6
ENDMDL
MODEL 4
REMARK VINA RESULT:      -5.4      1.333      2.365
REMARK  Name = 
REMARK  8 active torsions:
REMARK  status: ('A' for Active; 'I' for Inactive)
REMARK    1  A    between atoms: C_1  and  N_2
REMARK    2  A    between atoms: N_2  and  C_3
REMARK    3  A    between atoms: N_2  and  C_4
REMARK    4  A    between atoms: C_4  and  C_5
REMARK    5  A    between atoms: C_5  and  C_6
REMARK    6  A    between atoms: C_6  and  C_7
REMARK    7  A    between atoms: C_7  and  C_8
REMARK    8  A    between atoms: C_8  and  C_9
REMARK                            x       y       z     vdW  Elec       q    Type
REMARK                         _______ _______ _______ _____ _____    ______ ____
ROOT
ATOM      1  C   UNL     1       4.537   4.485  17.465  0.00  0.00    +0.000 C 
ENDROOT
BRANCH   1   2
ATOM      2  C   UNL     1       4.981   4.635  16.009  0.00  0.00    +0.000 C 
BRANCH   2   3
ATOM      3  C   UNL     1       6.485   4.918  15.937  0.00  0.00    +0.000 C 
BRANCH   3   4
ATOM      4  C   UNL     1       7.229   4.630  17.249  0.00  0.00    +0.000 C 
BRANCH   4   6
ATOM      5  C   UNL     1       7.330   7.063  17.330  0.00  0.00    +0.000 C 
ATOM      6  N   UNL     1       7.873   5.808  17.853  0.00  0.00    +0.000 NA
ATOM      7  C   UNL     1       7.721   5.773  19.310  0.00  0.00    +0.000 C 
ENDBRANCH   4   6
ENDBRANCH   3   4
ENDBRANCH   2   3
ENDBRANCH   1   2
BRANCH   1   8
ATOM      8  C   UNL     1       3.183   5.143  17.727  0.00  0.00    +0.000 C 
BRANCH   8   9
ATOM      9  C   UNL     1       2.456   4.464  18.864  0.00  0.00    +0.000 A 
ATOM     10  C   UNL     1       2.820   4.726  20.193  0.00  0.00    +0.000 A 
ATOM     11  C   UNL     1       2.167   4.078  21.244  0.00  0.00    +0.000 A 
ATOM     12  C   UNL     1       1.153   3.162  20.981  0.00  0.00    +0.000 A 
ATOM     13  C   UNL     1       0.790   2.890  19.663  0.00  0.00    +0.000 A 
ATOM     14  C   UNL     1       1.440   3.535  18.609  0.00  0.00    +0.000 A 
ENDBRANCH   8   9
ENDBRANCH   1   8
TORSDOF 6
ENDMDL
MODEL 5
REMARK VINA RESULT:      -5.3      1.537      2.371
REMARK  Name = 
REMARK  8 active torsions:
REMARK  status: ('A' for Active; 'I' for Inactive)
REMARK    1  A    between atoms: C_1  and  N_2
REMARK    2  A    between atoms: N_2  and  C_3
REMARK    3  A    between atoms: N_2  and  C_4
REMARK    4  A    between atoms: C_4  and  C_5
REMARK    5  A    between atoms: C_5  and  C_6
REMARK    6  A    between atoms: C_6  and  C_7
REMARK    7  A    between atoms: C_7  and  C_8
REMARK    8  A    between atoms: C_8  and  C_9
REMARK                            x       y       z     vdW  Elec       q    Type
REMARK                         _______ _______ _______ _____ _____    ______ ____
ROOT
ATOM      1  C   UNL     1       3.669   6.283  17.979  0.00  0.00    +0.000 C 
ENDROOT
BRANCH   1   2
ATOM      2  C   UNL     1       4.550   5.145  17.460  0.00  0.00    +0.000 C 
BRANCH   2   3
ATOM      3  C   UNL     1       5.415   5.632  16.293  0.00  0.00    +0.000 C 
BRANCH   3   4
ATOM      4  C   UNL     1       6.883   5.873  16.672  0.00  0.00    +0.000 C 
BRANCH   4   6
ATOM      5  C   UNL     1       7.855   6.062  18.898  0.00  0.00    +0.000 C 
ATOM      6  N   UNL     1       7.071   6.728  17.856  0.00  0.00    +0.000 NA
ATOM      7  C   UNL     1       7.722   7.983  17.473  0.00  0.00    +0.000 C 
ENDBRANCH   4   6
ENDBRANCH   3   4
ENDBRANCH   2   3
ENDBRANCH   1   2
BRANCH   1   8
ATOM      8  C   UNL     1       2.189   5.902  18.002  0.00  0.00    +0.000 C 
BRANCH   8   9
ATOM      9  C   UNL     1       1.918   4.827  19.029  0.00  0.00    +0.000 A 
ATOM     10  C   UNL     1       2.294   5.016  20.366  0.00  0.00    +0.000 A 
ATOM     11  C   UNL     1       2.068   4.011  21.311  0.00  0.00    +0.000 A 
ATOM     12  C   UNL     1       1.475   2.811  20.930  0.00  0.00    +0.000 A 
ATOM     13  C   UNL     1       1.104   2.613  19.602  0.00  0.00    +0.000 A 
ATOM     14  C   UNL     1       1.328   3.614  18.654  0.00  0.00    +0.000 A 
ENDBRANCH   8   9
ENDBRANCH   1   8
TORSDOF 6
ENDMDL
MODEL 6
REMARK VINA RESULT:      -5.3      2.440      5.885
REMARK  Name = 
REMARK  8 active torsions:
REMARK  status: ('A' for Active; 'I' for Inactive)
REMARK    1  A    between atoms: C_1  and  N_2
REMARK    2  A    between atoms: N_2  and  C_3
REMARK    3  A    between atoms: N_2  and  C_4
REMARK    4  A    between atoms: C_4  and  C_5
REMARK    5  A    between atoms: C_5  and  C_6
REMARK    6  A    between atoms: C_6  and  C_7
REMARK    7  A    between atoms: C_7  and  C_8
REMARK    8  A    between atoms: C_8  and  C_9
REMARK                            x       y       z     vdW  Elec       q    Type
REMARK                         _______ _______ _______ _____ _____    ______ ____
ROOT
ATOM      1  C   UNL     1       4.069   3.533  18.353  0.00  0.00    +0.000 C 
ENDROOT
BRANCH   1   2
ATOM      2  C   UNL     1       3.112   2.463  17.825  0.00  0.00    +0.000 C 
BRANCH   2   3
ATOM      3  C   UNL     1       2.017   2.172  18.857  0.00  0.00    +0.000 C 
BRANCH   3   4
ATOM      4  C   UNL     1       1.077   3.361  19.109  0.00  0.00    +0.000 C 
BRANCH   4   6
ATOM      5  C   UNL     1       1.668   2.851  21.417  0.00  0.00    +0.000 C 
ATOM      6  N   UNL     1       1.021   3.802  20.512  0.00  0.00    +0.000 NA
ATOM      7  C   UNL     1       1.645   5.120  20.651  0.00  0.00    +0.000 C 
ENDBRANCH   4   6
ENDBRANCH   3   4
ENDBRANCH   2   3
ENDBRANCH   1   2
BRANCH   1   8
ATOM      8  C   UNL     1       4.370   4.605  17.306  0.00  0.00    +0.000 C 
BRANCH   8   9
ATOM      9  C   UNL     1       5.586   5.417  17.688  0.00  0.00    +0.000 A 
ATOM     10  C   UNL     1       5.926   6.566  16.961  0.00  0.00    +0.000 A 
ATOM     11  C   UNL     1       7.065   7.302  17.297  0.00  0.00    +0.000 A 
ATOM     12  C   UNL     1       7.876   6.896  18.352  0.00  0.00    +0.000 A 
ATOM     13  C   UNL     1       7.549   5.751  19.076  0.00  0.00    +0.000 A 
ATOM     14  C   UNL     1       6.412   5.012  18.744  0.00  0.00    +0.000 A 
ENDBRANCH   8   9
ENDBRANCH   1   8
TORSDOF 6
ENDMDL
MODEL 7
REMARK VINA RESULT:      -5.3      1.116      2.004
REMARK  Name = 
REMARK  8 active torsions:
REMARK  status: ('A' for Active; 'I' for Inactive)
REMARK    1  A    between atoms: C_1  and  N_2
REMARK    2  A    between atoms: N_2  and  C_3
REMARK    3  A    between atoms: N_2  and  C_4
REMARK    4  A    between atoms: C_4  and  C_5
REMARK    5  A    between atoms: C_5  and  C_6
REMARK    6  A    between atoms: C_6  and  C_7
REMARK    7  A    between atoms: C_7  and  C_8
REMARK    8  A    between atoms: C_8  and  C_9
REMARK                            x       y       z     vdW  Elec       q    Type
REMARK                         _______ _______ _______ _____ _____    ______ ____
ROOT
ATOM      1  C   UNL     1       4.063   3.735  17.088  0.00  0.00    +0.000 C 
ENDROOT
BRANCH   1   2
ATOM      2  C   UNL     1       3.780   5.200  17.425  0.00  0.00    +0.000 C 
BRANCH   2   3
ATOM      3  C   UNL     1       5.044   5.873  17.971  0.00  0.00    +0.000 C 
BRANCH   3   4
ATOM      4  C   UNL     1       6.344   5.164  17.567  0.00  0.00    +0.000 C 
BRANCH   4   6
ATOM      5  C   UNL     1       7.478   7.320  17.562  0.00  0.00    +0.000 C 
ATOM      6  N   UNL     1       7.571   5.902  17.911  0.00  0.00    +0.000 NA
ATOM      7  C   UNL     1       7.857   5.762  19.341  0.00  0.00    +0.000 C 
ENDBRANCH   4   6
ENDBRANCH   3   4
ENDBRANCH   2   3
ENDBRANCH   1   2
BRANCH   1   8
ATOM      8  C   UNL     1       2.872   2.830  17.405  0.00  0.00    +0.000 C 
BRANCH   8   9
ATOM      9  C   UNL     1       2.486   2.924  18.863  0.00  0.00    +0.000 A 
ATOM     10  C   UNL     1       3.381   2.507  19.859  0.00  0.00    +0.000 A 
ATOM     11  C   UNL     1       3.015   2.568  21.206  0.00  0.00    +0.000 A 
ATOM     12  C   UNL     1       1.756   3.038  21.570  0.00  0.00    +0.000 A 
ATOM     13  C   UNL     1       0.859   3.448  20.586  0.00  0.00    +0.000 A 
ATOM     14  C   UNL     1       1.220   3.388  19.238  0.00  0.00    +0.000 A 
ENDBRANCH   8   9
ENDBRANCH   1   8
TORSDOF 6
ENDMDL
MODEL 8
REMARK VINA RESULT:      -5.3      1.540      2.485
REMARK  Name = 
REMARK  8 active torsions:
REMARK  status: ('A' for Active; 'I' for Inactive)
REMARK    1  A    between atoms: C_1  and  N_2
REMARK    2  A    between atoms: N_2  and  C_3
REMARK    3  A    between atoms: N_2  and  C_4
REMARK    4  A    between atoms: C_4  and  C_5
REMARK    5  A    between atoms: C_5  and  C_6
REMARK    6  A    between atoms: C_6  and  C_7
REMARK    7  A    between atoms: C_7  and  C_8
REMARK    8  A    between atoms: C_8  and  C_9
REMARK                            x       y       z     vdW  Elec       q    Type
REMARK                         _______ _______ _______ _____ _____    ______ ____
ROOT
ATOM      1  C   UNL     1       2.888   6.875  18.307  0.00  0.00    +0.000 C 
ENDROOT
BRANCH   1   2
ATOM      2  C   UNL     1       4.183   6.101  18.052  0.00  0.00    +0.000 C 
BRANCH   2   3
ATOM      3  C   UNL     1       4.893   6.647  16.809  0.00  0.00    +0.000 C 
BRANCH   3   4
ATOM      4  C   UNL     1       5.917   5.675  16.206  0.00  0.00    +0.000 C 
BRANCH   4   6
ATOM      5  C   UNL     1       7.477   7.092  17.430  0.00  0.00    +0.000 C 
ATOM      6  N   UNL     1       7.277   5.809  16.755  0.00  0.00    +0.000 NA
ATOM      7  C   UNL     1       7.555   4.712  17.686  0.00  0.00    +0.000 C 
ENDBRANCH   4   6
ENDBRANCH   3   4
ENDBRANCH   2   3
ENDBRANCH   1   2
BRANCH   1   8
ATOM      8  C   UNL     1       2.371   6.679  19.733  0.00  0.00    +0.000 C 
BRANCH   8   9
ATOM      9  C   UNL     1       1.994   5.238  19.984  0.00  0.00    +0.000 A 
ATOM     10  C   UNL     1       2.189   4.667  21.249  0.00  0.00    +0.000 A 
ATOM     11  C   UNL     1       1.866   3.326  21.476  0.00  0.00    +0.000 A 
ATOM     12  C   UNL     1       1.355   2.545  20.444  0.00  0.00    +0.000 A 
ATOM     13  C   UNL     1       1.164   3.103  19.181  0.00  0.00    +0.000 A 
ATOM     14  C   UNL     1       1.485   4.442  18.950  0.00  0.00    +0.000 A 
ENDBRANCH   8   9
ENDBRANCH   1   8
TORSDOF 6
ENDMDL
MODEL 9
REMARK VINA RESULT:      -5.2      1.124      2.066
REMARK  Name = 
REMARK  8 active torsions:
REMARK  status: ('A' for Active; 'I' for Inactive)
REMARK    1  A    between atoms: C_1  and  N_2
REMARK    2  A    between atoms: N_2  and  C_3
REMARK    3  A    between atoms: N_2  and  C_4
REMARK    4  A    between atoms: C_4  and  C_5
REMARK    5  A    between atoms: C_5  and  C_6
REMARK    6  A    between atoms: C_6  and  C_7
REMARK    7  A    between atoms: C_7  and  C_8
REMARK    8  A    between atoms: C_8  and  C_9
REMARK                            x       y       z     vdW  Elec       q    Type
REMARK                         _______ _______ _______ _____ _____    ______ ____
ROOT
ATOM      1  C   UNL     1       4.314   4.241  17.188  0.00  0.00    +0.000 C 
ENDROOT
BRANCH   1   2
ATOM      2  C   UNL     1       5.103   4.186  15.878  0.00  0.00    +0.000 C 
BRANCH   2   3
ATOM      3  C   UNL     1       6.377   5.029  15.989  0.00  0.00    +0.000 C 
BRANCH   3   4
ATOM      4  C   UNL     1       7.144   4.818  17.302  0.00  0.00    +0.000 C 
BRANCH   4   6
ATOM      5  C   UNL     1       7.910   5.750  19.419  0.00  0.00    +0.000 C 
ATOM      6  N   UNL     1       7.084   5.960  18.230  0.00  0.00    +0.000 NA
ATOM      7  C   UNL     1       7.503   7.186  17.547  0.00  0.00    +0.000 C 
ENDBRANCH   4   6
ENDBRANCH   3   4
ENDBRANCH   2   3
ENDBRANCH   1   2
BRANCH   1   8
ATOM      8  C   UNL     1       3.801   2.864  17.610  0.00  0.00    +0.000 C 
BRANCH   8   9
ATOM      9  C   UNL     1       2.936   2.959  18.845  0.00  0.00    +0.000 A 
ATOM     10  C   UNL     1       3.492   2.748  20.115  0.00  0.00    +0.000 A 
ATOM     11  C   UNL     1       2.687   2.809  21.257  0.00  0.00    +0.000 A 
ATOM     12  C   UNL     1       1.326   3.072  21.140  0.00  0.00    +0.000 A 
ATOM     13  C   UNL     1       0.764   3.276  19.881  0.00  0.00    +0.000 A 
ATOM     14  C   UNL     1       1.564   3.216  18.738  0.00  0.00    +0.000 A 
ENDBRANCH   8   9
ENDBRANCH   1   8
TORSDOF 6
ENDMDL
