MODEL 1
REMARK VINA RESULT:      -8.9      0.000      0.000
REMARK  Name = 
REMARK  6 active torsions:
REMARK  status: ('A' for Active; 'I' for Inactive)
REMARK    1  A    between atoms: C_1  and  C_2
REMARK    2  A    between atoms: N_5  and  S_6
REMARK    3  A    between atoms: S_6  and  C_9
REMARK    4  A    between atoms: C_12  and  N_13
REMARK    5  A    between atoms: C_14  and  C_16
REMARK    6  A    between atoms: C_17  and  C_18
REMARK                            x       y       z     vdW  Elec       q    Type
REMARK                         _______ _______ _______ _____ _____    ______ ____
ROOT
ATOM      1  C   UNL     1       3.198   4.729  18.839  0.00  0.00    +0.000 A 
ATOM      2  C   UNL     1       2.660   4.395  20.080  0.00  0.00    +0.000 A 
ATOM      3  C   UNL     1       2.048   5.390  20.857  0.00  0.00    +0.000 A 
ATOM      4  C   UNL     1       1.981   6.725  20.425  0.00  0.00    +0.000 A 
ATOM      5  C   UNL     1       2.547   7.045  19.188  0.00  0.00    +0.000 A 
ATOM      6  C   UNL     1       3.164   6.060  18.407  0.00  0.00    +0.000 A 
ENDROOT
BRANCH   4   7
ATOM      7  N   UNL     1       1.365   7.754  21.190  0.00  0.00    +0.000 N 
ATOM      8  C   UNL     1       0.907   8.957  20.688  0.00  0.00    +0.000 C 
ATOM      9  O   UNL     1       0.934   9.311  19.509  0.00  0.00    +0.000 OA
ATOM     10  H   UNL     1       1.268   7.579  22.177  0.00  0.00    +0.000 HD
BRANCH   8  11
ATOM     11  C   UNL     1       0.344   9.884  21.707  0.00  0.00    +0.000 C 
ATOM     12  C   UNL     1      -0.457  10.867  21.259  0.00  0.00    +0.000 C 
BRANCH  12  13
ATOM     13  C   UNL     1      -1.076  11.924  22.065  0.00  0.00    +0.000 A 
ATOM     14  C   UNL     1      -0.420  13.158  22.192  0.00  0.00    +0.000 A 
ATOM     15  C   UNL     1      -0.938  14.158  23.018  0.00  0.00    +0.000 A 
ATOM     16  C   UNL     1      -2.114  13.931  23.732  0.00  0.00    +0.000 A 
ATOM     17  C   UNL     1      -2.761  12.701  23.617  0.00  0.00    +0.000 A 
ATOM     18 CL   UNL     1      -4.196  12.402  24.521  0.00  0.00    +0.000 Cl
ATOM     19  C   UNL     1      -2.248  11.703  22.794  0.00  0.00    +0.000 A 
ENDBRANCH  12  13
ENDBRANCH   8  11
ENDBRANCH   4   7
BRANCH   1  20
ATOM     20  S   UNL     1       4.037   3.521  17.835  0.00  0.00    +0.000 S 
ATOM     21  O   UNL     1       3.888   3.910  16.448  0.00  0.00    +0.000 OA
ATOM     22  O   UNL     1       3.620   2.208  18.285  0.00  0.00    +0.000 OA
BRANCH  20  27
ATOM     23  C   UNL     1       7.911   8.104  17.651  0.00  0.00    +0.000 C 
ATOM     24  C   UNL     1       7.351   6.742  17.597  0.00  0.00    +0.000 A 
ATOM     25  C   UNL     1       6.550   5.999  18.428  0.00  0.00    +0.000 A 
ATOM     26  C   UNL     1       6.387   4.777  17.749  0.00  0.00    +0.000 A 
ATOM     27  N   UNL     1       5.654   3.700  18.203  0.00  0.00    +0.000 N 
ATOM     28  N   UNL     1       7.080   4.748  16.611  0.00  0.00    +0.000 NA
ATOM     29  O   UNL     1       7.666   5.999  16.501  0.00  0.00    +0.000 OA
ATOM     30  H   UNL     1       6.111   2.922  18.667  0.00  0.00    +0.000 HD
ENDBRANCH  20  27
ENDBRANCH   1  20
TORSDOF 5
ENDMDL
MODEL 2
REMARK VINA RESULT:      -8.8      1.947      2.337
REMARK  Name = 
REMARK  6 active torsions:
REMARK  status: ('A' for Active; 'I' for Inactive)
REMARK    1  A    between atoms: C_1  and  C_2
REMARK    2  A    between atoms: N_5  and  S_6
REMARK    3  A    between atoms: S_6  and  C_9
REMARK    4  A    between atoms: C_12  and  N_13
REMARK    5  A    between atoms: C_14  and  C_16
REMARK    6  A    between atoms: C_17  and  C_18
REMARK                            x       y       z     vdW  Elec       q    Type
REMARK                         _______ _______ _______ _____ _____    ______ ____
ROOT
ATOM      1  C   UNL     1       3.176   5.669  19.229  0.00  0.00    +0.000 A 
ATOM      2  C   UNL     1       2.468   5.174  20.322  0.00  0.00    +0.000 A 
ATOM      3  C   UNL     1       1.571   6.013  21.000  0.00  0.00    +0.000 A 
ATOM      4  C   UNL     1       1.381   7.351  20.619  0.00  0.00    +0.000 A 
ATOM      5  C   UNL     1       2.117   7.836  19.534  0.00  0.00    +0.000 A 
ATOM      6  C   UNL     1       3.019   7.009  18.853  0.00  0.00    +0.000 A 
ENDROOT
BRANCH   4   7
ATOM      7  N   UNL     1       0.477   8.223  21.285  0.00  0.00    +0.000 N 
ATOM      8  C   UNL     1       0.830   9.181  22.216  0.00  0.00    +0.000 C 
ATOM      9  O   UNL     1       1.973   9.445  22.590  0.00  0.00    +0.000 OA
ATOM     10  H   UNL     1      -0.498   8.118  21.053  0.00  0.00    +0.000 HD
BRANCH   8  11
ATOM     11  C   UNL     1      -0.313   9.933  22.802  0.00  0.00    +0.000 C 
ATOM     12  C   UNL     1      -0.395  11.243  22.508  0.00  0.00    +0.000 C 
BRANCH  12  13
ATOM     13  C   UNL     1      -1.394  12.189  23.013  0.00  0.00    +0.000 A 
ATOM     14  C   UNL     1      -2.662  11.711  23.381  0.00  0.00    +0.000 A 
ATOM     15  C   UNL     1      -3.664  12.594  23.788  0.00  0.00    +0.000 A 
ATOM     16  C   UNL     1      -3.413  13.966  23.823  0.00  0.00    +0.000 A 
ATOM     17  C   UNL     1      -2.158  14.444  23.447  0.00  0.00    +0.000 A 
ATOM     18 CL   UNL     1      -1.850  16.137  23.457  0.00  0.00    +0.000 Cl
ATOM     19  C   UNL     1      -1.156  13.566  23.042  0.00  0.00    +0.000 A 
ENDBRANCH  12  13
ENDBRANCH   8  11
ENDBRANCH   4   7
BRANCH   1  20
ATOM     20  S   UNL     1       4.370   4.670  18.366  0.00  0.00    +0.000 S 
ATOM     21  O   UNL     1       3.664   3.885  17.375  0.00  0.00    +0.000 OA
ATOM     22  O   UNL     1       5.208   4.027  19.359  0.00  0.00    +0.000 OA
BRANCH  20  27
ATOM     23  C   UNL     1       7.133   4.586  13.037  0.00  0.00    +0.000 C 
ATOM     24  C   UNL     1       6.824   4.876  14.448  0.00  0.00    +0.000 A 
ATOM     25  C   UNL     1       5.712   5.327  15.114  0.00  0.00    +0.000 A 
ATOM     26  C   UNL     1       6.107   5.358  16.464  0.00  0.00    +0.000 A 
ATOM     27  N   UNL     1       5.314   5.754  17.522  0.00  0.00    +0.000 N 
ATOM     28  N   UNL     1       7.383   5.005  16.614  0.00  0.00    +0.000 NA
ATOM     29  O   UNL     1       7.828   4.673  15.344  0.00  0.00    +0.000 OA
ATOM     30  H   UNL     1       5.383   6.696  17.895  0.00  0.00    +0.000 HD
ENDBRANCH  20  27
ENDBRANCH   1  20
TORSDOF 5
ENDMDL
MODEL 3
REMARK VINA RESULT:      -8.8      1.047      1.387
REMARK  Name = 
REMARK  6 active torsions:
REMARK  status: ('A' for Active; 'I' for Inactive)
REMARK    1  A    between atoms: C_1  and  C_2
REMARK    2  A    between atoms: N_5  and  S_6
REMARK    3  A    between atoms: S_6  and  C_9
REMARK    4  A    between atoms: C_12  and  N_13
REMARK    5  A    between atoms: C_14  and  C_16
REMARK    6  A    between atoms: C_17  and  C_18
REMARK                            x       y       z     vdW  Elec       q    Type
REMARK                         _______ _______ _______ _____ _____    ______ ____
ROOT
ATOM      1  C   UNL     1       3.331   4.671  18.837  0.00  0.00    +0.000 A 
ATOM      2  C   UNL     1       2.785   4.304  20.066  0.00  0.00    +0.000 A 
ATOM      3  C   UNL     1       2.140   5.272  20.850  0.00  0.00    +0.000 A 
ATOM      4  C   UNL     1       2.046   6.611  20.438  0.00  0.00    +0.000 A 
ATOM      5  C   UNL     1       2.621   6.965  19.214  0.00  0.00    +0.000 A 
ATOM      6  C   UNL     1       3.271   6.007  18.425  0.00  0.00    +0.000 A 
ENDROOT
BRANCH   4   7
ATOM      7  N   UNL     1       1.396   7.613  21.210  0.00  0.00    +0.000 N 
ATOM      8  C   UNL     1       0.939   8.824  20.726  0.00  0.00    +0.000 C 
ATOM      9  O   UNL     1       0.997   9.209  19.559  0.00  0.00    +0.000 OA
ATOM     10  H   UNL     1       1.271   7.411  22.189  0.00  0.00    +0.000 HD
BRANCH   8  11
ATOM     11  C   UNL     1       0.336   9.718  21.752  0.00  0.00    +0.000 C 
ATOM     12  C   UNL     1      -0.187  10.878  21.316  0.00  0.00    +0.000 C 
BRANCH  12  13
ATOM     13  C   UNL     1      -0.779  11.934  22.144  0.00  0.00    +0.000 A 
ATOM     14  C   UNL     1      -1.947  11.655  22.872  0.00  0.00    +0.000 A 
ATOM     15  C   UNL     1      -2.584  12.658  23.605  0.00  0.00    +0.000 A 
ATOM     16  C   UNL     1      -2.066  13.953  23.612  0.00  0.00    +0.000 A 
ATOM     17  C   UNL     1      -0.913  14.235  22.879  0.00  0.00    +0.000 A 
ATOM     18 CL   UNL     1      -0.284  15.837  22.857  0.00  0.00    +0.000 Cl
ATOM     19  C   UNL     1      -0.274  13.237  22.148  0.00  0.00    +0.000 A 
ENDBRANCH  12  13
ENDBRANCH   8  11
ENDBRANCH   4   7
BRANCH   1  20
ATOM     20  S   UNL     1       4.212   3.499  17.826  0.00  0.00    +0.000 S 
ATOM     21  O   UNL     1       4.038   3.882  16.441  0.00  0.00    +0.000 OA
ATOM     22  O   UNL     1       3.852   2.169  18.277  0.00  0.00    +0.000 OA
BRANCH  20  27
ATOM     23  C   UNL     1       7.897   8.234  17.610  0.00  0.00    +0.000 C 
ATOM     24  C   UNL     1       7.392   6.850  17.561  0.00  0.00    +0.000 A 
ATOM     25  C   UNL     1       6.627   6.077  18.399  0.00  0.00    +0.000 A 
ATOM     26  C   UNL     1       6.508   4.849  17.723  0.00  0.00    +0.000 A 
ATOM     27  N   UNL     1       5.822   3.743  18.183  0.00  0.00    +0.000 N 
ATOM     28  N   UNL     1       7.194   4.845  16.580  0.00  0.00    +0.000 NA
ATOM     29  O   UNL     1       7.729   6.119  16.464  0.00  0.00    +0.000 OA
ATOM     30  H   UNL     1       6.314   2.986  18.646  0.00  0.00    +0.000 HD
ENDBRANCH  20  27
ENDBRANCH   1  20
TORSDOF 5
ENDMDL
MODEL 4
REMARK VINA RESULT:      -8.8      0.824      1.230
REMARK  Name = 
REMARK  6 active torsions:
REMARK  status: ('A' for Active; 'I' for Inactive)
REMARK    1  A    between atoms: C_1  and  C_2
REMARK    2  A    between atoms: N_5  and  S_6
REMARK    3  A    between atoms: S_6  and  C_9
REMARK    4  A    between atoms: C_12  and  N_13
REMARK    5  A    between atoms: C_14  and  C_16
REMARK    6  A    between atoms: C_17  and  C_18
REMARK                            x       y       z     vdW  Elec       q    Type
REMARK                         _______ _______ _______ _____ _____    ______ ____
ROOT
ATOM      1  C   UNL     1       3.314   5.052  18.836  0.00  0.00    +0.000 A 
ATOM      2  C   UNL     1       3.173   6.044  17.869  0.00  0.00    +0.000 A 
ATOM      3  C   UNL     1       2.563   7.260  18.213  0.00  0.00    +0.000 A 
ATOM      4  C   UNL     1       2.070   7.498  19.507  0.00  0.00    +0.000 A 
ATOM      5  C   UNL     1       2.201   6.481  20.457  0.00  0.00    +0.000 A 
ATOM      6  C   UNL     1       2.804   5.262  20.122  0.00  0.00    +0.000 A 
ENDROOT
BRANCH   4   7
ATOM      7  N   UNL     1       1.451   8.720  19.885  0.00  0.00    +0.000 N 
ATOM      8  C   UNL     1       0.445   8.850  20.824  0.00  0.00    +0.000 C 
ATOM      9  O   UNL     1      -0.047   7.941  21.493  0.00  0.00    +0.000 OA
ATOM     10  H   UNL     1       1.778   9.550  19.418  0.00  0.00    +0.000 HD
BRANCH   8  11
ATOM     11  C   UNL     1      -0.067  10.236  21.003  0.00  0.00    +0.000 C 
ATOM     12  C   UNL     1      -0.612  10.534  22.197  0.00  0.00    +0.000 C 
BRANCH  12  13
ATOM     13  C   UNL     1      -1.227  11.808  22.580  0.00  0.00    +0.000 A 
ATOM     14  C   UNL     1      -0.502  12.997  22.403  0.00  0.00    +0.000 A 
ATOM     15  C   UNL     1      -1.024  14.219  22.833  0.00  0.00    +0.000 A 
ATOM     16  C   UNL     1      -2.273  14.264  23.452  0.00  0.00    +0.000 A 
ATOM     17  C   UNL     1      -2.989  13.083  23.640  0.00  0.00    +0.000 A 
ATOM     18 CL   UNL     1      -4.517  13.126  24.433  0.00  0.00    +0.000 Cl
ATOM     19  C   UNL     1      -2.473  11.863  23.212  0.00  0.00    +0.000 A 
ENDBRANCH  12  13
ENDBRANCH   8  11
ENDBRANCH   4   7
BRANCH   1  20
ATOM     20  S   UNL     1       4.027   3.468  18.443  0.00  0.00    +0.000 S 
ATOM     21  O   UNL     1       3.838   3.230  17.027  0.00  0.00    +0.000 OA
ATOM     22  O   UNL     1       3.550   2.514  19.424  0.00  0.00    +0.000 OA
BRANCH  20  27
ATOM     23  C   UNL     1       7.879   8.000  17.623  0.00  0.00    +0.000 C 
ATOM     24  C   UNL     1       7.316   6.641  17.713  0.00  0.00    +0.000 A 
ATOM     25  C   UNL     1       6.581   5.967  18.656  0.00  0.00    +0.000 A 
ATOM     26  C   UNL     1       6.364   4.699  18.084  0.00  0.00    +0.000 A 
ATOM     27  N   UNL     1       5.667   3.663  18.671  0.00  0.00    +0.000 N 
ATOM     28  N   UNL     1       6.968   4.581  16.901  0.00  0.00    +0.000 NA
ATOM     29  O   UNL     1       7.545   5.817  16.654  0.00  0.00    +0.000 OA
ATOM     30  H   UNL     1       6.159   2.919  19.156  0.00  0.00    +0.000 HD
ENDBRANCH  20  27
ENDBRANCH   1  20
TORSDOF 5
ENDMDL
MODEL 5
REMARK VINA RESULT:      -8.7      3.334      4.812
REMARK  Name = 
REMARK  6 active torsions:
REMARK  status: ('A' for Active; 'I' for Inactive)
REMARK    1  A    between atoms: C_1  and  C_2
REMARK    2  A    between atoms: N_5  and  S_6
REMARK    3  A    between atoms: S_6  and  C_9
REMARK    4  A    between atoms: C_12  and  N_13
REMARK    5  A    between atoms: C_14  and  C_16
REMARK    6  A    between atoms: C_17  and  C_18
REMARK                            x       y       z     vdW  Elec       q    Type
REMARK                         _______ _______ _______ _____ _____    ______ ____
ROOT
ATOM      1  C   UNL     1       4.620   6.113  18.476  0.00  0.00    +0.000 A 
ATOM      2  C   UNL     1       3.721   6.098  19.541  0.00  0.00    +0.000 A 
ATOM      3  C   UNL     1       2.587   6.923  19.497  0.00  0.00    +0.000 A 
ATOM      4  C   UNL     1       2.342   7.782  18.413  0.00  0.00    +0.000 A 
ATOM      5  C   UNL     1       3.267   7.800  17.365  0.00  0.00    +0.000 A 
ATOM      6  C   UNL     1       4.405   6.984  17.401  0.00  0.00    +0.000 A 
ENDROOT
BRANCH   4   7
ATOM      7  N   UNL     1       1.200   8.627  18.340  0.00  0.00    +0.000 N 
ATOM      8  C   UNL     1       0.855   9.587  19.271  0.00  0.00    +0.000 C 
ATOM      9  O   UNL     1       1.489   9.878  20.285  0.00  0.00    +0.000 OA
ATOM     10  H   UNL     1       0.601   8.499  17.540  0.00  0.00    +0.000 HD
BRANCH   8  11
ATOM     11  C   UNL     1      -0.417  10.306  18.985  0.00  0.00    +0.000 C 
ATOM     12  C   UNL     1      -1.165   9.837  17.971  0.00  0.00    +0.000 C 
BRANCH  12  13
ATOM     13  C   UNL     1      -2.420  10.412  17.474  0.00  0.00    +0.000 A 
ATOM     14  C   UNL     1      -2.699  10.355  16.100  0.00  0.00    +0.000 A 
ATOM     15  C   UNL     1      -3.844  10.964  15.581  0.00  0.00    +0.000 A 
ATOM     16  C   UNL     1      -4.717  11.644  16.430  0.00  0.00    +0.000 A 
ATOM     17  C   UNL     1      -4.434  11.712  17.794  0.00  0.00    +0.000 A 
ATOM     18 CL   UNL     1      -5.490  12.577  18.844  0.00  0.00    +0.000 Cl
ATOM     19  C   UNL     1      -3.295  11.105  18.315  0.00  0.00    +0.000 A 
ENDBRANCH  12  13
ENDBRANCH   8  11
ENDBRANCH   4   7
BRANCH   1  20
ATOM     20  S   UNL     1       6.106   5.131  18.502  0.00  0.00    +0.000 S 
ATOM     21  O   UNL     1       6.672   5.212  19.832  0.00  0.00    +0.000 OA
ATOM     22  O   UNL     1       6.892   5.491  17.339  0.00  0.00    +0.000 OA
BRANCH  20  27
ATOM     23  C   UNL     1       0.764   2.399  18.732  0.00  0.00    +0.000 C 
ATOM     24  C   UNL     1       2.212   2.653  18.838  0.00  0.00    +0.000 A 
ATOM     25  C   UNL     1       3.163   3.160  17.988  0.00  0.00    +0.000 A 
ATOM     26  C   UNL     1       4.349   3.141  18.746  0.00  0.00    +0.000 A 
ATOM     27  N   UNL     1       5.588   3.558  18.305  0.00  0.00    +0.000 N 
ATOM     28  N   UNL     1       4.156   2.611  19.953  0.00  0.00    +0.000 NA
ATOM     29  O   UNL     1       2.801   2.329  20.022  0.00  0.00    +0.000 OA
ATOM     30  H   UNL     1       6.268   2.887  17.963  0.00  0.00    +0.000 HD
ENDBRANCH  20  27
ENDBRANCH   1  20
TORSDOF 5
ENDMDL
MODEL 6
REMARK VINA RESULT:      -8.7      4.559      8.172
REMARK  Name = 
REMARK  6 active torsions:
REMARK  status: ('A' for Active; 'I' for Inactive)
REMARK    1  A    between atoms: C_1  and  C_2
REMARK    2  A    between atoms: N_5  and  S_6
REMARK    3  A    between atoms: S_6  and  C_9
REMARK    4  A    between atoms: C_12  and  N_13
REMARK    5  A    between atoms: C_14  and  C_16
REMARK    6  A    between atoms: C_17  and  C_18
REMARK                            x       y       z     vdW  Elec       q    Type
REMARK                         _______ _______ _______ _____ _____    ______ ____
ROOT
ATOM      1  C   UNL     1       4.685   3.868  18.158  0.00  0.00    +0.000 A 
ATOM      2  C   UNL     1       4.510   4.435  16.898  0.00  0.00    +0.000 A 
ATOM      3  C   UNL     1       5.203   5.610  16.569  0.00  0.00    +0.000 A 
ATOM      4  C   UNL     1       6.057   6.244  17.486  0.00  0.00    +0.000 A 
ATOM      5  C   UNL     1       6.201   5.672  18.754  0.00  0.00    +0.000 A 
ATOM      6  C   UNL     1       5.510   4.502  19.094  0.00  0.00    +0.000 A 
ENDROOT
BRANCH   4   7
ATOM      7  N   UNL     1       6.774   7.433  17.180  0.00  0.00    +0.000 N 
ATOM      8  C   UNL     1       7.874   7.904  17.871  0.00  0.00    +0.000 C 
ATOM      9  O   UNL     1       8.416   7.359  18.832  0.00  0.00    +0.000 OA
ATOM     10  H   UNL     1       6.437   7.968  16.396  0.00  0.00    +0.000 HD
BRANCH   8  11
ATOM     11  C   UNL     1       8.414   9.200  17.377  0.00  0.00    +0.000 C 
ATOM     12  C   UNL     1       8.890  10.052  18.302  0.00  0.00    +0.000 C 
BRANCH  12  13
ATOM     13  C   UNL     1       9.416  11.399  18.057  0.00  0.00    +0.000 A 
ATOM     14  C   UNL     1      10.792  11.565  17.835  0.00  0.00    +0.000 A 
ATOM     15  C   UNL     1      11.340  12.840  17.681  0.00  0.00    +0.000 A 
ATOM     16  C   UNL     1      10.518  13.965  17.755  0.00  0.00    +0.000 A 
ATOM     17  C   UNL     1       9.153  13.803  17.987  0.00  0.00    +0.000 A 
ATOM     18 CL   UNL     1       8.137  15.188  18.112  0.00  0.00    +0.000 Cl
ATOM     19  C   UNL     1       8.603  12.533  18.140  0.00  0.00    +0.000 A 
ENDBRANCH  12  13
ENDBRANCH   8  11
ENDBRANCH   4   7
BRANCH   1  20
ATOM     20  S   UNL     1       3.788   2.411  18.652  0.00  0.00    +0.000 S 
ATOM     21  O   UNL     1       4.418   1.880  19.843  0.00  0.00    +0.000 OA
ATOM     22  O   UNL     1       3.611   1.582  17.476  0.00  0.00    +0.000 OA
BRANCH  20  27
ATOM     23  C   UNL     1       1.636   7.719  20.452  0.00  0.00    +0.000 C 
ATOM     24  C   UNL     1       1.832   6.266  20.304  0.00  0.00    +0.000 A 
ATOM     25  C   UNL     1       1.931   5.415  19.231  0.00  0.00    +0.000 A 
ATOM     26  C   UNL     1       2.133   4.149  19.812  0.00  0.00    +0.000 A 
ATOM     27  N   UNL     1       2.287   2.965  19.121  0.00  0.00    +0.000 N 
ATOM     28  N   UNL     1       2.106   4.207  21.144  0.00  0.00    +0.000 NA
ATOM     29  O   UNL     1       1.944   5.548  21.454  0.00  0.00    +0.000 OA
ATOM     30  H   UNL     1       1.500   2.337  18.991  0.00  0.00    +0.000 HD
ENDBRANCH  20  27
ENDBRANCH   1  20
TORSDOF 5
ENDMDL
MODEL 7
REMARK VINA RESULT:      -8.7      1.366      1.829
REMARK  Name = 
REMARK  6 active torsions:
REMARK  status: ('A' for Active; 'I' for Inactive)
REMARK    1  A    between atoms: C_1  and  C_2
REMARK    2  A    between atoms: N_5  and  S_6
REMARK    3  A    between atoms: S_6  and  C_9
REMARK    4  A    between atoms: C_12  and  N_13
REMARK    5  A    between atoms: C_14  and  C_16
REMARK    6  A    between atoms: C_17  and  C_18
REMARK                            x       y       z     vdW  Elec       q    Type
REMARK                         _______ _______ _______ _____ _____    ______ ____
ROOT
ATOM      1  C   UNL     1       3.373   4.992  18.907  0.00  0.00    +0.000 A 
ATOM      2  C   UNL     1       3.336   6.010  17.956  0.00  0.00    +0.000 A 
ATOM      3  C   UNL     1       2.708   7.224  18.271  0.00  0.00    +0.000 A 
ATOM      4  C   UNL     1       2.096   7.437  19.516  0.00  0.00    +0.000 A 
ATOM      5  C   UNL     1       2.124   6.396  20.449  0.00  0.00    +0.000 A 
ATOM      6  C   UNL     1       2.744   5.178  20.143  0.00  0.00    +0.000 A 
ENDROOT
BRANCH   4   7
ATOM      7  N   UNL     1       1.455   8.658  19.864  0.00  0.00    +0.000 N 
ATOM      8  C   UNL     1       0.959   9.584  18.967  0.00  0.00    +0.000 C 
ATOM      9  O   UNL     1       0.970   9.486  17.740  0.00  0.00    +0.000 OA
ATOM     10  H   UNL     1       1.368   8.851  20.849  0.00  0.00    +0.000 HD
BRANCH   8  11
ATOM     11  C   UNL     1       0.376  10.805  19.588  0.00  0.00    +0.000 C 
ATOM     12  C   UNL     1      -0.270  10.643  20.757  0.00  0.00    +0.000 C 
BRANCH  12  13
ATOM     13  C   UNL     1      -0.967  11.683  21.519  0.00  0.00    +0.000 A 
ATOM     14  C   UNL     1      -1.545  11.353  22.755  0.00  0.00    +0.000 A 
ATOM     15  C   UNL     1      -2.287  12.296  23.469  0.00  0.00    +0.000 A 
ATOM     16  C   UNL     1      -2.465  13.579  22.951  0.00  0.00    +0.000 A 
ATOM     17  C   UNL     1      -1.902  13.906  21.718  0.00  0.00    +0.000 A 
ATOM     18 CL   UNL     1      -2.145  15.477  21.056  0.00  0.00    +0.000 Cl
ATOM     19  C   UNL     1      -1.162  12.968  21.004  0.00  0.00    +0.000 A 
ENDBRANCH  12  13
ENDBRANCH   8  11
ENDBRANCH   4   7
BRANCH   1  20
ATOM     20  S   UNL     1       4.105   3.410  18.545  0.00  0.00    +0.000 S 
ATOM     21  O   UNL     1       3.924   3.145  17.133  0.00  0.00    +0.000 OA
ATOM     22  O   UNL     1       3.633   2.467  19.540  0.00  0.00    +0.000 OA
BRANCH  20  27
ATOM     23  C   UNL     1       7.913   7.966  17.661  0.00  0.00    +0.000 C 
ATOM     24  C   UNL     1       7.364   6.603  17.773  0.00  0.00    +0.000 A 
ATOM     25  C   UNL     1       6.631   5.938  18.725  0.00  0.00    +0.000 A 
ATOM     26  C   UNL     1       6.431   4.659  18.175  0.00  0.00    +0.000 A 
ATOM     27  N   UNL     1       5.742   3.626  18.777  0.00  0.00    +0.000 N 
ATOM     28  N   UNL     1       7.040   4.526  16.997  0.00  0.00    +0.000 NA
ATOM     29  O   UNL     1       7.606   5.763  16.730  0.00  0.00    +0.000 OA
ATOM     30  H   UNL     1       6.239   2.896  19.277  0.00  0.00    +0.000 HD
ENDBRANCH  20  27
ENDBRANCH   1  20
TORSDOF 5
ENDMDL
MODEL 8
REMARK VINA RESULT:      -8.7      4.950     10.703
REMARK  Name = 
REMARK  6 active torsions:
REMARK  status: ('A' for Active; 'I' for Inactive)
REMARK    1  A    between atoms: C_1  and  C_2
REMARK    2  A    between atoms: N_5  and  S_6
REMARK    3  A    between atoms: S_6  and  C_9
REMARK    4  A    between atoms: C_12  and  N_13
REMARK    5  A    between atoms: C_14  and  C_16
REMARK    6  A    between atoms: C_17  and  C_18
REMARK                            x       y       z     vdW  Elec       q    Type
REMARK                         _______ _______ _______ _____ _____    ______ ____
ROOT
ATOM      1  C   UNL     1       1.510   8.156  20.379  0.00  0.00    +0.000 A 
ATOM      2  C   UNL     1       1.846   6.845  20.713  0.00  0.00    +0.000 A 
ATOM      3  C   UNL     1       2.561   6.062  19.795  0.00  0.00    +0.000 A 
ATOM      4  C   UNL     1       2.932   6.557  18.534  0.00  0.00    +0.000 A 
ATOM      5  C   UNL     1       2.567   7.867  18.208  0.00  0.00    +0.000 A 
ATOM      6  C   UNL     1       1.849   8.656  19.116  0.00  0.00    +0.000 A 
ENDROOT
BRANCH   4   7
ATOM      7  N   UNL     1       3.660   5.787  17.585  0.00  0.00    +0.000 N 
ATOM      8  C   UNL     1       4.533   4.761  17.889  0.00  0.00    +0.000 C 
ATOM      9  O   UNL     1       4.795   4.338  19.015  0.00  0.00    +0.000 OA
ATOM     10  H   UNL     1       3.520   6.026  16.616  0.00  0.00    +0.000 HD
BRANCH   8  11
ATOM     11  C   UNL     1       5.205   4.144  16.713  0.00  0.00    +0.000 C 
ATOM     12  C   UNL     1       5.471   4.953  15.671  0.00  0.00    +0.000 C 
BRANCH  12  13
ATOM     13  C   UNL     1       6.072   4.559  14.393  0.00  0.00    +0.000 A 
ATOM     14  C   UNL     1       7.216   5.235  13.940  0.00  0.00    +0.000 A 
ATOM     15  C   UNL     1       7.766   4.943  12.690  0.00  0.00    +0.000 A 
ATOM     16  C   UNL     1       7.174   3.977  11.876  0.00  0.00    +0.000 A 
ATOM     17  C   UNL     1       6.031   3.313  12.319  0.00  0.00    +0.000 A 
ATOM     18 CL   UNL     1       5.275   2.143  11.308  0.00  0.00    +0.000 Cl
ATOM     19  C   UNL     1       5.480   3.601  13.565  0.00  0.00    +0.000 A 
ENDBRANCH  12  13
ENDBRANCH   8  11
ENDBRANCH   4   7
BRANCH   1  20
ATOM     20  S   UNL     1       0.554   9.178  21.479  0.00  0.00    +0.000 S 
ATOM     21  O   UNL     1       1.328   9.384  22.685  0.00  0.00    +0.000 OA
ATOM     22  O   UNL     1      -0.784   8.625  21.544  0.00  0.00    +0.000 OA
BRANCH  20  27
ATOM     23  C   UNL     1      -3.849  13.149  20.533  0.00  0.00    +0.000 C 
ATOM     24  C   UNL     1      -2.626  12.346  20.354  0.00  0.00    +0.000 A 
ATOM     25  C   UNL     1      -1.540  12.061  21.143  0.00  0.00    +0.000 A 
ATOM     26  C   UNL     1      -0.749  11.211  20.348  0.00  0.00    +0.000 A 
ATOM     27  N   UNL     1       0.461  10.661  20.721  0.00  0.00    +0.000 N 
ATOM     28  N   UNL     1      -1.280  11.028  19.140  0.00  0.00    +0.000 NA
ATOM     29  O   UNL     1      -2.479  11.723  19.153  0.00  0.00    +0.000 OA
ATOM     30  H   UNL     1       1.334  11.087  20.429  0.00  0.00    +0.000 HD
ENDBRANCH  20  27
ENDBRANCH   1  20
TORSDOF 5
ENDMDL
MODEL 9
REMARK VINA RESULT:      -8.7      2.229      2.831
REMARK  Name = 
REMARK  6 active torsions:
REMARK  status: ('A' for Active; 'I' for Inactive)
REMARK    1  A    between atoms: C_1  and  C_2
REMARK    2  A    between atoms: N_5  and  S_6
REMARK    3  A    between atoms: S_6  and  C_9
REMARK    4  A    between atoms: C_12  and  N_13
REMARK    5  A    between atoms: C_14  and  C_16
REMARK    6  A    between atoms: C_17  and  C_18
REMARK                            x       y       z     vdW  Elec       q    Type
REMARK                         _______ _______ _______ _____ _____    ______ ____
ROOT
ATOM      1  C   UNL     1       3.199   6.436  18.880  0.00  0.00    +0.000 A 
ATOM      2  C   UNL     1       2.862   7.685  18.363  0.00  0.00    +0.000 A 
ATOM      3  C   UNL     1       1.930   8.484  19.043  0.00  0.00    +0.000 A 
ATOM      4  C   UNL     1       1.309   8.049  20.225  0.00  0.00    +0.000 A 
ATOM      5  C   UNL     1       1.643   6.783  20.715  0.00  0.00    +0.000 A 
ATOM      6  C   UNL     1       2.569   5.976  20.042  0.00  0.00    +0.000 A 
ENDROOT
BRANCH   4   7
ATOM      7  N   UNL     1       0.364   8.838  20.936  0.00  0.00    +0.000 N 
ATOM      8  C   UNL     1       0.622   9.541  22.097  0.00  0.00    +0.000 C 
ATOM      9  O   UNL     1       1.705   9.617  22.676  0.00  0.00    +0.000 OA
ATOM     10  H   UNL     1      -0.567   8.871  20.553  0.00  0.00    +0.000 HD
BRANCH   8  11
ATOM     11  C   UNL     1      -0.554  10.250  22.671  0.00  0.00    +0.000 C 
ATOM     12  C   UNL     1      -0.935  11.388  22.064  0.00  0.00    +0.000 C 
BRANCH  12  13
ATOM     13  C   UNL     1      -2.022  12.279  22.482  0.00  0.00    +0.000 A 
ATOM     14  C   UNL     1      -2.808  11.923  23.589  0.00  0.00    +0.000 A 
ATOM     15  C   UNL     1      -3.902  12.705  23.966  0.00  0.00    +0.000 A 
ATOM     16  C   UNL     1      -4.226  13.848  23.234  0.00  0.00    +0.000 A 
ATOM     17  C   UNL     1      -3.454  14.196  22.127  0.00  0.00    +0.000 A 
ATOM     18 CL   UNL     1      -3.867  15.587  21.200  0.00  0.00    +0.000 Cl
ATOM     19  C   UNL     1      -2.362  13.420  21.750  0.00  0.00    +0.000 A 
ENDBRANCH  12  13
ENDBRANCH   8  11
ENDBRANCH   4   7
BRANCH   1  20
ATOM     20  S   UNL     1       4.331   5.355  18.032  0.00  0.00    +0.000 S 
ATOM     21  O   UNL     1       3.569   4.262  17.467  0.00  0.00    +0.000 OA
ATOM     22  O   UNL     1       5.446   5.098  18.922  0.00  0.00    +0.000 OA
BRANCH  20  27
ATOM     23  C   UNL     1       7.003   4.002  12.828  0.00  0.00    +0.000 C 
ATOM     24  C   UNL     1       6.615   4.715  14.058  0.00  0.00    +0.000 A 
ATOM     25  C   UNL     1       5.416   5.052  14.634  0.00  0.00    +0.000 A 
ATOM     26  C   UNL     1       5.778   5.716  15.822  0.00  0.00    +0.000 A 
ATOM     27  N   UNL     1       4.898   6.248  16.743  0.00  0.00    +0.000 N 
ATOM     28  N   UNL     1       7.100   5.828  15.941  0.00  0.00    +0.000 NA
ATOM     29  O   UNL     1       7.630   5.172  14.842  0.00  0.00    +0.000 OA
ATOM     30  H   UNL     1       4.673   7.237  16.730  0.00  0.00    +0.000 HD
ENDBRANCH  20  27
ENDBRANCH   1  20
TORSDOF 5
ENDMDL
