MODEL 1
REMARK VINA RESULT:      -9.3      0.000      0.000
REMARK  Name = 
REMARK  7 active torsions:
REMARK  status: ('A' for Active; 'I' for Inactive)
REMARK    1  A    between atoms: C_2  and  C_4
REMARK    2  A    between atoms: C_7  and  N_8
REMARK    3  A    between atoms: N_11  and  C_12
REMARK    4  A    between atoms: C_16  and  S_17
REMARK    5  A    between atoms: S_17  and  N_20
REMARK    6  A    between atoms: N_20  and  C_21
REMARK    7  A    between atoms: C_21  and  C_22
REMARK                            x       y       z     vdW  Elec       q    Type
REMARK                         _______ _______ _______ _____ _____    ______ ____
ROOT
ATOM      1  C   UNL     1       7.083   5.890  17.741  0.00  0.00    +0.000 A 
ATOM      2  C   UNL     1       7.085   5.892  16.340  0.00  0.00    +0.000 A 
ATOM      3  C   UNL     1       6.158   5.133  15.620  0.00  0.00    +0.000 A 
ATOM      4  C   UNL     1       5.209   4.374  16.300  0.00  0.00    +0.000 A 
ATOM      5  C   UNL     1       5.211   4.363  17.699  0.00  0.00    +0.000 A 
ATOM      6  C   UNL     1       6.156   5.102  18.427  0.00  0.00    +0.000 A 
ENDROOT
BRANCH   1  10
ATOM      7  N   UNL     1       9.015   8.688  19.020  0.00  0.00    +0.000 N 
ATOM      8  C   UNL     1       8.060   8.069  18.230  0.00  0.00    +0.000 C 
ATOM      9  O   UNL     1       7.353   8.645  17.407  0.00  0.00    +0.000 OA
ATOM     10  N   UNL     1       7.983   6.702  18.476  0.00  0.00    +0.000 N 
ATOM     11  H   UNL     1       9.784   8.109  19.317  0.00  0.00    +0.000 HD
ATOM     12  H   UNL     1       8.134   6.454  19.444  0.00  0.00    +0.000 HD
BRANCH   7  16
ATOM     13  C   UNL     1       9.645  12.868  19.281  0.00  0.00    +0.000 A 
ATOM     14  C   UNL     1       9.529  12.263  18.031  0.00  0.00    +0.000 A 
ATOM     15  C   UNL     1       9.310  10.886  17.936  0.00  0.00    +0.000 A 
ATOM     16  C   UNL     1       9.198  10.094  19.084  0.00  0.00    +0.000 A 
ATOM     17  C   UNL     1       9.258  10.713  20.338  0.00  0.00    +0.000 A 
ATOM     18  C   UNL     1       9.498  12.093  20.438  0.00  0.00    +0.000 A 
BRANCH  13  20
ATOM     19  N   UNL     1       8.943  15.165  19.347  0.00  0.00    +0.000 NA
ATOM     20  C   UNL     1       9.926  14.329  19.361  0.00  0.00    +0.000 C 
ATOM     21  N   UNL     1      11.214  14.780  19.420  0.00  0.00    +0.000 N 
ATOM     22  H   UNL     1       9.292  16.120  19.437  0.00  0.00    +0.000 HD
ATOM     23  H   UNL     1      11.344  15.742  19.136  0.00  0.00    +0.000 HD
ATOM     24  H   UNL     1      11.902  14.173  18.983  0.00  0.00    +0.000 HD
ENDBRANCH  13  20
ENDBRANCH   7  16
ENDBRANCH   1  10
BRANCH   5  25
ATOM     25  S   UNL     1       3.882   3.536  18.547  0.00  0.00    +0.000 S 
ATOM     26  O   UNL     1       3.356   2.518  17.662  0.00  0.00    +0.000 OA
ATOM     27  O   UNL     1       4.346   3.229  19.880  0.00  0.00    +0.000 OA
BRANCH  25  28
ATOM     28  N   UNL     1       2.731   4.773  18.698  0.00  0.00    +0.000 NA
ATOM     29  H   UNL     1       1.817   4.387  18.932  0.00  0.00    +0.000 HD
BRANCH  28  30
ATOM     30  C   UNL     1       3.132   5.882  19.581  0.00  0.00    +0.000 C 
BRANCH  30  31
ATOM     31  C   UNL     1       2.478   7.185  19.229  0.00  0.00    +0.000 A 
ATOM     32  C   UNL     1       2.760   7.837  18.026  0.00  0.00    +0.000 A 
ATOM     33  F   UNL     1       3.577   7.267  17.130  0.00  0.00    +0.000 F 
ATOM     34  C   UNL     1       2.234   9.097  17.736  0.00  0.00    +0.000 A 
ATOM     35  C   UNL     1       1.401   9.729  18.659  0.00  0.00    +0.000 A 
ATOM     36  C   UNL     1       1.097   9.081  19.853  0.00  0.00    +0.000 A 
ATOM     37  F   UNL     1       0.302   9.689  20.743  0.00  0.00    +0.000 F 
ATOM     38  C   UNL     1       1.626   7.824  20.133  0.00  0.00    +0.000 A 
ATOM     39  F   UNL     1       1.334   7.225  21.297  0.00  0.00    +0.000 F 
ENDBRANCH  30  31
ENDBRANCH  28  30
ENDBRANCH  25  28
ENDBRANCH   5  25
TORSDOF 7
ENDMDL
MODEL 2
REMARK VINA RESULT:      -8.9      0.946      1.817
REMARK  Name = 
REMARK  7 active torsions:
REMARK  status: ('A' for Active; 'I' for Inactive)
REMARK    1  A    between atoms: C_2  and  C_4
REMARK    2  A    between atoms: C_7  and  N_8
REMARK    3  A    between atoms: N_11  and  C_12
REMARK    4  A    between atoms: C_16  and  S_17
REMARK    5  A    between atoms: S_17  and  N_20
REMARK    6  A    between atoms: N_20  and  C_21
REMARK    7  A    between atoms: C_21  and  C_22
REMARK                            x       y       z     vdW  Elec       q    Type
REMARK                         _______ _______ _______ _____ _____    ______ ____
ROOT
ATOM      1  C   UNL     1       7.281   6.166  18.100  0.00  0.00    +0.000 A 
ATOM      2  C   UNL     1       7.330   5.951  16.716  0.00  0.00    +0.000 A 
ATOM      3  C   UNL     1       6.372   5.157  16.080  0.00  0.00    +0.000 A 
ATOM      4  C   UNL     1       5.346   4.581  16.824  0.00  0.00    +0.000 A 
ATOM      5  C   UNL     1       5.301   4.786  18.208  0.00  0.00    +0.000 A 
ATOM      6  C   UNL     1       6.275   5.560  18.856  0.00  0.00    +0.000 A 
ENDROOT
BRANCH   1  10
ATOM      7  N   UNL     1       9.253   9.034  19.141  0.00  0.00    +0.000 N 
ATOM      8  C   UNL     1       8.258   8.373  18.439  0.00  0.00    +0.000 C 
ATOM      9  O   UNL     1       7.490   8.909  17.643  0.00  0.00    +0.000 OA
ATOM     10  N   UNL     1       8.216   7.017  18.743  0.00  0.00    +0.000 N 
ATOM     11  H   UNL     1      10.048   8.477  19.408  0.00  0.00    +0.000 HD
ATOM     12  H   UNL     1       8.433   6.809  19.708  0.00  0.00    +0.000 HD
BRANCH   7  16
ATOM     13  C   UNL     1       9.817  13.231  19.221  0.00  0.00    +0.000 A 
ATOM     14  C   UNL     1       9.996  12.532  18.028  0.00  0.00    +0.000 A 
ATOM     15  C   UNL     1       9.801  11.149  17.990  0.00  0.00    +0.000 A 
ATOM     16  C   UNL     1       9.420  10.443  19.137  0.00  0.00    +0.000 A 
ATOM     17  C   UNL     1       9.185  11.156  20.319  0.00  0.00    +0.000 A 
ATOM     18  C   UNL     1       9.399  12.543  20.367  0.00  0.00    +0.000 A 
BRANCH  13  20
ATOM     19  N   UNL     1      10.627  15.266  18.234  0.00  0.00    +0.000 NA
ATOM     20  C   UNL     1      10.075  14.698  19.252  0.00  0.00    +0.000 C 
ATOM     21  N   UNL     1       9.753  15.430  20.360  0.00  0.00    +0.000 N 
ATOM     22  H   UNL     1      10.710  16.271  18.394  0.00  0.00    +0.000 HD
ATOM     23  H   UNL     1      10.245  16.309  20.450  0.00  0.00    +0.000 HD
ATOM     24  H   UNL     1       9.765  14.913  21.235  0.00  0.00    +0.000 HD
ENDBRANCH  13  20
ENDBRANCH   7  16
ENDBRANCH   1  10
BRANCH   5  25
ATOM     25  S   UNL     1       3.885   4.196  19.111  0.00  0.00    +0.000 S 
ATOM     26  O   UNL     1       2.793   4.042  18.174  0.00  0.00    +0.000 OA
ATOM     27  O   UNL     1       4.332   3.110  19.952  0.00  0.00    +0.000 OA
BRANCH  25  28
ATOM     28  N   UNL     1       3.545   5.505  20.134  0.00  0.00    +0.000 NA
ATOM     29  H   UNL     1       4.164   6.290  19.932  0.00  0.00    +0.000 HD
BRANCH  28  30
ATOM     30  C   UNL     1       2.125   5.891  20.188  0.00  0.00    +0.000 C 
BRANCH  30  31
ATOM     31  C   UNL     1       1.893   7.342  19.888  0.00  0.00    +0.000 A 
ATOM     32  C   UNL     1       1.326   8.197  20.836  0.00  0.00    +0.000 A 
ATOM     33  F   UNL     1       1.041   7.742  22.064  0.00  0.00    +0.000 F 
ATOM     34  C   UNL     1       1.015   9.524  20.532  0.00  0.00    +0.000 A 
ATOM     35  C   UNL     1       1.275  10.020  19.256  0.00  0.00    +0.000 A 
ATOM     36  C   UNL     1       1.858   9.184  18.308  0.00  0.00    +0.000 A 
ATOM     37  F   UNL     1       2.103   9.658  17.080  0.00  0.00    +0.000 F 
ATOM     38  C   UNL     1       2.165   7.863  18.621  0.00  0.00    +0.000 A 
ATOM     39  F   UNL     1       2.710   7.068  17.688  0.00  0.00    +0.000 F 
ENDBRANCH  30  31
ENDBRANCH  28  30
ENDBRANCH  25  28
ENDBRANCH   5  25
TORSDOF 7
ENDMDL
MODEL 3
REMARK VINA RESULT:      -8.7      0.979      1.860
REMARK  Name = 
REMARK  7 active torsions:
REMARK  status: ('A' for Active; 'I' for Inactive)
REMARK    1  A    between atoms: C_2  and  C_4
REMARK    2  A    between atoms: C_7  and  N_8
REMARK    3  A    between atoms: N_11  and  C_12
REMARK    4  A    between atoms: C_16  and  S_17
REMARK    5  A    between atoms: S_17  and  N_20
REMARK    6  A    between atoms: N_20  and  C_21
REMARK    7  A    between atoms: C_21  and  C_22
REMARK                            x       y       z     vdW  Elec       q    Type
REMARK                         _______ _______ _______ _____ _____    ______ ____
ROOT
ATOM      1  C   UNL     1       7.333   5.974  18.052  0.00  0.00    +0.000 A 
ATOM      2  C   UNL     1       7.435   5.832  16.662  0.00  0.00    +0.000 A 
ATOM      3  C   UNL     1       6.624   4.927  15.971  0.00  0.00    +0.000 A 
ATOM      4  C   UNL     1       5.693   4.163  16.668  0.00  0.00    +0.000 A 
ATOM      5  C   UNL     1       5.596   4.294  18.058  0.00  0.00    +0.000 A 
ATOM      6  C   UNL     1       6.426   5.182  18.759  0.00  0.00    +0.000 A 
ENDROOT
BRANCH   1  10
ATOM      7  N   UNL     1       9.056   9.008  19.062  0.00  0.00    +0.000 N 
ATOM      8  C   UNL     1       8.233   8.229  18.266  0.00  0.00    +0.000 C 
ATOM      9  O   UNL     1       7.666   8.623  17.249  0.00  0.00    +0.000 OA
ATOM     10  N   UNL     1       8.111   6.931  18.750  0.00  0.00    +0.000 N 
ATOM     11  H   UNL     1       9.766   8.514  19.578  0.00  0.00    +0.000 HD
ATOM     12  H   UNL     1       8.108   6.873  19.760  0.00  0.00    +0.000 HD
BRANCH   7  16
ATOM     13  C   UNL     1       9.478  13.189  18.535  0.00  0.00    +0.000 A 
ATOM     14  C   UNL     1      10.204  12.541  19.534  0.00  0.00    +0.000 A 
ATOM     15  C   UNL     1      10.079  11.161  19.707  0.00  0.00    +0.000 A 
ATOM     16  C   UNL     1       9.235  10.405  18.886  0.00  0.00    +0.000 A 
ATOM     17  C   UNL     1       8.551  11.049  17.847  0.00  0.00    +0.000 A 
ATOM     18  C   UNL     1       8.659  12.440  17.682  0.00  0.00    +0.000 A 
BRANCH  13  20
ATOM     19  N   UNL     1       8.805  15.290  17.582  0.00  0.00    +0.000 NA
ATOM     20  C   UNL     1       9.590  14.668  18.396  0.00  0.00    +0.000 C 
ATOM     21  N   UNL     1      10.533  15.357  19.104  0.00  0.00    +0.000 N 
ATOM     22  H   UNL     1       8.982  16.295  17.620  0.00  0.00    +0.000 HD
ATOM     23  H   UNL     1      10.777  16.262  18.726  0.00  0.00    +0.000 HD
ATOM     24  H   UNL     1      11.365  14.823  19.343  0.00  0.00    +0.000 HD
ENDBRANCH  13  20
ENDBRANCH   7  16
ENDBRANCH   1  10
BRANCH   5  25
ATOM     25  S   UNL     1       4.279   3.448  18.905  0.00  0.00    +0.000 S 
ATOM     26  O   UNL     1       3.451   2.804  17.907  0.00  0.00    +0.000 OA
ATOM     27  O   UNL     1       4.872   2.713  19.998  0.00  0.00    +0.000 OA
BRANCH  25  28
ATOM     28  N   UNL     1       3.409   4.733  19.588  0.00  0.00    +0.000 NA
ATOM     29  H   UNL     1       4.024   5.326  20.146  0.00  0.00    +0.000 HD
BRANCH  28  30
ATOM     30  C   UNL     1       2.585   5.494  18.635  0.00  0.00    +0.000 C 
BRANCH  30  31
ATOM     31  C   UNL     1       2.178   6.843  19.148  0.00  0.00    +0.000 A 
ATOM     32  C   UNL     1       1.619   6.997  20.420  0.00  0.00    +0.000 A 
ATOM     33  F   UNL     1       1.501   5.939  21.232  0.00  0.00    +0.000 F 
ATOM     34  C   UNL     1       1.145   8.232  20.866  0.00  0.00    +0.000 A 
ATOM     35  C   UNL     1       1.230   9.348  20.034  0.00  0.00    +0.000 A 
ATOM     36  C   UNL     1       1.802   9.211  18.773  0.00  0.00    +0.000 A 
ATOM     37  F   UNL     1       1.879  10.280  17.970  0.00  0.00    +0.000 F 
ATOM     38  C   UNL     1       2.272   7.976  18.336  0.00  0.00    +0.000 A 
ATOM     39  F   UNL     1       2.804   7.862  17.110  0.00  0.00    +0.000 F 
ENDBRANCH  30  31
ENDBRANCH  28  30
ENDBRANCH  25  28
ENDBRANCH   5  25
TORSDOF 7
ENDMDL
MODEL 4
REMARK VINA RESULT:      -8.6      5.347      9.187
REMARK  Name = 
REMARK  7 active torsions:
REMARK  status: ('A' for Active; 'I' for Inactive)
REMARK    1  A    between atoms: C_2  and  C_4
REMARK    2  A    between atoms: C_7  and  N_8
REMARK    3  A    between atoms: N_11  and  C_12
REMARK    4  A    between atoms: C_16  and  S_17
REMARK    5  A    between atoms: S_17  and  N_20
REMARK    6  A    between atoms: N_20  and  C_21
REMARK    7  A    between atoms: C_21  and  C_22
REMARK                            x       y       z     vdW  Elec       q    Type
REMARK                         _______ _______ _______ _____ _____    ______ ____
ROOT
ATOM      1  C   UNL     1       1.594   9.413  19.692  0.00  0.00    +0.000 A 
ATOM      2  C   UNL     1       1.797   9.659  18.327  0.00  0.00    +0.000 A 
ATOM      3  C   UNL     1       2.185   8.631  17.463  0.00  0.00    +0.000 A 
ATOM      4  C   UNL     1       2.361   7.342  17.958  0.00  0.00    +0.000 A 
ATOM      5  C   UNL     1       2.169   7.096  19.322  0.00  0.00    +0.000 A 
ATOM      6  C   UNL     1       1.805   8.129  20.198  0.00  0.00    +0.000 A 
ENDROOT
BRANCH   1  10
ATOM      7  N   UNL     1      -0.461  11.736  21.584  0.00  0.00    +0.000 N 
ATOM      8  C   UNL     1      -0.216  10.679  20.723  0.00  0.00    +0.000 C 
ATOM      9  O   UNL     1      -1.088  10.017  20.162  0.00  0.00    +0.000 OA
ATOM     10  N   UNL     1       1.144  10.438  20.562  0.00  0.00    +0.000 N 
ATOM     11  H   UNL     1       0.260  12.436  21.638  0.00  0.00    +0.000 HD
ATOM     12  H   UNL     1       1.687  10.596  21.399  0.00  0.00    +0.000 HD
BRANCH   7  16
ATOM     13  C   UNL     1      -4.273  12.858  23.049  0.00  0.00    +0.000 A 
ATOM     14  C   UNL     1      -3.900  13.209  21.752  0.00  0.00    +0.000 A 
ATOM     15  C   UNL     1      -2.649  12.833  21.257  0.00  0.00    +0.000 A 
ATOM     16  C   UNL     1      -1.754  12.098  22.044  0.00  0.00    +0.000 A 
ATOM     17  C   UNL     1      -2.154  11.698  23.324  0.00  0.00    +0.000 A 
ATOM     18  C   UNL     1      -3.403  12.091  23.832  0.00  0.00    +0.000 A 
BRANCH  13  20
ATOM     19  N   UNL     1      -6.562  12.461  23.665  0.00  0.00    +0.000 NA
ATOM     20  C   UNL     1      -5.593  13.308  23.574  0.00  0.00    +0.000 C 
ATOM     21  N   UNL     1      -5.782  14.614  23.931  0.00  0.00    +0.000 N 
ATOM     22  H   UNL     1      -7.386  12.911  24.067  0.00  0.00    +0.000 HD
ATOM     23  H   UNL     1      -6.746  14.917  23.950  0.00  0.00    +0.000 HD
ATOM     24  H   UNL     1      -5.197  15.283  23.437  0.00  0.00    +0.000 HD
ENDBRANCH  13  20
ENDBRANCH   7  16
ENDBRANCH   1  10
BRANCH   5  25
ATOM     25  S   UNL     1       2.219   5.413  19.900  0.00  0.00    +0.000 S 
ATOM     26  O   UNL     1       1.578   5.370  21.197  0.00  0.00    +0.000 OA
ATOM     27  O   UNL     1       1.796   4.569  18.807  0.00  0.00    +0.000 OA
BRANCH  25  28
ATOM     28  N   UNL     1       3.883   5.156  20.107  0.00  0.00    +0.000 NA
ATOM     29  H   UNL     1       4.113   5.068  21.097  0.00  0.00    +0.000 HD
BRANCH  28  30
ATOM     30  C   UNL     1       4.444   4.071  19.285  0.00  0.00    +0.000 C 
BRANCH  30  31
ATOM     31  C   UNL     1       5.314   4.564  18.167  0.00  0.00    +0.000 A 
ATOM     32  C   UNL     1       6.515   5.231  18.422  0.00  0.00    +0.000 A 
ATOM     33  F   UNL     1       6.944   5.381  19.682  0.00  0.00    +0.000 F 
ATOM     34  C   UNL     1       7.280   5.781  17.391  0.00  0.00    +0.000 A 
ATOM     35  C   UNL     1       6.847   5.664  16.071  0.00  0.00    +0.000 A 
ATOM     36  C   UNL     1       5.663   4.985  15.802  0.00  0.00    +0.000 A 
ATOM     37  F   UNL     1       5.243   4.877  14.535  0.00  0.00    +0.000 F 
ATOM     38  C   UNL     1       4.907   4.440  16.837  0.00  0.00    +0.000 A 
ATOM     39  F   UNL     1       3.759   3.804  16.558  0.00  0.00    +0.000 F 
ENDBRANCH  30  31
ENDBRANCH  28  30
ENDBRANCH  25  28
ENDBRANCH   5  25
TORSDOF 7
ENDMDL
MODEL 5
REMARK VINA RESULT:      -8.6      5.198      8.818
REMARK  Name = 
REMARK  7 active torsions:
REMARK  status: ('A' for Active; 'I' for Inactive)
REMARK    1  A    between atoms: C_2  and  C_4
REMARK    2  A    between atoms: C_7  and  N_8
REMARK    3  A    between atoms: N_11  and  C_12
REMARK    4  A    between atoms: C_16  and  S_17
REMARK    5  A    between atoms: S_17  and  N_20
REMARK    6  A    between atoms: N_20  and  C_21
REMARK    7  A    between atoms: C_21  and  C_22
REMARK                            x       y       z     vdW  Elec       q    Type
REMARK                         _______ _______ _______ _____ _____    ______ ____
ROOT
ATOM      1  C   UNL     1       1.670   8.724  19.921  0.00  0.00    +0.000 A 
ATOM      2  C   UNL     1       1.866   9.101  18.585  0.00  0.00    +0.000 A 
ATOM      3  C   UNL     1       2.220   8.157  17.618  0.00  0.00    +0.000 A 
ATOM      4  C   UNL     1       2.368   6.821  17.977  0.00  0.00    +0.000 A 
ATOM      5  C   UNL     1       2.184   6.443  19.312  0.00  0.00    +0.000 A 
ATOM      6  C   UNL     1       1.854   7.391  20.293  0.00  0.00    +0.000 A 
ENDROOT
BRANCH   1  10
ATOM      7  N   UNL     1      -0.217  11.169  21.833  0.00  0.00    +0.000 N 
ATOM      8  C   UNL     1      -0.003  10.254  20.815  0.00  0.00    +0.000 C 
ATOM      9  O   UNL     1      -0.820   9.979  19.939  0.00  0.00    +0.000 OA
ATOM     10  N   UNL     1       1.254   9.666  20.895  0.00  0.00    +0.000 N 
ATOM     11  H   UNL     1       0.606  11.613  22.206  0.00  0.00    +0.000 HD
ATOM     12  H   UNL     1       1.572   9.513  21.842  0.00  0.00    +0.000 HD
BRANCH   7  16
ATOM     13  C   UNL     1      -3.898  13.091  22.665  0.00  0.00    +0.000 A 
ATOM     14  C   UNL     1      -3.285  13.277  21.426  0.00  0.00    +0.000 A 
ATOM     15  C   UNL     1      -2.077  12.638  21.140  0.00  0.00    +0.000 A 
ATOM     16  C   UNL     1      -1.464  11.801  22.079  0.00  0.00    +0.000 A 
ATOM     17  C   UNL     1      -2.110  11.571  23.299  0.00  0.00    +0.000 A 
ATOM     18  C   UNL     1      -3.316  12.227  23.599  0.00  0.00    +0.000 A 
BRANCH  13  20
ATOM     19  N   UNL     1      -6.101  13.857  22.083  0.00  0.00    +0.000 NA
ATOM     20  C   UNL     1      -5.163  13.818  22.969  0.00  0.00    +0.000 C 
ATOM     21  N   UNL     1      -5.316  14.462  24.164  0.00  0.00    +0.000 N 
ATOM     22  H   UNL     1      -6.909  14.363  22.448  0.00  0.00    +0.000 HD
ATOM     23  H   UNL     1      -6.018  15.189  24.172  0.00  0.00    +0.000 HD
ATOM     24  H   UNL     1      -4.452  14.782  24.594  0.00  0.00    +0.000 HD
ENDBRANCH  13  20
ENDBRANCH   7  16
ENDBRANCH   1  10
BRANCH   5  25
ATOM     25  S   UNL     1       2.197   4.709  19.717  0.00  0.00    +0.000 S 
ATOM     26  O   UNL     1       1.392   4.525  20.906  0.00  0.00    +0.000 OA
ATOM     27  O   UNL     1       1.941   3.980  18.497  0.00  0.00    +0.000 OA
BRANCH  25  28
ATOM     28  N   UNL     1       3.825   4.449  20.116  0.00  0.00    +0.000 NA
ATOM     29  H   UNL     1       3.905   4.025  21.041  0.00  0.00    +0.000 HD
BRANCH  28  30
ATOM     30  C   UNL     1       4.605   3.742  19.088  0.00  0.00    +0.000 C 
BRANCH  30  31
ATOM     31  C   UNL     1       5.387   4.663  18.199  0.00  0.00    +0.000 A 
ATOM     32  C   UNL     1       5.134   4.736  16.827  0.00  0.00    +0.000 A 
ATOM     33  F   UNL     1       4.132   4.026  16.292  0.00  0.00    +0.000 F 
ATOM     34  C   UNL     1       5.923   5.515  15.978  0.00  0.00    +0.000 A 
ATOM     35  C   UNL     1       6.989   6.245  16.500  0.00  0.00    +0.000 A 
ATOM     36  C   UNL     1       7.240   6.196  17.868  0.00  0.00    +0.000 A 
ATOM     37  F   UNL     1       8.267   6.893  18.371  0.00  0.00    +0.000 F 
ATOM     38  C   UNL     1       6.448   5.417  18.707  0.00  0.00    +0.000 A 
ATOM     39  F   UNL     1       6.717   5.370  20.021  0.00  0.00    +0.000 F 
ENDBRANCH  30  31
ENDBRANCH  28  30
ENDBRANCH  25  28
ENDBRANCH   5  25
TORSDOF 7
ENDMDL
MODEL 6
REMARK VINA RESULT:      -8.5      5.784      9.585
REMARK  Name = 
REMARK  7 active torsions:
REMARK  status: ('A' for Active; 'I' for Inactive)
REMARK    1  A    between atoms: C_2  and  C_4
REMARK    2  A    between atoms: C_7  and  N_8
REMARK    3  A    between atoms: N_11  and  C_12
REMARK    4  A    between atoms: C_16  and  S_17
REMARK    5  A    between atoms: S_17  and  N_20
REMARK    6  A    between atoms: N_20  and  C_21
REMARK    7  A    between atoms: C_21  and  C_22
REMARK                            x       y       z     vdW  Elec       q    Type
REMARK                         _______ _______ _______ _____ _____    ______ ____
ROOT
ATOM      1  C   UNL     1       0.793  10.603  18.379  0.00  0.00    +0.000 A 
ATOM      2  C   UNL     1      -0.599  10.581  18.219  0.00  0.00    +0.000 A 
ATOM      3  C   UNL     1      -1.402  11.581  18.775  0.00  0.00    +0.000 A 
ATOM      4  C   UNL     1      -0.814  12.623  19.487  0.00  0.00    +0.000 A 
ATOM      5  C   UNL     1       0.575  12.642  19.658  0.00  0.00    +0.000 A 
ATOM      6  C   UNL     1       1.383  11.626  19.125  0.00  0.00    +0.000 A 
ENDROOT
BRANCH   1  10
ATOM      7  N   UNL     1       2.794   7.646  17.714  0.00  0.00    +0.000 N 
ATOM      8  C   UNL     1       1.960   8.465  18.457  0.00  0.00    +0.000 C 
ATOM      9  O   UNL     1       1.558   8.211  19.590  0.00  0.00    +0.000 OA
ATOM     10  N   UNL     1       1.617   9.624  17.770  0.00  0.00    +0.000 N 
ATOM     11  H   UNL     1       3.376   8.109  17.035  0.00  0.00    +0.000 HD
ATOM     12  H   UNL     1       1.503   9.488  16.774  0.00  0.00    +0.000 HD
BRANCH   7  16
ATOM     13  C   UNL     1       3.882   3.701  18.806  0.00  0.00    +0.000 A 
ATOM     14  C   UNL     1       4.840   4.715  18.831  0.00  0.00    +0.000 A 
ATOM     15  C   UNL     1       4.486   6.021  18.484  0.00  0.00    +0.000 A 
ATOM     16  C   UNL     1       3.175   6.338  18.111  0.00  0.00    +0.000 A 
ATOM     17  C   UNL     1       2.204   5.330  18.141  0.00  0.00    +0.000 A 
ATOM     18  C   UNL     1       2.559   4.011  18.472  0.00  0.00    +0.000 A 
BRANCH  13  20
ATOM     19  N   UNL     1       4.998   2.084  20.191  0.00  0.00    +0.000 NA
ATOM     20  C   UNL     1       4.290   2.306  19.135  0.00  0.00    +0.000 C 
ATOM     21  N   UNL     1       3.939   1.275  18.311  0.00  0.00    +0.000 N 
ATOM     22  H   UNL     1       5.170   1.083  20.295  0.00  0.00    +0.000 HD
ATOM     23  H   UNL     1       4.509   0.444  18.398  0.00  0.00    +0.000 HD
ATOM     24  H   UNL     1       3.809   1.529  17.336  0.00  0.00    +0.000 HD
ENDBRANCH  13  20
ENDBRANCH   7  16
ENDBRANCH   1  10
BRANCH   5  25
ATOM     25  S   UNL     1       1.322  14.072  20.411  0.00  0.00    +0.000 S 
ATOM     26  O   UNL     1       2.228  13.609  21.440  0.00  0.00    +0.000 OA
ATOM     27  O   UNL     1       1.754  14.944  19.343  0.00  0.00    +0.000 OA
BRANCH  25  28
ATOM     28  N   UNL     1      -0.008  14.820  21.151  0.00  0.00    +0.000 NA
ATOM     29  H   UNL     1      -0.875  14.561  20.680  0.00  0.00    +0.000 HD
BRANCH  28  30
ATOM     30  C   UNL     1      -0.073  14.652  22.613  0.00  0.00    +0.000 C 
BRANCH  30  31
ATOM     31  C   UNL     1      -1.312  13.943  23.073  0.00  0.00    +0.000 A 
ATOM     32  C   UNL     1      -1.407  12.549  23.034  0.00  0.00    +0.000 A 
ATOM     33  F   UNL     1      -0.355  11.817  22.647  0.00  0.00    +0.000 F 
ATOM     34  C   UNL     1      -2.591  11.887  23.365  0.00  0.00    +0.000 A 
ATOM     35  C   UNL     1      -3.711  12.623  23.748  0.00  0.00    +0.000 A 
ATOM     36  C   UNL     1      -3.624  14.010  23.808  0.00  0.00    +0.000 A 
ATOM     37  F   UNL     1      -4.701  14.719  24.170  0.00  0.00    +0.000 F 
ATOM     38  C   UNL     1      -2.439  14.662  23.477  0.00  0.00    +0.000 A 
ATOM     39  F   UNL     1      -2.382  16.002  23.525  0.00  0.00    +0.000 F 
ENDBRANCH  30  31
ENDBRANCH  28  30
ENDBRANCH  25  28
ENDBRANCH   5  25
TORSDOF 7
ENDMDL
MODEL 7
REMARK VINA RESULT:      -8.5      1.047      1.732
REMARK  Name = 
REMARK  7 active torsions:
REMARK  status: ('A' for Active; 'I' for Inactive)
REMARK    1  A    between atoms: C_2  and  C_4
REMARK    2  A    between atoms: C_7  and  N_8
REMARK    3  A    between atoms: N_11  and  C_12
REMARK    4  A    between atoms: C_16  and  S_17
REMARK    5  A    between atoms: S_17  and  N_20
REMARK    6  A    between atoms: N_20  and  C_21
REMARK    7  A    between atoms: C_21  and  C_22
REMARK                            x       y       z     vdW  Elec       q    Type
REMARK                         _______ _______ _______ _____ _____    ______ ____
ROOT
ATOM      1  C   UNL     1       7.119   5.731  17.968  0.00  0.00    +0.000 A 
ATOM      2  C   UNL     1       7.416   5.216  16.699  0.00  0.00    +0.000 A 
ATOM      3  C   UNL     1       6.507   4.394  16.027  0.00  0.00    +0.000 A 
ATOM      4  C   UNL     1       5.283   4.091  16.616  0.00  0.00    +0.000 A 
ATOM      5  C   UNL     1       4.988   4.595  17.888  0.00  0.00    +0.000 A 
ATOM      6  C   UNL     1       5.908   5.399  18.578  0.00  0.00    +0.000 A 
ENDROOT
BRANCH   1  10
ATOM      7  N   UNL     1       8.999   8.654  19.024  0.00  0.00    +0.000 N 
ATOM      8  C   UNL     1       8.045   7.961  18.297  0.00  0.00    +0.000 C 
ATOM      9  O   UNL     1       7.302   8.466  17.458  0.00  0.00    +0.000 OA
ATOM     10  N   UNL     1       8.012   6.611  18.629  0.00  0.00    +0.000 N 
ATOM     11  H   UNL     1       9.791   8.116  19.337  0.00  0.00    +0.000 HD
ATOM     12  H   UNL     1       8.192   6.428  19.607  0.00  0.00    +0.000 HD
BRANCH   7  16
ATOM     13  C   UNL     1       9.522  12.857  19.002  0.00  0.00    +0.000 A 
ATOM     14  C   UNL     1       9.274  12.184  17.806  0.00  0.00    +0.000 A 
ATOM     15  C   UNL     1       9.088  10.800  17.806  0.00  0.00    +0.000 A 
ATOM     16  C   UNL     1       9.144  10.066  18.996  0.00  0.00    +0.000 A 
ATOM     17  C   UNL     1       9.336  10.750  20.202  0.00  0.00    +0.000 A 
ATOM     18  C   UNL     1       9.542  12.140  20.204  0.00  0.00    +0.000 A 
BRANCH  13  20
ATOM     19  N   UNL     1       9.224  15.075  19.878  0.00  0.00    +0.000 NA
ATOM     20  C   UNL     1       9.763  14.327  18.975  0.00  0.00    +0.000 C 
ATOM     21  N   UNL     1      10.526  14.881  17.986  0.00  0.00    +0.000 N 
ATOM     22  H   UNL     1       9.505  16.047  19.743  0.00  0.00    +0.000 HD
ATOM     23  H   UNL     1      10.374  15.868  17.831  0.00  0.00    +0.000 HD
ATOM     24  H   UNL     1      10.531  14.368  17.109  0.00  0.00    +0.000 HD
ENDBRANCH  13  20
ENDBRANCH   7  16
ENDBRANCH   1  10
BRANCH   5  25
ATOM     25  S   UNL     1       3.351   4.349  18.544  0.00  0.00    +0.000 S 
ATOM     26  O   UNL     1       2.443   4.199  17.427  0.00  0.00    +0.000 OA
ATOM     27  O   UNL     1       3.451   3.357  19.589  0.00  0.00    +0.000 OA
BRANCH  25  28
ATOM     28  N   UNL     1       3.043   5.835  19.301  0.00  0.00    +0.000 NA
ATOM     29  H   UNL     1       3.870   6.162  19.802  0.00  0.00    +0.000 HD
BRANCH  28  30
ATOM     30  C   UNL     1       2.457   6.862  18.424  0.00  0.00    +0.000 C 
BRANCH  30  31
ATOM     31  C   UNL     1       1.885   8.027  19.177  0.00  0.00    +0.000 A 
ATOM     32  C   UNL     1       1.460   7.897  20.501  0.00  0.00    +0.000 A 
ATOM     33  F   UNL     1       1.623   6.734  21.146  0.00  0.00    +0.000 F 
ATOM     34  C   UNL     1       0.835   8.947  21.176  0.00  0.00    +0.000 A 
ATOM     35  C   UNL     1       0.627  10.162  20.524  0.00  0.00    +0.000 A 
ATOM     36  C   UNL     1       1.063  10.310  19.211  0.00  0.00    +0.000 A 
ATOM     37  F   UNL     1       0.859  11.475  18.581  0.00  0.00    +0.000 F 
ATOM     38  C   UNL     1       1.686   9.257  18.547  0.00  0.00    +0.000 A 
ATOM     39  F   UNL     1       2.083   9.416  17.275  0.00  0.00    +0.000 F 
ENDBRANCH  30  31
ENDBRANCH  28  30
ENDBRANCH  25  28
ENDBRANCH   5  25
TORSDOF 7
ENDMDL
MODEL 8
REMARK VINA RESULT:      -8.5      5.254      7.573
REMARK  Name = 
REMARK  7 active torsions:
REMARK  status: ('A' for Active; 'I' for Inactive)
REMARK    1  A    between atoms: C_2  and  C_4
REMARK    2  A    between atoms: C_7  and  N_8
REMARK    3  A    between atoms: N_11  and  C_12
REMARK    4  A    between atoms: C_16  and  S_17
REMARK    5  A    between atoms: S_17  and  N_20
REMARK    6  A    between atoms: N_20  and  C_21
REMARK    7  A    between atoms: C_21  and  C_22
REMARK                            x       y       z     vdW  Elec       q    Type
REMARK                         _______ _______ _______ _____ _____    ______ ____
ROOT
ATOM      1  C   UNL     1       3.055   6.988  19.045  0.00  0.00    +0.000 A 
ATOM      2  C   UNL     1       2.843   7.593  17.799  0.00  0.00    +0.000 A 
ATOM      3  C   UNL     1       3.684   7.322  16.717  0.00  0.00    +0.000 A 
ATOM      4  C   UNL     1       4.741   6.429  16.870  0.00  0.00    +0.000 A 
ATOM      5  C   UNL     1       4.962   5.831  18.116  0.00  0.00    +0.000 A 
ATOM      6  C   UNL     1       4.136   6.121  19.213  0.00  0.00    +0.000 A 
ENDROOT
BRANCH   1  10
ATOM      7  N   UNL     1       0.763   8.496  21.427  0.00  0.00    +0.000 N 
ATOM      8  C   UNL     1       1.565   8.455  20.298  0.00  0.00    +0.000 C 
ATOM      9  O   UNL     1       1.728   9.394  19.522  0.00  0.00    +0.000 OA
ATOM     10  N   UNL     1       2.171   7.215  20.130  0.00  0.00    +0.000 N 
ATOM     11  H   UNL     1       1.024   7.874  22.175  0.00  0.00    +0.000 HD
ATOM     12  H   UNL     1       1.592   6.438  20.417  0.00  0.00    +0.000 HD
BRANCH   7  16
ATOM     13  C   UNL     1      -1.842  11.713  22.319  0.00  0.00    +0.000 A 
ATOM     14  C   UNL     1      -1.406  10.872  23.342  0.00  0.00    +0.000 A 
ATOM     15  C   UNL     1      -0.538   9.816  23.058  0.00  0.00    +0.000 A 
ATOM     16  C   UNL     1      -0.087   9.584  21.754  0.00  0.00    +0.000 A 
ATOM     17  C   UNL     1      -0.481  10.464  20.738  0.00  0.00    +0.000 A 
ATOM     18  C   UNL     1      -1.370  11.516  21.016  0.00  0.00    +0.000 A 
BRANCH  13  20
ATOM     19  N   UNL     1      -2.475  14.030  22.396  0.00  0.00    +0.000 NA
ATOM     20  C   UNL     1      -2.805  12.806  22.634  0.00  0.00    +0.000 C 
ATOM     21  N   UNL     1      -4.016  12.515  23.196  0.00  0.00    +0.000 N 
ATOM     22  H   UNL     1      -3.246  14.655  22.636  0.00  0.00    +0.000 HD
ATOM     23  H   UNL     1      -4.459  13.284  23.681  0.00  0.00    +0.000 HD
ATOM     24  H   UNL     1      -4.037  11.667  23.757  0.00  0.00    +0.000 HD
ENDBRANCH  13  20
ENDBRANCH   7  16
ENDBRANCH   1  10
BRANCH   5  25
ATOM     25  S   UNL     1       6.201   4.559  18.244  0.00  0.00    +0.000 S 
ATOM     26  O   UNL     1       6.268   3.875  16.970  0.00  0.00    +0.000 OA
ATOM     27  O   UNL     1       7.366   5.152  18.858  0.00  0.00    +0.000 OA
BRANCH  25  28
ATOM     28  N   UNL     1       5.518   3.511  19.390  0.00  0.00    +0.000 NA
ATOM     29  H   UNL     1       5.094   4.039  20.153  0.00  0.00    +0.000 HD
BRANCH  28  30
ATOM     30  C   UNL     1       4.621   2.487  18.829  0.00  0.00    +0.000 C 
BRANCH  30  31
ATOM     31  C   UNL     1       3.176   2.722  19.156  0.00  0.00    +0.000 A 
ATOM     32  C   UNL     1       2.280   3.186  18.189  0.00  0.00    +0.000 A 
ATOM     33  F   UNL     1       2.690   3.364  16.926  0.00  0.00    +0.000 F 
ATOM     34  C   UNL     1       0.958   3.503  18.508  0.00  0.00    +0.000 A 
ATOM     35  C   UNL     1       0.508   3.354  19.819  0.00  0.00    +0.000 A 
ATOM     36  C   UNL     1       1.385   2.875  20.787  0.00  0.00    +0.000 A 
ATOM     37  F   UNL     1       0.957   2.737  22.048  0.00  0.00    +0.000 F 
ATOM     38  C   UNL     1       2.702   2.561  20.459  0.00  0.00    +0.000 A 
ATOM     39  F   UNL     1       3.536   2.117  21.412  0.00  0.00    +0.000 F 
ENDBRANCH  30  31
ENDBRANCH  28  30
ENDBRANCH  25  28
ENDBRANCH   5  25
TORSDOF 7
ENDMDL
MODEL 9
REMARK VINA RESULT:      -8.5      5.681      9.447
REMARK  Name = 
REMARK  7 active torsions:
REMARK  status: ('A' for Active; 'I' for Inactive)
REMARK    1  A    between atoms: C_2  and  C_4
REMARK    2  A    between atoms: C_7  and  N_8
REMARK    3  A    between atoms: N_11  and  C_12
REMARK    4  A    between atoms: C_16  and  S_17
REMARK    5  A    between atoms: S_17  and  N_20
REMARK    6  A    between atoms: N_20  and  C_21
REMARK    7  A    between atoms: C_21  and  C_22
REMARK                            x       y       z     vdW  Elec       q    Type
REMARK                         _______ _______ _______ _____ _____    ______ ____
ROOT
ATOM      1  C   UNL     1       1.017  10.224  18.353  0.00  0.00    +0.000 A 
ATOM      2  C   UNL     1      -0.375  10.127  18.222  0.00  0.00    +0.000 A 
ATOM      3  C   UNL     1      -1.217  11.100  18.768  0.00  0.00    +0.000 A 
ATOM      4  C   UNL     1      -0.669  12.188  19.442  0.00  0.00    +0.000 A 
ATOM      5  C   UNL     1       0.720  12.282  19.585  0.00  0.00    +0.000 A 
ATOM      6  C   UNL     1       1.568  11.294  19.061  0.00  0.00    +0.000 A 
ENDROOT
BRANCH   1  10
ATOM      7  N   UNL     1       3.049   7.290  17.675  0.00  0.00    +0.000 N 
ATOM      8  C   UNL     1       2.168   8.076  18.399  0.00  0.00    +0.000 C 
ATOM      9  O   UNL     1       1.686   7.766  19.487  0.00  0.00    +0.000 OA
ATOM     10  N   UNL     1       1.878   9.272  17.752  0.00  0.00    +0.000 N 
ATOM     11  H   UNL     1       3.678   7.784  17.063  0.00  0.00    +0.000 HD
ATOM     12  H   UNL     1       1.834   9.189  16.746  0.00  0.00    +0.000 HD
BRANCH   7  16
ATOM     13  C   UNL     1       4.132   3.360  18.820  0.00  0.00    +0.000 A 
ATOM     14  C   UNL     1       2.831   3.621  18.391  0.00  0.00    +0.000 A 
ATOM     15  C   UNL     1       2.469   4.913  18.001  0.00  0.00    +0.000 A 
ATOM     16  C   UNL     1       3.396   5.960  18.027  0.00  0.00    +0.000 A 
ATOM     17  C   UNL     1       4.716   5.683  18.404  0.00  0.00    +0.000 A 
ATOM     18  C   UNL     1       5.079   4.390  18.816  0.00  0.00    +0.000 A 
BRANCH  13  20
ATOM     19  N   UNL     1       4.171   0.973  18.543  0.00  0.00    +0.000 NA
ATOM     20  C   UNL     1       4.486   1.986  19.277  0.00  0.00    +0.000 C 
ATOM     21  N   UNL     1       5.114   1.800  20.476  0.00  0.00    +0.000 N 
ATOM     22  H   UNL     1       4.504   0.109  18.974  0.00  0.00    +0.000 HD
ATOM     23  H   UNL     1       5.020   0.874  20.869  0.00  0.00    +0.000 HD
ATOM     24  H   UNL     1       4.927   2.515  21.174  0.00  0.00    +0.000 HD
ENDBRANCH  13  20
ENDBRANCH   7  16
ENDBRANCH   1  10
BRANCH   5  25
ATOM     25  S   UNL     1       1.407  13.767  20.286  0.00  0.00    +0.000 S 
ATOM     26  O   UNL     1       2.305  13.379  21.353  0.00  0.00    +0.000 OA
ATOM     27  O   UNL     1       1.835  14.603  19.189  0.00  0.00    +0.000 OA
BRANCH  25  28
ATOM     28  N   UNL     1       0.040  14.505  20.966  0.00  0.00    +0.000 NA
ATOM     29  H   UNL     1      -0.813  14.152  20.532  0.00  0.00    +0.000 HD
BRANCH  28  30
ATOM     30  C   UNL     1      -0.007  14.477  22.437  0.00  0.00    +0.000 C 
BRANCH  30  31
ATOM     31  C   UNL     1      -1.230  13.798  22.978  0.00  0.00    +0.000 A 
ATOM     32  C   UNL     1      -1.335  12.405  23.004  0.00  0.00    +0.000 A 
ATOM     33  F   UNL     1      -0.304  11.648  22.604  0.00  0.00    +0.000 F 
ATOM     34  C   UNL     1      -2.508  11.767  23.411  0.00  0.00    +0.000 A 
ATOM     35  C   UNL     1      -3.607  12.527  23.808  0.00  0.00    +0.000 A 
ATOM     36  C   UNL     1      -3.509  13.914  23.805  0.00  0.00    +0.000 A 
ATOM     37  F   UNL     1      -4.566  14.646  24.181  0.00  0.00    +0.000 F 
ATOM     38  C   UNL     1      -2.335  14.542  23.398  0.00  0.00    +0.000 A 
ATOM     39  F   UNL     1      -2.267  15.882  23.386  0.00  0.00    +0.000 F 
ENDBRANCH  30  31
ENDBRANCH  28  30
ENDBRANCH  25  28
ENDBRANCH   5  25
TORSDOF 7
ENDMDL
