MODEL 1
REMARK VINA RESULT:      -7.8      0.000      0.000
REMARK  Name = 
REMARK  4 active torsions:
REMARK  status: ('A' for Active; 'I' for Inactive)
REMARK    1  A    between atoms: C_1  and  O_2
REMARK    2  A    between atoms: O_2  and  C_3
REMARK    3  A    between atoms: C_5  and  C_6
REMARK    4  A    between atoms: C_20  and  C_22
REMARK                            x       y       z     vdW  Elec       q    Type
REMARK                         _______ _______ _______ _____ _____    ______ ____
ROOT
ATOM      1  C   UNL     1       4.338   6.740  17.504  0.00  0.00    +0.000 A 
ATOM      2  C   UNL     1       4.889   6.408  16.258  0.00  0.00    +0.000 A 
ATOM      3  C   UNL     1       5.505   5.170  16.015  0.00  0.00    +0.000 A 
ATOM      4  C   UNL     1       5.506   4.240  17.071  0.00  0.00    +0.000 A 
ATOM      5  C   UNL     1       4.936   4.527  18.328  0.00  0.00    +0.000 A 
ATOM      6  C   UNL     1       4.362   5.796  18.539  0.00  0.00    +0.000 A 
ATOM      7  O   UNL     1       3.863   6.128  19.771  0.00  0.00    +0.000 OA
ATOM      8  C   UNL     1       2.678   5.383  20.090  0.00  0.00    +0.000 C 
ATOM      9  C   UNL     1       3.055   4.098  20.823  0.00  0.00    +0.000 C 
ATOM     10  N   UNL     1       3.644   3.127  19.898  0.00  0.00    +0.000 N 
ATOM     11  C   UNL     1       2.920   2.146  19.222  0.00  0.00    +0.000 C 
ATOM     12  O   UNL     1       3.425   1.398  18.391  0.00  0.00    +0.000 OA
ATOM     13  C   UNL     1       4.977   3.465  19.405  0.00  0.00    +0.000 C 
ENDROOT
BRANCH   3  14
ATOM     14  C   UNL     1       6.111   4.839  14.706  0.00  0.00    +0.000 A 
ATOM     15  C   UNL     1       5.577   3.901  13.843  0.00  0.00    +0.000 A 
ATOM     16  C   UNL     1       6.268   3.682  12.676  0.00  0.00    +0.000 A 
ATOM     17  N   UNL     1       7.400   4.328  12.353  0.00  0.00    +0.000 NA
ATOM     18  C   UNL     1       7.827   5.241  13.228  0.00  0.00    +0.000 A 
ATOM     19  N   UNL     1       8.994   5.912  12.929  0.00  0.00    +0.000 N 
ATOM     20  N   UNL     1       7.240   5.516  14.394  0.00  0.00    +0.000 NA
ATOM     21  H   UNL     1       9.554   5.347  12.307  0.00  0.00    +0.000 HD
ATOM     22  H   UNL     1       9.427   6.224  13.787  0.00  0.00    +0.000 HD
ENDBRANCH   3  14
BRANCH  11  23
ATOM     23  C   UNL     1       1.467   1.996  19.554  0.00  0.00    +0.000 C 
ATOM     24  C   UNL     1       0.443   3.006  19.092  0.00  0.00    +0.000 C 
ATOM     25  C   UNL     1       0.495   1.649  18.453  0.00  0.00    +0.000 C 
ENDBRANCH  11  23
BRANCH   1  27
ATOM     26  C   UNL     1       2.336   8.032  17.659  0.00  0.00    +0.000 C 
ATOM     27  O   UNL     1       3.748   7.977  17.513  0.00  0.00    +0.000 OA
ENDBRANCH   1  27
TORSDOF 3
ENDMDL
MODEL 2
REMARK VINA RESULT:      -7.7      3.820      5.807
REMARK  Name = 
REMARK  4 active torsions:
REMARK  status: ('A' for Active; 'I' for Inactive)
REMARK    1  A    between atoms: C_1  and  O_2
REMARK    2  A    between atoms: O_2  and  C_3
REMARK    3  A    between atoms: C_5  and  C_6
REMARK    4  A    between atoms: C_20  and  C_22
REMARK                            x       y       z     vdW  Elec       q    Type
REMARK                         _______ _______ _______ _____ _____    ______ ____
ROOT
ATOM      1  C   UNL     1       4.525   6.362  17.482  0.00  0.00    +0.000 A 
ATOM      2  C   UNL     1       3.994   7.604  17.858  0.00  0.00    +0.000 A 
ATOM      3  C   UNL     1       2.620   7.799  18.074  0.00  0.00    +0.000 A 
ATOM      4  C   UNL     1       1.788   6.673  17.946  0.00  0.00    +0.000 A 
ATOM      5  C   UNL     1       2.289   5.402  17.598  0.00  0.00    +0.000 A 
ATOM      6  C   UNL     1       3.670   5.260  17.353  0.00  0.00    +0.000 A 
ATOM      7  O   UNL     1       4.175   4.053  16.946  0.00  0.00    +0.000 OA
ATOM      8  C   UNL     1       4.115   3.066  17.987  0.00  0.00    +0.000 C 
ATOM      9  C   UNL     1       2.796   2.303  17.903  0.00  0.00    +0.000 C 
ATOM     10  N   UNL     1       1.685   3.135  18.369  0.00  0.00    +0.000 N 
ATOM     11  C   UNL     1       1.215   3.157  19.682  0.00  0.00    +0.000 C 
ATOM     12  O   UNL     1       0.337   3.924  20.063  0.00  0.00    +0.000 OA
ATOM     13  C   UNL     1       1.323   4.242  17.488  0.00  0.00    +0.000 C 
ENDROOT
BRANCH   3  14
ATOM     14  C   UNL     1       2.065   9.122  18.441  0.00  0.00    +0.000 A 
ATOM     15  C   UNL     1       1.106   9.291  19.422  0.00  0.00    +0.000 A 
ATOM     16  C   UNL     1       0.667  10.575  19.630  0.00  0.00    +0.000 A 
ATOM     17  N   UNL     1       1.122  11.635  18.943  0.00  0.00    +0.000 NA
ATOM     18  C   UNL     1       2.071  11.386  18.038  0.00  0.00    +0.000 A 
ATOM     19  N   UNL     1       2.550  12.453  17.307  0.00  0.00    +0.000 N 
ATOM     20  N   UNL     1       2.552  10.175  17.748  0.00  0.00    +0.000 NA
ATOM     21  H   UNL     1       1.850  13.180  17.280  0.00  0.00    +0.000 HD
ATOM     22  H   UNL     1       2.904  12.118  16.421  0.00  0.00    +0.000 HD
ENDBRANCH   3  14
BRANCH  11  23
ATOM     23  C   UNL     1       1.804   2.178  20.651  0.00  0.00    +0.000 C 
ATOM     24  C   UNL     1       2.950   2.558  21.559  0.00  0.00    +0.000 C 
ATOM     25  C   UNL     1       1.573   2.380  22.129  0.00  0.00    +0.000 C 
ENDBRANCH  11  23
BRANCH   1  27
ATOM     26  C   UNL     1       6.650   5.862  18.449  0.00  0.00    +0.000 C 
ATOM     27  O   UNL     1       5.891   6.379  17.366  0.00  0.00    +0.000 OA
ENDBRANCH   1  27
TORSDOF 3
ENDMDL
MODEL 3
REMARK VINA RESULT:      -7.2      0.844      1.409
REMARK  Name = 
REMARK  4 active torsions:
REMARK  status: ('A' for Active; 'I' for Inactive)
REMARK    1  A    between atoms: C_1  and  O_2
REMARK    2  A    between atoms: O_2  and  C_3
REMARK    3  A    between atoms: C_5  and  C_6
REMARK    4  A    between atoms: C_20  and  C_22
REMARK                            x       y       z     vdW  Elec       q    Type
REMARK                         _______ _______ _______ _____ _____    ______ ____
ROOT
ATOM      1  C   UNL     1       4.454   6.729  17.346  0.00  0.00    +0.000 A 
ATOM      2  C   UNL     1       4.966   6.373  16.091  0.00  0.00    +0.000 A 
ATOM      3  C   UNL     1       5.550   5.119  15.846  0.00  0.00    +0.000 A 
ATOM      4  C   UNL     1       5.558   4.201  16.910  0.00  0.00    +0.000 A 
ATOM      5  C   UNL     1       5.026   4.512  18.178  0.00  0.00    +0.000 A 
ATOM      6  C   UNL     1       4.484   5.795  18.390  0.00  0.00    +0.000 A 
ATOM      7  O   UNL     1       4.023   6.150  19.631  0.00  0.00    +0.000 OA
ATOM      8  C   UNL     1       2.831   5.434  19.987  0.00  0.00    +0.000 C 
ATOM      9  C   UNL     1       3.199   4.149  20.724  0.00  0.00    +0.000 C 
ATOM     10  N   UNL     1       3.745   3.156  19.796  0.00  0.00    +0.000 N 
ATOM     11  C   UNL     1       2.984   2.183  19.148  0.00  0.00    +0.000 C 
ATOM     12  O   UNL     1       3.453   1.417  18.313  0.00  0.00    +0.000 OA
ATOM     13  C   UNL     1       5.071   3.461  19.266  0.00  0.00    +0.000 C 
ENDROOT
BRANCH   3  14
ATOM     14  C   UNL     1       6.116   4.763  14.525  0.00  0.00    +0.000 A 
ATOM     15  C   UNL     1       7.327   5.248  14.068  0.00  0.00    +0.000 A 
ATOM     16  C   UNL     1       7.706   4.851  12.809  0.00  0.00    +0.000 A 
ATOM     17  N   UNL     1       6.973   4.033  12.037  0.00  0.00    +0.000 NA
ATOM     18  C   UNL     1       5.834   3.585  12.570  0.00  0.00    +0.000 A 
ATOM     19  N   UNL     1       5.053   2.753  11.795  0.00  0.00    +0.000 N 
ATOM     20  N   UNL     1       5.368   3.924  13.773  0.00  0.00    +0.000 NA
ATOM     21  H   UNL     1       5.251   2.922  10.820  0.00  0.00    +0.000 HD
ATOM     22  H   UNL     1       4.090   2.830  12.093  0.00  0.00    +0.000 HD
ENDBRANCH   3  14
BRANCH  11  23
ATOM     23  C   UNL     1       1.537   2.068  19.518  0.00  0.00    +0.000 C 
ATOM     24  C   UNL     1       0.526   3.106  19.090  0.00  0.00    +0.000 C 
ATOM     25  C   UNL     1       0.528   1.753  18.441  0.00  0.00    +0.000 C 
ENDBRANCH  11  23
BRANCH   1  27
ATOM     26  C   UNL     1       2.485   8.065  17.549  0.00  0.00    +0.000 C 
ATOM     27  O   UNL     1       3.889   7.978  17.357  0.00  0.00    +0.000 OA
ENDBRANCH   1  27
TORSDOF 3
ENDMDL
MODEL 4
REMARK VINA RESULT:      -7.2      3.870      6.125
REMARK  Name = 
REMARK  4 active torsions:
REMARK  status: ('A' for Active; 'I' for Inactive)
REMARK    1  A    between atoms: C_1  and  O_2
REMARK    2  A    between atoms: O_2  and  C_3
REMARK    3  A    between atoms: C_5  and  C_6
REMARK    4  A    between atoms: C_20  and  C_22
REMARK                            x       y       z     vdW  Elec       q    Type
REMARK                         _______ _______ _______ _____ _____    ______ ____
ROOT
ATOM      1  C   UNL     1       4.491   6.375  17.508  0.00  0.00    +0.000 A 
ATOM      2  C   UNL     1       3.957   7.609  17.904  0.00  0.00    +0.000 A 
ATOM      3  C   UNL     1       2.584   7.794  18.133  0.00  0.00    +0.000 A 
ATOM      4  C   UNL     1       1.757   6.665  17.998  0.00  0.00    +0.000 A 
ATOM      5  C   UNL     1       2.261   5.401  17.631  0.00  0.00    +0.000 A 
ATOM      6  C   UNL     1       3.640   5.270  17.373  0.00  0.00    +0.000 A 
ATOM      7  O   UNL     1       4.148   4.071  16.947  0.00  0.00    +0.000 OA
ATOM      8  C   UNL     1       4.102   3.070  17.975  0.00  0.00    +0.000 C 
ATOM      9  C   UNL     1       2.786   2.302  17.893  0.00  0.00    +0.000 C 
ATOM     10  N   UNL     1       1.674   3.122  18.378  0.00  0.00    +0.000 N 
ATOM     11  C   UNL     1       1.215   3.126  19.695  0.00  0.00    +0.000 C 
ATOM     12  O   UNL     1       0.336   3.883  20.093  0.00  0.00    +0.000 OA
ATOM     13  C   UNL     1       1.300   4.239  17.514  0.00  0.00    +0.000 C 
ENDROOT
BRANCH   3  14
ATOM     14  C   UNL     1       2.025   9.109  18.521  0.00  0.00    +0.000 A 
ATOM     15  C   UNL     1       2.319  10.281  17.849  0.00  0.00    +0.000 A 
ATOM     16  C   UNL     1       1.747  11.427  18.346  0.00  0.00    +0.000 A 
ATOM     17  N   UNL     1       0.938  11.449  19.417  0.00  0.00    +0.000 NA
ATOM     18  C   UNL     1       0.681  10.268  19.984  0.00  0.00    +0.000 A 
ATOM     19  N   UNL     1      -0.137  10.260  21.094  0.00  0.00    +0.000 N 
ATOM     20  N   UNL     1       1.199   9.103  19.591  0.00  0.00    +0.000 NA
ATOM     21  H   UNL     1      -0.098  11.163  21.544  0.00  0.00    +0.000 HD
ATOM     22  H   UNL     1       0.080   9.451  21.660  0.00  0.00    +0.000 HD
ENDBRANCH   3  14
BRANCH  11  23
ATOM     23  C   UNL     1       1.817   2.138  20.647  0.00  0.00    +0.000 C 
ATOM     24  C   UNL     1       2.973   2.510  21.546  0.00  0.00    +0.000 C 
ATOM     25  C   UNL     1       1.603   2.323  22.129  0.00  0.00    +0.000 C 
ENDBRANCH  11  23
BRANCH   1  27
ATOM     26  C   UNL     1       6.627   5.882  18.455  0.00  0.00    +0.000 C 
ATOM     27  O   UNL     1       5.856   6.400  17.381  0.00  0.00    +0.000 OA
ENDBRANCH   1  27
TORSDOF 3
ENDMDL
MODEL 5
REMARK VINA RESULT:      -6.9      3.182      6.930
REMARK  Name = 
REMARK  4 active torsions:
REMARK  status: ('A' for Active; 'I' for Inactive)
REMARK    1  A    between atoms: C_1  and  O_2
REMARK    2  A    between atoms: O_2  and  C_3
REMARK    3  A    between atoms: C_5  and  C_6
REMARK    4  A    between atoms: C_20  and  C_22
REMARK                            x       y       z     vdW  Elec       q    Type
REMARK                         _______ _______ _______ _____ _____    ______ ____
ROOT
ATOM      1  C   UNL     1       3.323   5.229  19.891  0.00  0.00    +0.000 A 
ATOM      2  C   UNL     1       2.380   6.262  19.793  0.00  0.00    +0.000 A 
ATOM      3  C   UNL     1       2.599   7.406  19.009  0.00  0.00    +0.000 A 
ATOM      4  C   UNL     1       3.797   7.456  18.273  0.00  0.00    +0.000 A 
ATOM      5  C   UNL     1       4.756   6.423  18.324  0.00  0.00    +0.000 A 
ATOM      6  C   UNL     1       4.511   5.311  19.154  0.00  0.00    +0.000 A 
ATOM      7  O   UNL     1       5.455   4.325  19.277  0.00  0.00    +0.000 OA
ATOM      8  C   UNL     1       5.602   3.567  18.067  0.00  0.00    +0.000 C 
ATOM      9  C   UNL     1       6.680   4.197  17.188  0.00  0.00    +0.000 C 
ATOM     10  N   UNL     1       6.193   5.435  16.577  0.00  0.00    +0.000 N 
ATOM     11  C   UNL     1       5.587   5.508  15.323  0.00  0.00    +0.000 C 
ATOM     12  O   UNL     1       5.114   6.545  14.870  0.00  0.00    +0.000 OA
ATOM     13  C   UNL     1       6.015   6.556  17.496  0.00  0.00    +0.000 C 
ENDROOT
BRANCH   3  14
ATOM     14  C   UNL     1       1.612   8.507  18.935  0.00  0.00    +0.000 A 
ATOM     15  C   UNL     1       1.234   9.103  17.746  0.00  0.00    +0.000 A 
ATOM     16  C   UNL     1       0.329  10.131  17.841  0.00  0.00    +0.000 A 
ATOM     17  N   UNL     1      -0.188  10.559  19.003  0.00  0.00    +0.000 NA
ATOM     18  C   UNL     1       0.205   9.905  20.098  0.00  0.00    +0.000 A 
ATOM     19  N   UNL     1      -0.300  10.330  21.309  0.00  0.00    +0.000 N 
ATOM     20  N   UNL     1       1.091   8.907  20.116  0.00  0.00    +0.000 NA
ATOM     21  H   UNL     1      -0.572  11.300  21.236  0.00  0.00    +0.000 HD
ATOM     22  H   UNL     1       0.349  10.085  22.044  0.00  0.00    +0.000 HD
ENDBRANCH   3  14
BRANCH  11  23
ATOM     23  C   UNL     1       5.539   4.259  14.497  0.00  0.00    +0.000 C 
ATOM     24  C   UNL     1       5.207   4.298  13.024  0.00  0.00    +0.000 C 
ATOM     25  C   UNL     1       6.614   4.021  13.465  0.00  0.00    +0.000 C 
ENDBRANCH  11  23
BRANCH   1  27
ATOM     26  C   UNL     1       1.491   3.992  20.795  0.00  0.00    +0.000 C 
ATOM     27  O   UNL     1       2.892   4.187  20.672  0.00  0.00    +0.000 OA
ENDBRANCH   1  27
TORSDOF 3
ENDMDL
MODEL 6
REMARK VINA RESULT:      -6.9      3.498      7.058
REMARK  Name = 
REMARK  4 active torsions:
REMARK  status: ('A' for Active; 'I' for Inactive)
REMARK    1  A    between atoms: C_1  and  O_2
REMARK    2  A    between atoms: O_2  and  C_3
REMARK    3  A    between atoms: C_5  and  C_6
REMARK    4  A    between atoms: C_20  and  C_22
REMARK                            x       y       z     vdW  Elec       q    Type
REMARK                         _______ _______ _______ _____ _____    ______ ____
ROOT
ATOM      1  C   UNL     1       1.884   4.493  20.292  0.00  0.00    +0.000 A 
ATOM      2  C   UNL     1       1.288   5.752  20.450  0.00  0.00    +0.000 A 
ATOM      3  C   UNL     1       1.975   6.947  20.181  0.00  0.00    +0.000 A 
ATOM      4  C   UNL     1       3.287   6.831  19.690  0.00  0.00    +0.000 A 
ATOM      5  C   UNL     1       3.910   5.582  19.490  0.00  0.00    +0.000 A 
ATOM      6  C   UNL     1       3.196   4.410  19.809  0.00  0.00    +0.000 A 
ATOM      7  O   UNL     1       3.799   3.185  19.690  0.00  0.00    +0.000 OA
ATOM      8  C   UNL     1       4.039   2.834  18.320  0.00  0.00    +0.000 C 
ATOM      9  C   UNL     1       5.422   3.321  17.893  0.00  0.00    +0.000 C 
ATOM     10  N   UNL     1       5.429   4.775  17.719  0.00  0.00    +0.000 N 
ATOM     11  C   UNL     1       5.185   5.423  16.509  0.00  0.00    +0.000 C 
ATOM     12  O   UNL     1       5.116   6.644  16.409  0.00  0.00    +0.000 OA
ATOM     13  C   UNL     1       5.324   5.551  18.952  0.00  0.00    +0.000 C 
ENDROOT
BRANCH   3  14
ATOM     14  C   UNL     1       1.348   8.273  20.381  0.00  0.00    +0.000 A 
ATOM     15  C   UNL     1       0.854   8.697  21.601  0.00  0.00    +0.000 A 
ATOM     16  C   UNL     1       0.273   9.942  21.623  0.00  0.00    +0.000 A 
ATOM     17  N   UNL     1       0.178  10.735  20.544  0.00  0.00    +0.000 NA
ATOM     18  C   UNL     1       0.710  10.261  19.416  0.00  0.00    +0.000 A 
ATOM     19  N   UNL     1       0.616  11.048  18.287  0.00  0.00    +0.000 N 
ATOM     20  N   UNL     1       1.279   9.061  19.284  0.00  0.00    +0.000 NA
ATOM     21  H   UNL     1      -0.173  11.672  18.380  0.00  0.00    +0.000 HD
ATOM     22  H   UNL     1       0.645  10.457  17.467  0.00  0.00    +0.000 HD
ENDBRANCH   3  14
BRANCH  11  23
ATOM     23  C   UNL     1       5.024   4.577  15.283  0.00  0.00    +0.000 C 
ATOM     24  C   UNL     1       5.734   4.913  13.993  0.00  0.00    +0.000 C 
ATOM     25  C   UNL     1       6.188   3.741  14.812  0.00  0.00    +0.000 C 
ENDBRANCH  11  23
BRANCH   1  27
ATOM     26  C   UNL     1       1.288   2.676  21.722  0.00  0.00    +0.000 C 
ATOM     27  O   UNL     1       1.027   3.459  20.566  0.00  0.00    +0.000 OA
ENDBRANCH   1  27
TORSDOF 3
ENDMDL
MODEL 7
REMARK VINA RESULT:      -6.8      3.407      7.415
REMARK  Name = 
REMARK  4 active torsions:
REMARK  status: ('A' for Active; 'I' for Inactive)
REMARK    1  A    between atoms: C_1  and  O_2
REMARK    2  A    between atoms: O_2  and  C_3
REMARK    3  A    between atoms: C_5  and  C_6
REMARK    4  A    between atoms: C_20  and  C_22
REMARK                            x       y       z     vdW  Elec       q    Type
REMARK                         _______ _______ _______ _____ _____    ______ ____
ROOT
ATOM      1  C   UNL     1       1.925   4.370  20.271  0.00  0.00    +0.000 A 
ATOM      2  C   UNL     1       1.277   5.595  20.481  0.00  0.00    +0.000 A 
ATOM      3  C   UNL     1       1.910   6.828  20.257  0.00  0.00    +0.000 A 
ATOM      4  C   UNL     1       3.225   6.789  19.759  0.00  0.00    +0.000 A 
ATOM      5  C   UNL     1       3.899   5.576  19.509  0.00  0.00    +0.000 A 
ATOM      6  C   UNL     1       3.238   4.363  19.783  0.00  0.00    +0.000 A 
ATOM      7  O   UNL     1       3.892   3.171  19.615  0.00  0.00    +0.000 OA
ATOM      8  C   UNL     1       4.142   2.884  18.231  0.00  0.00    +0.000 C 
ATOM      9  C   UNL     1       5.500   3.446  17.821  0.00  0.00    +0.000 C 
ATOM     10  N   UNL     1       5.445   4.905  17.705  0.00  0.00    +0.000 N 
ATOM     11  C   UNL     1       5.169   5.589  16.522  0.00  0.00    +0.000 C 
ATOM     12  O   UNL     1       5.048   6.809  16.470  0.00  0.00    +0.000 OA
ATOM     13  C   UNL     1       5.311   5.626  18.968  0.00  0.00    +0.000 C 
ENDROOT
BRANCH   3  14
ATOM     14  C   UNL     1       1.228   8.117  20.511  0.00  0.00    +0.000 A 
ATOM     15  C   UNL     1       1.215   9.156  19.599  0.00  0.00    +0.000 A 
ATOM     16  C   UNL     1       0.565  10.302  19.989  0.00  0.00    +0.000 A 
ATOM     17  N   UNL     1      -0.042  10.441  21.178  0.00  0.00    +0.000 NA
ATOM     18  C   UNL     1      -0.010   9.378  21.983  0.00  0.00    +0.000 A 
ATOM     19  N   UNL     1      -0.615   9.496  23.217  0.00  0.00    +0.000 N 
ATOM     20  N   UNL     1       0.608   8.228  21.707  0.00  0.00    +0.000 NA
ATOM     21  H   UNL     1      -0.641  10.469  23.484  0.00  0.00    +0.000 HD
ATOM     22  H   UNL     1      -0.181   8.850  23.863  0.00  0.00    +0.000 HD
ENDBRANCH   3  14
BRANCH  11  23
ATOM     23  C   UNL     1       5.040   4.786  15.264  0.00  0.00    +0.000 C 
ATOM     24  C   UNL     1       6.000   4.963  14.111  0.00  0.00    +0.000 C 
ATOM     25  C   UNL     1       6.072   3.728  14.960  0.00  0.00    +0.000 C 
ENDBRANCH  11  23
BRANCH   1  27
ATOM     26  C   UNL     1       1.273   2.602  21.739  0.00  0.00    +0.000 C 
ATOM     27  O   UNL     1       1.114   3.290  20.507  0.00  0.00    +0.000 OA
ENDBRANCH   1  27
TORSDOF 3
ENDMDL
MODEL 8
REMARK VINA RESULT:      -6.7      4.943      8.295
REMARK  Name = 
REMARK  4 active torsions:
REMARK  status: ('A' for Active; 'I' for Inactive)
REMARK    1  A    between atoms: C_1  and  O_2
REMARK    2  A    between atoms: O_2  and  C_3
REMARK    3  A    between atoms: C_5  and  C_6
REMARK    4  A    between atoms: C_20  and  C_22
REMARK                            x       y       z     vdW  Elec       q    Type
REMARK                         _______ _______ _______ _____ _____    ______ ____
ROOT
ATOM      1  C   UNL     1       0.094   9.031  21.173  0.00  0.00    +0.000 A 
ATOM      2  C   UNL     1       1.010   8.050  20.770  0.00  0.00    +0.000 A 
ATOM      3  C   UNL     1       1.691   8.117  19.544  0.00  0.00    +0.000 A 
ATOM      4  C   UNL     1       1.452   9.248  18.743  0.00  0.00    +0.000 A 
ATOM      5  C   UNL     1       0.560  10.269  19.128  0.00  0.00    +0.000 A 
ATOM      6  C   UNL     1      -0.130  10.142  20.350  0.00  0.00    +0.000 A 
ATOM      7  O   UNL     1      -1.055  11.084  20.718  0.00  0.00    +0.000 OA
ATOM      8  C   UNL     1      -0.444  12.344  21.032  0.00  0.00    +0.000 C 
ATOM      9  C   UNL     1      -0.371  13.212  19.778  0.00  0.00    +0.000 C 
ATOM     10  N   UNL     1       0.666  12.722  18.868  0.00  0.00    +0.000 N 
ATOM     11  C   UNL     1       1.986  13.172  18.863  0.00  0.00    +0.000 C 
ATOM     12  O   UNL     1       2.854  12.686  18.145  0.00  0.00    +0.000 OA
ATOM     13  C   UNL     1       0.367  11.454  18.207  0.00  0.00    +0.000 C 
ENDROOT
BRANCH   3  14
ATOM     14  C   UNL     1       2.634   7.060  19.113  0.00  0.00    +0.000 A 
ATOM     15  C   UNL     1       2.829   5.889  19.820  0.00  0.00    +0.000 A 
ATOM     16  C   UNL     1       3.760   5.017  19.310  0.00  0.00    +0.000 A 
ATOM     17  N   UNL     1       4.457   5.250  18.187  0.00  0.00    +0.000 NA
ATOM     18  C   UNL     1       4.182   6.389  17.549  0.00  0.00    +0.000 A 
ATOM     19  N   UNL     1       4.891   6.663  16.399  0.00  0.00    +0.000 N 
ATOM     20  N   UNL     1       3.311   7.309  17.969  0.00  0.00    +0.000 NA
ATOM     21  H   UNL     1       5.772   6.170  16.425  0.00  0.00    +0.000 HD
ATOM     22  H   UNL     1       4.924   7.663  16.258  0.00  0.00    +0.000 HD
ENDBRANCH   3  14
BRANCH  11  23
ATOM     23  C   UNL     1       2.337  14.316  19.765  0.00  0.00    +0.000 C 
ATOM     24  C   UNL     1       3.045  14.097  21.081  0.00  0.00    +0.000 C 
ATOM     25  C   UNL     1       3.786  14.705  19.927  0.00  0.00    +0.000 C 
ENDBRANCH  11  23
BRANCH   1  27
ATOM     26  C   UNL     1       0.123   9.529  23.509  0.00  0.00    +0.000 C 
ATOM     27  O   UNL     1      -0.423   8.797  22.421  0.00  0.00    +0.000 OA
ENDBRANCH   1  27
TORSDOF 3
ENDMDL
MODEL 9
REMARK VINA RESULT:      -6.7      4.983      8.566
REMARK  Name = 
REMARK  4 active torsions:
REMARK  status: ('A' for Active; 'I' for Inactive)
REMARK    1  A    between atoms: C_1  and  O_2
REMARK    2  A    between atoms: O_2  and  C_3
REMARK    3  A    between atoms: C_5  and  C_6
REMARK    4  A    between atoms: C_20  and  C_22
REMARK                            x       y       z     vdW  Elec       q    Type
REMARK                         _______ _______ _______ _____ _____    ______ ____
ROOT
ATOM      1  C   UNL     1       0.053   9.154  21.128  0.00  0.00    +0.000 A 
ATOM      2  C   UNL     1       0.955   8.188  20.662  0.00  0.00    +0.000 A 
ATOM      3  C   UNL     1       1.623   8.314  19.434  0.00  0.00    +0.000 A 
ATOM      4  C   UNL     1       1.389   9.490  18.698  0.00  0.00    +0.000 A 
ATOM      5  C   UNL     1       0.512  10.497  19.148  0.00  0.00    +0.000 A 
ATOM      6  C   UNL     1      -0.167  10.311  20.369  0.00  0.00    +0.000 A 
ATOM      7  O   UNL     1      -1.077  11.241  20.798  0.00  0.00    +0.000 OA
ATOM      8  C   UNL     1      -0.449  12.476  21.174  0.00  0.00    +0.000 C 
ATOM      9  C   UNL     1      -0.379  13.410  19.968  0.00  0.00    +0.000 C 
ATOM     10  N   UNL     1       0.643  12.960  19.021  0.00  0.00    +0.000 N 
ATOM     11  C   UNL     1       1.967  13.396  19.027  0.00  0.00    +0.000 C 
ATOM     12  O   UNL     1       2.822  12.941  18.274  0.00  0.00    +0.000 OA
ATOM     13  C   UNL     1       0.323  11.733  18.295  0.00  0.00    +0.000 C 
ENDROOT
BRANCH   3  14
ATOM     14  C   UNL     1       2.551   7.273  18.935  0.00  0.00    +0.000 A 
ATOM     15  C   UNL     1       3.334   7.438  17.808  0.00  0.00    +0.000 A 
ATOM     16  C   UNL     1       4.123   6.372  17.453  0.00  0.00    +0.000 A 
ATOM     17  N   UNL     1       4.165   5.219  18.140  0.00  0.00    +0.000 NA
ATOM     18  C   UNL     1       3.403   5.158  19.234  0.00  0.00    +0.000 A 
ATOM     19  N   UNL     1       3.415   3.981  19.953  0.00  0.00    +0.000 N 
ATOM     20  N   UNL     1       2.589   6.129  19.654  0.00  0.00    +0.000 NA
ATOM     21  H   UNL     1       3.679   3.220  19.345  0.00  0.00    +0.000 HD
ATOM     22  H   UNL     1       2.543   3.891  20.457  0.00  0.00    +0.000 HD
ENDBRANCH   3  14
BRANCH  11  23
ATOM     23  C   UNL     1       2.340  14.485  19.986  0.00  0.00    +0.000 C 
ATOM     24  C   UNL     1       3.090  14.191  21.263  0.00  0.00    +0.000 C 
ATOM     25  C   UNL     1       3.791  14.875  20.125  0.00  0.00    +0.000 C 
ENDBRANCH  11  23
BRANCH   1  27
ATOM     26  C   UNL     1       0.117   9.519  23.487  0.00  0.00    +0.000 C 
ATOM     27  O   UNL     1      -0.453   8.858  22.367  0.00  0.00    +0.000 OA
ENDBRANCH   1  27
TORSDOF 3
ENDMDL
