MODEL 1
REMARK VINA RESULT:      -7.2      0.000      0.000
REMARK  Name = 
REMARK  5 active torsions:
REMARK  status: ('A' for Active; 'I' for Inactive)
REMARK    1  A    between atoms: C_1  and  C_2
REMARK    2  A    between atoms: C_3  and  C_4
REMARK    3  A    between atoms: C_5  and  C_6
REMARK    4  A    between atoms: N_8  and  C_9
REMARK    5  A    between atoms: C_13  and  N_14
REMARK                            x       y       z     vdW  Elec       q    Type
REMARK                         _______ _______ _______ _____ _____    ______ ____
ROOT
ATOM      1  C   UNL     1       6.797   5.389  18.403  0.00  0.00    +0.000 C 
ATOM      2  O   UNL     1       7.293   4.275  18.275  0.00  0.00    +0.000 OA
ATOM      3  N   UNL     1       5.444   5.674  18.442  0.00  0.00    +0.000 N 
ATOM      4  H   UNL     1       5.160   6.642  18.378  0.00  0.00    +0.000 HD
ENDROOT
BRANCH   3   5
ATOM      5  C   UNL     1       4.417   4.698  18.432  0.00  0.00    +0.000 A 
ATOM      6  C   UNL     1       3.914   4.141  17.249  0.00  0.00    +0.000 A 
ATOM      7  C   UNL     1       2.876   3.206  17.264  0.00  0.00    +0.000 A 
ATOM      8  C   UNL     1       2.322   2.807  18.473  0.00  0.00    +0.000 A 
ATOM      9  C   UNL     1       2.829   3.339  19.665  0.00  0.00    +0.000 A 
ATOM     10  C   UNL     1       3.886   4.272  19.653  0.00  0.00    +0.000 A 
BRANCH   9  11
ATOM     11  N   UNL     1       2.229   2.931  20.939  0.00  0.00    +0.000 N 
ATOM     12  O   UNL     1       2.986   2.566  21.850  0.00  0.00    +0.000 OA
ATOM     13  O   UNL     1       0.992   2.973  21.030  0.00  0.00    +0.000 OA
ENDBRANCH   9  11
ENDBRANCH   3   5
BRANCH   1  15
ATOM     14  C   UNL     1       7.373   7.626  17.684  0.00  0.00    +0.000 C 
ATOM     15  C   UNL     1       7.669   6.593  18.490  0.00  0.00    +0.000 C 
BRANCH  14  18
ATOM     16  C   UNL     1       9.483  10.662  18.670  0.00  0.00    +0.000 C 
ATOM     17  C   UNL     1       8.709   9.387  18.693  0.00  0.00    +0.000 C 
ATOM     18  C   UNL     1       8.117   8.860  17.610  0.00  0.00    +0.000 C 
ENDBRANCH  14  18
ENDBRANCH   1  15
TORSDOF 4
ENDMDL
MODEL 2
REMARK VINA RESULT:      -6.9      4.040      6.159
REMARK  Name = 
REMARK  5 active torsions:
REMARK  status: ('A' for Active; 'I' for Inactive)
REMARK    1  A    between atoms: C_1  and  C_2
REMARK    2  A    between atoms: C_3  and  C_4
REMARK    3  A    between atoms: C_5  and  C_6
REMARK    4  A    between atoms: N_8  and  C_9
REMARK    5  A    between atoms: C_13  and  N_14
REMARK                            x       y       z     vdW  Elec       q    Type
REMARK                         _______ _______ _______ _____ _____    ______ ____
ROOT
ATOM      1  C   UNL     1       6.695   4.510  14.158  0.00  0.00    +0.000 C 
ATOM      2  O   UNL     1       7.626   5.304  14.237  0.00  0.00    +0.000 OA
ATOM      3  N   UNL     1       5.947   4.031  15.219  0.00  0.00    +0.000 N 
ATOM      4  H   UNL     1       5.323   3.254  15.047  0.00  0.00    +0.000 HD
ENDROOT
BRANCH   3   5
ATOM      5  C   UNL     1       6.087   4.462  16.561  0.00  0.00    +0.000 A 
ATOM      6  C   UNL     1       7.335   4.648  17.170  0.00  0.00    +0.000 A 
ATOM      7  C   UNL     1       7.446   5.040  18.506  0.00  0.00    +0.000 A 
ATOM      8  C   UNL     1       6.300   5.260  19.260  0.00  0.00    +0.000 A 
ATOM      9  C   UNL     1       5.046   5.101  18.658  0.00  0.00    +0.000 A 
ATOM     10  C   UNL     1       4.932   4.718  17.306  0.00  0.00    +0.000 A 
BRANCH   9  11
ATOM     11  N   UNL     1       3.838   5.314  19.462  0.00  0.00    +0.000 N 
ATOM     12  O   UNL     1       3.407   4.363  20.129  0.00  0.00    +0.000 OA
ATOM     13  O   UNL     1       3.315   6.438  19.423  0.00  0.00    +0.000 OA
ENDBRANCH   9  11
ENDBRANCH   3   5
BRANCH   1  15
ATOM     14  C   UNL     1       4.997   3.715  12.628  0.00  0.00    +0.000 C 
ATOM     15  C   UNL     1       6.305   3.938  12.840  0.00  0.00    +0.000 C 
BRANCH  14  18
ATOM     16  C   UNL     1       2.976   3.288   9.408  0.00  0.00    +0.000 C 
ATOM     17  C   UNL     1       3.587   3.836  10.653  0.00  0.00    +0.000 C 
ATOM     18  C   UNL     1       4.437   3.143  11.428  0.00  0.00    +0.000 C 
ENDBRANCH  14  18
ENDBRANCH   1  15
TORSDOF 4
ENDMDL
MODEL 3
REMARK VINA RESULT:      -6.9      1.342      1.571
REMARK  Name = 
REMARK  5 active torsions:
REMARK  status: ('A' for Active; 'I' for Inactive)
REMARK    1  A    between atoms: C_1  and  C_2
REMARK    2  A    between atoms: C_3  and  C_4
REMARK    3  A    between atoms: C_5  and  C_6
REMARK    4  A    between atoms: N_8  and  C_9
REMARK    5  A    between atoms: C_13  and  N_14
REMARK                            x       y       z     vdW  Elec       q    Type
REMARK                         _______ _______ _______ _____ _____    ______ ____
ROOT
ATOM      1  C   UNL     1       6.948   6.330  17.323  0.00  0.00    +0.000 C 
ATOM      2  O   UNL     1       7.576   5.449  16.745  0.00  0.00    +0.000 OA
ATOM      3  N   UNL     1       5.697   6.191  17.895  0.00  0.00    +0.000 N 
ATOM      4  H   UNL     1       5.213   7.029  18.188  0.00  0.00    +0.000 HD
ENDROOT
BRANCH   3   5
ATOM      5  C   UNL     1       4.984   4.970  17.981  0.00  0.00    +0.000 A 
ATOM      6  C   UNL     1       4.193   4.479  16.934  0.00  0.00    +0.000 A 
ATOM      7  C   UNL     1       3.472   3.290  17.057  0.00  0.00    +0.000 A 
ATOM      8  C   UNL     1       3.533   2.562  18.239  0.00  0.00    +0.000 A 
ATOM      9  C   UNL     1       4.338   3.028  19.286  0.00  0.00    +0.000 A 
ATOM     10  C   UNL     1       5.077   4.222  19.159  0.00  0.00    +0.000 A 
BRANCH   9  11
ATOM     11  N   UNL     1       4.385   2.269  20.539  0.00  0.00    +0.000 N 
ATOM     12  O   UNL     1       5.348   1.512  20.726  0.00  0.00    +0.000 OA
ATOM     13  O   UNL     1       3.452   2.428  21.342  0.00  0.00    +0.000 OA
ENDBRANCH   9  11
ENDBRANCH   3   5
BRANCH   1  15
ATOM     14  C   UNL     1       8.271   7.988  18.487  0.00  0.00    +0.000 C 
ATOM     15  C   UNL     1       7.505   7.708  17.419  0.00  0.00    +0.000 C 
BRANCH  14  18
ATOM     16  C   UNL     1       9.406  11.624  18.120  0.00  0.00    +0.000 C 
ATOM     17  C   UNL     1       8.797  10.283  17.884  0.00  0.00    +0.000 C 
ATOM     18  C   UNL     1       8.871   9.271  18.763  0.00  0.00    +0.000 C 
ENDBRANCH  14  18
ENDBRANCH   1  15
TORSDOF 4
ENDMDL
MODEL 4
REMARK VINA RESULT:      -6.8      2.156      2.981
REMARK  Name = 
REMARK  5 active torsions:
REMARK  status: ('A' for Active; 'I' for Inactive)
REMARK    1  A    between atoms: C_1  and  C_2
REMARK    2  A    between atoms: C_3  and  C_4
REMARK    3  A    between atoms: C_5  and  C_6
REMARK    4  A    between atoms: N_8  and  C_9
REMARK    5  A    between atoms: C_13  and  N_14
REMARK                            x       y       z     vdW  Elec       q    Type
REMARK                         _______ _______ _______ _____ _____    ______ ____
ROOT
ATOM      1  C   UNL     1       7.731   7.701  17.848  0.00  0.00    +0.000 C 
ATOM      2  O   UNL     1       8.152   6.911  18.687  0.00  0.00    +0.000 OA
ATOM      3  N   UNL     1       6.793   7.422  16.871  0.00  0.00    +0.000 N 
ATOM      4  H   UNL     1       6.657   8.102  16.135  0.00  0.00    +0.000 HD
ENDROOT
BRANCH   3   5
ATOM      5  C   UNL     1       6.101   6.192  16.749  0.00  0.00    +0.000 A 
ATOM      6  C   UNL     1       6.515   5.173  15.881  0.00  0.00    +0.000 A 
ATOM      7  C   UNL     1       5.795   3.983  15.754  0.00  0.00    +0.000 A 
ATOM      8  C   UNL     1       4.641   3.789  16.502  0.00  0.00    +0.000 A 
ATOM      9  C   UNL     1       4.227   4.789  17.391  0.00  0.00    +0.000 A 
ATOM     10  C   UNL     1       4.960   5.985  17.531  0.00  0.00    +0.000 A 
BRANCH   9  11
ATOM     11  N   UNL     1       2.999   4.590  18.165  0.00  0.00    +0.000 N 
ATOM     12  O   UNL     1       3.004   3.729  19.056  0.00  0.00    +0.000 OA
ATOM     13  O   UNL     1       2.020   5.297  17.879  0.00  0.00    +0.000 OA
ENDBRANCH   9  11
ENDBRANCH   3   5
BRANCH   1  15
ATOM     14  C   UNL     1       8.948   9.530  18.862  0.00  0.00    +0.000 C 
ATOM     15  C   UNL     1       8.263   9.091  17.793  0.00  0.00    +0.000 C 
BRANCH  14  18
ATOM     16  C   UNL     1      10.599  12.882  18.035  0.00  0.00    +0.000 C 
ATOM     17  C   UNL     1      10.000  11.519  17.943  0.00  0.00    +0.000 C 
ATOM     18  C   UNL     1       9.512  10.851  19.001  0.00  0.00    +0.000 C 
ENDBRANCH  14  18
ENDBRANCH   1  15
TORSDOF 4
ENDMDL
MODEL 5
REMARK VINA RESULT:      -6.8      1.106      1.250
REMARK  Name = 
REMARK  5 active torsions:
REMARK  status: ('A' for Active; 'I' for Inactive)
REMARK    1  A    between atoms: C_1  and  C_2
REMARK    2  A    between atoms: C_3  and  C_4
REMARK    3  A    between atoms: C_5  and  C_6
REMARK    4  A    between atoms: N_8  and  C_9
REMARK    5  A    between atoms: C_13  and  N_14
REMARK                            x       y       z     vdW  Elec       q    Type
REMARK                         _______ _______ _______ _____ _____    ______ ____
ROOT
ATOM      1  C   UNL     1       6.769   5.670  18.495  0.00  0.00    +0.000 C 
ATOM      2  O   UNL     1       7.013   4.681  19.178  0.00  0.00    +0.000 OA
ATOM      3  N   UNL     1       5.578   5.930  17.841  0.00  0.00    +0.000 N 
ATOM      4  H   UNL     1       5.558   6.689  17.174  0.00  0.00    +0.000 HD
ENDROOT
BRANCH   3   5
ATOM      5  C   UNL     1       4.415   5.125  17.938  0.00  0.00    +0.000 A 
ATOM      6  C   UNL     1       4.071   4.173  16.970  0.00  0.00    +0.000 A 
ATOM      7  C   UNL     1       2.901   3.418  17.071  0.00  0.00    +0.000 A 
ATOM      8  C   UNL     1       2.051   3.600  18.155  0.00  0.00    +0.000 A 
ATOM      9  C   UNL     1       2.393   4.532  19.142  0.00  0.00    +0.000 A 
ATOM     10  C   UNL     1       3.581   5.286  19.048  0.00  0.00    +0.000 A 
BRANCH   9  11
ATOM     11  N   UNL     1       1.485   4.737  20.274  0.00  0.00    +0.000 N 
ATOM     12  O   UNL     1       1.452   5.859  20.799  0.00  0.00    +0.000 OA
ATOM     13  O   UNL     1       0.801   3.770  20.643  0.00  0.00    +0.000 OA
ENDBRANCH   9  11
ENDBRANCH   3   5
BRANCH   1  15
ATOM     14  C   UNL     1       7.409   7.903  17.817  0.00  0.00    +0.000 C 
ATOM     15  C   UNL     1       7.815   6.707  18.275  0.00  0.00    +0.000 C 
BRANCH  14  18
ATOM     16  C   UNL     1       9.621  10.997  18.230  0.00  0.00    +0.000 C 
ATOM     17  C   UNL     1       8.728   9.831  18.487  0.00  0.00    +0.000 C 
ATOM     18  C   UNL     1       8.278   9.015  17.520  0.00  0.00    +0.000 C 
ENDBRANCH  14  18
ENDBRANCH   1  15
TORSDOF 4
ENDMDL
MODEL 6
REMARK VINA RESULT:      -6.8      1.532      1.875
REMARK  Name = 
REMARK  5 active torsions:
REMARK  status: ('A' for Active; 'I' for Inactive)
REMARK    1  A    between atoms: C_1  and  C_2
REMARK    2  A    between atoms: C_3  and  C_4
REMARK    3  A    between atoms: C_5  and  C_6
REMARK    4  A    between atoms: N_8  and  C_9
REMARK    5  A    between atoms: C_13  and  N_14
REMARK                            x       y       z     vdW  Elec       q    Type
REMARK                         _______ _______ _______ _____ _____    ______ ____
ROOT
ATOM      1  C   UNL     1       7.443   6.907  17.616  0.00  0.00    +0.000 C 
ATOM      2  O   UNL     1       7.612   6.595  16.442  0.00  0.00    +0.000 OA
ATOM      3  N   UNL     1       6.485   6.381  18.464  0.00  0.00    +0.000 N 
ATOM      4  H   UNL     1       6.334   6.839  19.353  0.00  0.00    +0.000 HD
ENDROOT
BRANCH   3   5
ATOM      5  C   UNL     1       5.604   5.324  18.125  0.00  0.00    +0.000 A 
ATOM      6  C   UNL     1       5.033   5.194  16.853  0.00  0.00    +0.000 A 
ATOM      7  C   UNL     1       4.139   4.162  16.554  0.00  0.00    +0.000 A 
ATOM      8  C   UNL     1       3.804   3.233  17.530  0.00  0.00    +0.000 A 
ATOM      9  C   UNL     1       4.384   3.337  18.801  0.00  0.00    +0.000 A 
ATOM     10  C   UNL     1       5.296   4.370  19.100  0.00  0.00    +0.000 A 
BRANCH   9  11
ATOM     11  N   UNL     1       4.013   2.367  19.835  0.00  0.00    +0.000 N 
ATOM     12  O   UNL     1       4.923   1.769  20.426  0.00  0.00    +0.000 OA
ATOM     13  O   UNL     1       2.804   2.200  20.057  0.00  0.00    +0.000 OA
ENDBRANCH   9  11
ENDBRANCH   3   5
BRANCH   1  15
ATOM     14  C   UNL     1       8.126   9.222  17.785  0.00  0.00    +0.000 C 
ATOM     15  C   UNL     1       8.282   7.967  18.240  0.00  0.00    +0.000 C 
BRANCH  14  18
ATOM     16  C   UNL     1      10.194  11.563  19.993  0.00  0.00    +0.000 C 
ATOM     17  C   UNL     1       9.425  10.399  19.467  0.00  0.00    +0.000 C 
ATOM     18  C   UNL     1       8.867  10.369  18.246  0.00  0.00    +0.000 C 
ENDBRANCH  14  18
ENDBRANCH   1  15
TORSDOF 4
ENDMDL
MODEL 7
REMARK VINA RESULT:      -6.8      2.341      3.239
REMARK  Name = 
REMARK  5 active torsions:
REMARK  status: ('A' for Active; 'I' for Inactive)
REMARK    1  A    between atoms: C_1  and  C_2
REMARK    2  A    between atoms: C_3  and  C_4
REMARK    3  A    between atoms: C_5  and  C_6
REMARK    4  A    between atoms: N_8  and  C_9
REMARK    5  A    between atoms: C_13  and  N_14
REMARK                            x       y       z     vdW  Elec       q    Type
REMARK                         _______ _______ _______ _____ _____    ______ ____
ROOT
ATOM      1  C   UNL     1       7.801   7.787  17.929  0.00  0.00    +0.000 C 
ATOM      2  O   UNL     1       8.230   6.967  18.734  0.00  0.00    +0.000 OA
ATOM      3  N   UNL     1       6.879   7.536  16.929  0.00  0.00    +0.000 N 
ATOM      4  H   UNL     1       6.736   8.248  16.225  0.00  0.00    +0.000 HD
ENDROOT
BRANCH   3   5
ATOM      5  C   UNL     1       6.215   6.299  16.741  0.00  0.00    +0.000 A 
ATOM      6  C   UNL     1       6.712   5.293  15.903  0.00  0.00    +0.000 A 
ATOM      7  C   UNL     1       6.020   4.096  15.706  0.00  0.00    +0.000 A 
ATOM      8  C   UNL     1       4.810   3.882  16.354  0.00  0.00    +0.000 A 
ATOM      9  C   UNL     1       4.311   4.869  17.212  0.00  0.00    +0.000 A 
ATOM     10  C   UNL     1       5.015   6.073  17.422  0.00  0.00    +0.000 A 
BRANCH   9  11
ATOM     11  N   UNL     1       3.025   4.650  17.880  0.00  0.00    +0.000 N 
ATOM     12  O   UNL     1       2.229   5.598  17.939  0.00  0.00    +0.000 OA
ATOM     13  O   UNL     1       2.808   3.522  18.351  0.00  0.00    +0.000 OA
ENDBRANCH   9  11
ENDBRANCH   3   5
BRANCH   1  15
ATOM     14  C   UNL     1       9.068   9.555  18.989  0.00  0.00    +0.000 C 
ATOM     15  C   UNL     1       8.304   9.189  17.947  0.00  0.00    +0.000 C 
BRANCH  14  18
ATOM     16  C   UNL     1      10.398  12.717  20.683  0.00  0.00    +0.000 C 
ATOM     17  C   UNL     1       9.837  11.361  20.423  0.00  0.00    +0.000 C 
ATOM     18  C   UNL     1       9.620  10.872  19.191  0.00  0.00    +0.000 C 
ENDBRANCH  14  18
ENDBRANCH   1  15
TORSDOF 4
ENDMDL
MODEL 8
REMARK VINA RESULT:      -6.7      1.292      1.463
REMARK  Name = 
REMARK  5 active torsions:
REMARK  status: ('A' for Active; 'I' for Inactive)
REMARK    1  A    between atoms: C_1  and  C_2
REMARK    2  A    between atoms: C_3  and  C_4
REMARK    3  A    between atoms: C_5  and  C_6
REMARK    4  A    between atoms: N_8  and  C_9
REMARK    5  A    between atoms: C_13  and  N_14
REMARK                            x       y       z     vdW  Elec       q    Type
REMARK                         _______ _______ _______ _____ _____    ______ ____
ROOT
ATOM      1  C   UNL     1       5.179   5.485  17.186  0.00  0.00    +0.000 C 
ATOM      2  O   UNL     1       5.528   4.373  16.805  0.00  0.00    +0.000 OA
ATOM      3  N   UNL     1       4.027   5.774  17.895  0.00  0.00    +0.000 N 
ATOM      4  H   UNL     1       3.765   6.745  18.001  0.00  0.00    +0.000 HD
ENDROOT
BRANCH   3   5
ATOM      5  C   UNL     1       3.113   4.803  18.373  0.00  0.00    +0.000 A 
ATOM      6  C   UNL     1       1.953   4.445  17.673  0.00  0.00    +0.000 A 
ATOM      7  C   UNL     1       1.049   3.511  18.184  0.00  0.00    +0.000 A 
ATOM      8  C   UNL     1       1.295   2.909  19.411  0.00  0.00    +0.000 A 
ATOM      9  C   UNL     1       2.462   3.239  20.112  0.00  0.00    +0.000 A 
ATOM     10  C   UNL     1       3.382   4.173  19.592  0.00  0.00    +0.000 A 
BRANCH   9  11
ATOM     11  N   UNL     1       2.709   2.618  21.416  0.00  0.00    +0.000 N 
ATOM     12  O   UNL     1       3.763   1.983  21.569  0.00  0.00    +0.000 OA
ATOM     13  O   UNL     1       1.843   2.761  22.293  0.00  0.00    +0.000 OA
ENDBRANCH   9  11
ENDBRANCH   3   5
BRANCH   1  15
ATOM     14  C   UNL     1       7.103   6.893  17.594  0.00  0.00    +0.000 C 
ATOM     15  C   UNL     1       6.000   6.683  16.857  0.00  0.00    +0.000 C 
BRANCH  14  18
ATOM     16  C   UNL     1       9.069  10.099  18.298  0.00  0.00    +0.000 C 
ATOM     17  C   UNL     1       8.159   8.924  18.411  0.00  0.00    +0.000 C 
ATOM     18  C   UNL     1       8.003   8.011  17.439  0.00  0.00    +0.000 C 
ENDBRANCH  14  18
ENDBRANCH   1  15
TORSDOF 4
ENDMDL
MODEL 9
REMARK VINA RESULT:      -6.6      2.799      4.147
REMARK  Name = 
REMARK  5 active torsions:
REMARK  status: ('A' for Active; 'I' for Inactive)
REMARK    1  A    between atoms: C_1  and  C_2
REMARK    2  A    between atoms: C_3  and  C_4
REMARK    3  A    between atoms: C_5  and  C_6
REMARK    4  A    between atoms: N_8  and  C_9
REMARK    5  A    between atoms: C_13  and  N_14
REMARK                            x       y       z     vdW  Elec       q    Type
REMARK                         _______ _______ _______ _____ _____    ______ ____
ROOT
ATOM      1  C   UNL     1       5.854   4.842  17.742  0.00  0.00    +0.000 C 
ATOM      2  O   UNL     1       6.339   4.423  18.788  0.00  0.00    +0.000 OA
ATOM      3  N   UNL     1       4.552   5.277  17.570  0.00  0.00    +0.000 N 
ATOM      4  H   UNL     1       4.225   5.435  16.626  0.00  0.00    +0.000 HD
ENDROOT
BRANCH   3   5
ATOM      5  C   UNL     1       3.599   5.392  18.612  0.00  0.00    +0.000 A 
ATOM      6  C   UNL     1       3.047   6.619  19.001  0.00  0.00    +0.000 A 
ATOM      7  C   UNL     1       2.135   6.710  20.054  0.00  0.00    +0.000 A 
ATOM      8  C   UNL     1       1.752   5.564  20.739  0.00  0.00    +0.000 A 
ATOM      9  C   UNL     1       2.277   4.327  20.346  0.00  0.00    +0.000 A 
ATOM     10  C   UNL     1       3.188   4.231  19.275  0.00  0.00    +0.000 A 
BRANCH   9  11
ATOM     11  N   UNL     1       1.887   3.121  21.083  0.00  0.00    +0.000 N 
ATOM     12  O   UNL     1       2.078   3.099  22.308  0.00  0.00    +0.000 OA
ATOM     13  O   UNL     1       1.389   2.188  20.434  0.00  0.00    +0.000 OA
ENDBRANCH   9  11
ENDBRANCH   3   5
BRANCH   1  15
ATOM     14  C   UNL     1       6.128   4.338  15.392  0.00  0.00    +0.000 C 
ATOM     15  C   UNL     1       6.670   4.876  16.497  0.00  0.00    +0.000 C 
BRANCH  14  18
ATOM     16  C   UNL     1       6.819   3.536  11.715  0.00  0.00    +0.000 C 
ATOM     17  C   UNL     1       6.188   3.653  13.061  0.00  0.00    +0.000 C 
ATOM     18  C   UNL     1       6.777   4.256  14.106  0.00  0.00    +0.000 C 
ENDBRANCH  14  18
ENDBRANCH   1  15
TORSDOF 4
ENDMDL
