MODEL 1
REMARK VINA RESULT:      -6.7      0.000      0.000
REMARK  Name = 
REMARK  6 active torsions:
REMARK  status: ('A' for Active; 'I' for Inactive)
REMARK    1  A    between atoms: C_1  and  O_2
REMARK    2  A    between atoms: O_2  and  C_3
REMARK    3  A    between atoms: C_6  and  C_7
REMARK    4  A    between atoms: C_7  and  C_9
REMARK    5  A    between atoms: C_10  and  C_11
REMARK    6  A    between atoms: C_17  and  O_18
REMARK                            x       y       z     vdW  Elec       q    Type
REMARK                         _______ _______ _______ _____ _____    ______ ____
ROOT
ATOM      1  C   UNL     1       6.316   4.410  16.128  0.00  0.00    +0.000 A 
ATOM      2  C   UNL     1       4.960   4.120  15.965  0.00  0.00    +0.000 A 
ATOM      3  C   UNL     1       4.083   4.168  17.054  0.00  0.00    +0.000 A 
ATOM      4  C   UNL     1       4.548   4.506  18.331  0.00  0.00    +0.000 A 
ATOM      5  C   UNL     1       5.915   4.771  18.488  0.00  0.00    +0.000 A 
ATOM      6  C   UNL     1       6.789   4.743  17.395  0.00  0.00    +0.000 A 
ENDROOT
BRANCH   1   8
ATOM      7  C   UNL     1       6.376   4.008  13.785  0.00  0.00    +0.000 C 
ATOM      8  O   UNL     1       7.067   4.326  14.989  0.00  0.00    +0.000 OA
ENDBRANCH   1   8
BRANCH   4   9
ATOM      9  C   UNL     1       3.534   4.554  19.427  0.00  0.00    +0.000 C 
ATOM     10  O   UNL     1       3.367   3.584  20.154  0.00  0.00    +0.000 OA
BRANCH   9  11
ATOM     11  C   UNL     1       2.719   5.785  19.581  0.00  0.00    +0.000 C 
ATOM     12  C   UNL     1       2.922   6.863  18.808  0.00  0.00    +0.000 C 
BRANCH  12  13
ATOM     13  C   UNL     1       2.070   8.001  18.934  0.00  0.00    +0.000 A 
ATOM     14  C   UNL     1       1.671   8.927  17.978  0.00  0.00    +0.000 A 
ATOM     15  C   UNL     1       0.889   9.990  18.518  0.00  0.00    +0.000 A 
ATOM     16  C   UNL     1       0.695   9.818  19.860  0.00  0.00    +0.000 A 
ATOM     17 CL   UNL     1      -0.162  10.875  20.908  0.00  0.00    +0.000 Cl
ATOM     18  S   UNL     1       1.400   8.410  20.471  0.00  0.00    +0.000 S 
ENDBRANCH  12  13
ENDBRANCH   9  11
ENDBRANCH   4   9
BRANCH   5  19
ATOM     19  O   UNL     1       6.506   5.036  19.692  0.00  0.00    +0.000 OA
ATOM     20  H   UNL     1       7.442   5.245  19.514  0.00  0.00    +0.000 HD
ENDBRANCH   5  19
TORSDOF 5
ENDMDL
MODEL 2
REMARK VINA RESULT:      -6.7      4.901      6.229
REMARK  Name = 
REMARK  6 active torsions:
REMARK  status: ('A' for Active; 'I' for Inactive)
REMARK    1  A    between atoms: C_1  and  O_2
REMARK    2  A    between atoms: O_2  and  C_3
REMARK    3  A    between atoms: C_6  and  C_7
REMARK    4  A    between atoms: C_7  and  C_9
REMARK    5  A    between atoms: C_10  and  C_11
REMARK    6  A    between atoms: C_17  and  O_18
REMARK                            x       y       z     vdW  Elec       q    Type
REMARK                         _______ _______ _______ _____ _____    ______ ____
ROOT
ATOM      1  C   UNL     1       3.755   4.940  18.861  0.00  0.00    +0.000 A 
ATOM      2  C   UNL     1       3.727   5.738  17.717  0.00  0.00    +0.000 A 
ATOM      3  C   UNL     1       4.885   6.384  17.268  0.00  0.00    +0.000 A 
ATOM      4  C   UNL     1       6.095   6.243  17.959  0.00  0.00    +0.000 A 
ATOM      5  C   UNL     1       6.105   5.459  19.120  0.00  0.00    +0.000 A 
ATOM      6  C   UNL     1       4.953   4.797  19.559  0.00  0.00    +0.000 A 
ENDROOT
BRANCH   1   8
ATOM      7  C   UNL     1       2.598   3.315  20.155  0.00  0.00    +0.000 C 
ATOM      8  O   UNL     1       2.560   4.367  19.197  0.00  0.00    +0.000 OA
ENDBRANCH   1   8
BRANCH   4   9
ATOM      9  C   UNL     1       7.281   6.951  17.391  0.00  0.00    +0.000 C 
ATOM     10  O   UNL     1       7.719   6.634  16.292  0.00  0.00    +0.000 OA
BRANCH   9  11
ATOM     11  C   UNL     1       7.927   8.012  18.203  0.00  0.00    +0.000 C 
ATOM     12  C   UNL     1       8.290   9.186  17.663  0.00  0.00    +0.000 C 
BRANCH  12  13
ATOM     13  C   UNL     1       8.839  10.211  18.490  0.00  0.00    +0.000 A 
ATOM     14  C   UNL     1       9.401  10.129  19.758  0.00  0.00    +0.000 A 
ATOM     15  C   UNL     1       9.747  11.401  20.303  0.00  0.00    +0.000 A 
ATOM     16  C   UNL     1       9.463  12.403  19.417  0.00  0.00    +0.000 A 
ATOM     17 CL   UNL     1       9.693  14.085  19.676  0.00  0.00    +0.000 Cl
ATOM     18  S   UNL     1       8.825  11.852  17.953  0.00  0.00    +0.000 S 
ENDBRANCH  12  13
ENDBRANCH   9  11
ENDBRANCH   4   9
BRANCH   5  19
ATOM     19  O   UNL     1       7.200   5.305  19.925  0.00  0.00    +0.000 OA
ATOM     20  H   UNL     1       7.289   6.123  20.450  0.00  0.00    +0.000 HD
ENDBRANCH   5  19
TORSDOF 5
ENDMDL
MODEL 3
REMARK VINA RESULT:      -6.5      4.931      6.209
REMARK  Name = 
REMARK  6 active torsions:
REMARK  status: ('A' for Active; 'I' for Inactive)
REMARK    1  A    between atoms: C_1  and  O_2
REMARK    2  A    between atoms: O_2  and  C_3
REMARK    3  A    between atoms: C_6  and  C_7
REMARK    4  A    between atoms: C_7  and  C_9
REMARK    5  A    between atoms: C_10  and  C_11
REMARK    6  A    between atoms: C_17  and  O_18
REMARK                            x       y       z     vdW  Elec       q    Type
REMARK                         _______ _______ _______ _____ _____    ______ ____
ROOT
ATOM      1  C   UNL     1       3.771   4.935  18.973  0.00  0.00    +0.000 A 
ATOM      2  C   UNL     1       3.655   5.639  17.774  0.00  0.00    +0.000 A 
ATOM      3  C   UNL     1       4.762   6.287  17.215  0.00  0.00    +0.000 A 
ATOM      4  C   UNL     1       6.010   6.244  17.851  0.00  0.00    +0.000 A 
ATOM      5  C   UNL     1       6.108   5.556  19.067  0.00  0.00    +0.000 A 
ATOM      6  C   UNL     1       5.006   4.891  19.616  0.00  0.00    +0.000 A 
ENDROOT
BRANCH   1   8
ATOM      7  C   UNL     1       1.904   5.028  20.443  0.00  0.00    +0.000 C 
ATOM      8  O   UNL     1       2.617   4.349  19.414  0.00  0.00    +0.000 OA
ENDBRANCH   1   8
BRANCH   4   9
ATOM      9  C   UNL     1       7.138   6.946  17.168  0.00  0.00    +0.000 C 
ATOM     10  O   UNL     1       7.818   6.355  16.339  0.00  0.00    +0.000 OA
BRANCH   9  11
ATOM     11  C   UNL     1       7.427   8.352  17.545  0.00  0.00    +0.000 C 
ATOM     12  C   UNL     1       8.513   8.677  18.264  0.00  0.00    +0.000 C 
BRANCH  12  13
ATOM     13  C   UNL     1       8.799  10.046  18.543  0.00  0.00    +0.000 A 
ATOM     14  C   UNL     1       8.556  11.182  17.781  0.00  0.00    +0.000 A 
ATOM     15  C   UNL     1       9.084  12.373  18.361  0.00  0.00    +0.000 A 
ATOM     16  C   UNL     1       9.684  12.105  19.560  0.00  0.00    +0.000 A 
ATOM     17 CL   UNL     1      10.473  13.239  20.580  0.00  0.00    +0.000 Cl
ATOM     18  S   UNL     1       9.601  10.478  20.010  0.00  0.00    +0.000 S 
ENDBRANCH  12  13
ENDBRANCH   9  11
ENDBRANCH   4   9
BRANCH   5  19
ATOM     19  O   UNL     1       7.247   5.506  19.823  0.00  0.00    +0.000 OA
ATOM     20  H   UNL     1       7.136   6.142  20.554  0.00  0.00    +0.000 HD
ENDBRANCH   5  19
TORSDOF 5
ENDMDL
MODEL 4
REMARK VINA RESULT:      -6.4      1.166      1.376
REMARK  Name = 
REMARK  6 active torsions:
REMARK  status: ('A' for Active; 'I' for Inactive)
REMARK    1  A    between atoms: C_1  and  O_2
REMARK    2  A    between atoms: O_2  and  C_3
REMARK    3  A    between atoms: C_6  and  C_7
REMARK    4  A    between atoms: C_7  and  C_9
REMARK    5  A    between atoms: C_10  and  C_11
REMARK    6  A    between atoms: C_17  and  O_18
REMARK                            x       y       z     vdW  Elec       q    Type
REMARK                         _______ _______ _______ _____ _____    ______ ____
ROOT
ATOM      1  C   UNL     1       6.769   4.958  15.889  0.00  0.00    +0.000 A 
ATOM      2  C   UNL     1       5.490   4.720  15.385  0.00  0.00    +0.000 A 
ATOM      3  C   UNL     1       4.408   4.510  16.248  0.00  0.00    +0.000 A 
ATOM      4  C   UNL     1       4.589   4.532  17.637  0.00  0.00    +0.000 A 
ATOM      5  C   UNL     1       5.882   4.748  18.132  0.00  0.00    +0.000 A 
ATOM      6  C   UNL     1       6.960   4.978  17.269  0.00  0.00    +0.000 A 
ENDROOT
BRANCH   1   8
ATOM      7  C   UNL     1       7.359   4.948  13.586  0.00  0.00    +0.000 C 
ATOM      8  O   UNL     1       7.739   5.146  14.944  0.00  0.00    +0.000 OA
ENDBRANCH   1   8
BRANCH   4   9
ATOM      9  C   UNL     1       3.372   4.321  18.477  0.00  0.00    +0.000 C 
ATOM     10  O   UNL     1       3.094   3.201  18.887  0.00  0.00    +0.000 OA
BRANCH   9  11
ATOM     11  C   UNL     1       2.502   5.488  18.767  0.00  0.00    +0.000 C 
ATOM     12  C   UNL     1       2.888   6.460  19.609  0.00  0.00    +0.000 C 
BRANCH  12  13
ATOM     13  C   UNL     1       2.059   7.604  19.805  0.00  0.00    +0.000 A 
ATOM     14  C   UNL     1       1.301   7.978  20.908  0.00  0.00    +0.000 A 
ATOM     15  C   UNL     1       0.518   9.149  20.682  0.00  0.00    +0.000 A 
ATOM     16  C   UNL     1       0.732   9.640  19.424  0.00  0.00    +0.000 A 
ATOM     17 CL   UNL     1      -0.025  11.015  18.726  0.00  0.00    +0.000 Cl
ATOM     18  S   UNL     1       1.861   8.753  18.533  0.00  0.00    +0.000 S 
ENDBRANCH  12  13
ENDBRANCH   9  11
ENDBRANCH   4   9
BRANCH   5  19
ATOM     19  O   UNL     1       6.203   4.716  19.461  0.00  0.00    +0.000 OA
ATOM     20  H   UNL     1       5.956   3.834  19.796  0.00  0.00    +0.000 HD
ENDBRANCH   5  19
TORSDOF 5
ENDMDL
MODEL 5
REMARK VINA RESULT:      -6.4      1.415      1.818
REMARK  Name = 
REMARK  6 active torsions:
REMARK  status: ('A' for Active; 'I' for Inactive)
REMARK    1  A    between atoms: C_1  and  O_2
REMARK    2  A    between atoms: O_2  and  C_3
REMARK    3  A    between atoms: C_6  and  C_7
REMARK    4  A    between atoms: C_7  and  C_9
REMARK    5  A    between atoms: C_10  and  C_11
REMARK    6  A    between atoms: C_17  and  O_18
REMARK                            x       y       z     vdW  Elec       q    Type
REMARK                         _______ _______ _______ _____ _____    ______ ____
ROOT
ATOM      1  C   UNL     1       6.856   4.842  14.690  0.00  0.00    +0.000 A 
ATOM      2  C   UNL     1       5.509   4.562  14.458  0.00  0.00    +0.000 A 
ATOM      3  C   UNL     1       4.655   4.226  15.515  0.00  0.00    +0.000 A 
ATOM      4  C   UNL     1       5.137   4.164  16.829  0.00  0.00    +0.000 A 
ATOM      5  C   UNL     1       6.497   4.423  17.047  0.00  0.00    +0.000 A 
ATOM      6  C   UNL     1       7.346   4.778  15.993  0.00  0.00    +0.000 A 
ENDROOT
BRANCH   1   8
ATOM      7  C   UNL     1       7.196   4.524  12.359  0.00  0.00    +0.000 C 
ATOM      8  O   UNL     1       7.583   5.154  13.575  0.00  0.00    +0.000 OA
ENDBRANCH   1   8
BRANCH   4   9
ATOM      9  C   UNL     1       4.147   3.821  17.893  0.00  0.00    +0.000 C 
ATOM     10  O   UNL     1       3.834   2.653  18.089  0.00  0.00    +0.000 OA
BRANCH   9  11
ATOM     11  C   UNL     1       3.534   4.927  18.671  0.00  0.00    +0.000 C 
ATOM     12  C   UNL     1       3.166   6.077  18.085  0.00  0.00    +0.000 C 
BRANCH  12  13
ATOM     13  C   UNL     1       2.511   7.087  18.850  0.00  0.00    +0.000 A 
ATOM     14  C   UNL     1       2.120   7.085  20.183  0.00  0.00    +0.000 A 
ATOM     15  C   UNL     1       1.395   8.254  20.559  0.00  0.00    +0.000 A 
ATOM     16  C   UNL     1       1.287   9.119  19.506  0.00  0.00    +0.000 A 
ATOM     17 CL   UNL     1       0.471  10.630  19.509  0.00  0.00    +0.000 Cl
ATOM     18  S   UNL     1       2.054   8.575  18.102  0.00  0.00    +0.000 S 
ENDBRANCH  12  13
ENDBRANCH   9  11
ENDBRANCH   4   9
BRANCH   5  19
ATOM     19  O   UNL     1       7.105   4.318  18.267  0.00  0.00    +0.000 OA
ATOM     20  H   UNL     1       7.998   4.700  18.178  0.00  0.00    +0.000 HD
ENDBRANCH   5  19
TORSDOF 5
ENDMDL
MODEL 6
REMARK VINA RESULT:      -6.4      3.588      4.753
REMARK  Name = 
REMARK  6 active torsions:
REMARK  status: ('A' for Active; 'I' for Inactive)
REMARK    1  A    between atoms: C_1  and  O_2
REMARK    2  A    between atoms: O_2  and  C_3
REMARK    3  A    between atoms: C_6  and  C_7
REMARK    4  A    between atoms: C_7  and  C_9
REMARK    5  A    between atoms: C_10  and  C_11
REMARK    6  A    between atoms: C_17  and  O_18
REMARK                            x       y       z     vdW  Elec       q    Type
REMARK                         _______ _______ _______ _____ _____    ______ ____
ROOT
ATOM      1  C   UNL     1       6.115   3.508  12.434  0.00  0.00    +0.000 A 
ATOM      2  C   UNL     1       5.280   3.346  13.540  0.00  0.00    +0.000 A 
ATOM      3  C   UNL     1       5.517   4.053  14.725  0.00  0.00    +0.000 A 
ATOM      4  C   UNL     1       6.599   4.937  14.824  0.00  0.00    +0.000 A 
ATOM      5  C   UNL     1       7.445   5.072  13.716  0.00  0.00    +0.000 A 
ATOM      6  C   UNL     1       7.197   4.381  12.524  0.00  0.00    +0.000 A 
ENDROOT
BRANCH   1   8
ATOM      7  C   UNL     1       6.032   1.361  11.416  0.00  0.00    +0.000 C 
ATOM      8  O   UNL     1       5.779   2.760  11.340  0.00  0.00    +0.000 OA
ENDBRANCH   1   8
BRANCH   4   9
ATOM      9  C   UNL     1       6.757   5.664  16.119  0.00  0.00    +0.000 C 
ATOM     10  O   UNL     1       7.664   6.474  16.263  0.00  0.00    +0.000 OA
BRANCH   9  11
ATOM     11  C   UNL     1       5.816   5.352  17.224  0.00  0.00    +0.000 C 
ATOM     12  C   UNL     1       4.522   5.705  17.164  0.00  0.00    +0.000 C 
BRANCH  12  13
ATOM     13  C   UNL     1       3.631   5.322  18.210  0.00  0.00    +0.000 A 
ATOM     14  C   UNL     1       3.624   5.680  19.552  0.00  0.00    +0.000 A 
ATOM     15  C   UNL     1       2.623   5.004  20.310  0.00  0.00    +0.000 A 
ATOM     16  C   UNL     1       1.883   4.179  19.510  0.00  0.00    +0.000 A 
ATOM     17 CL   UNL     1       0.596   3.158  20.014  0.00  0.00    +0.000 Cl
ATOM     18  S   UNL     1       2.342   4.221  17.884  0.00  0.00    +0.000 S 
ENDBRANCH  12  13
ENDBRANCH   9  11
ENDBRANCH   4   9
BRANCH   5  19
ATOM     19  O   UNL     1       8.577   5.841  13.711  0.00  0.00    +0.000 OA
ATOM     20  H   UNL     1       8.882   5.900  12.787  0.00  0.00    +0.000 HD
ENDBRANCH   5  19
TORSDOF 5
ENDMDL
MODEL 7
REMARK VINA RESULT:      -6.4      1.810      2.344
REMARK  Name = 
REMARK  6 active torsions:
REMARK  status: ('A' for Active; 'I' for Inactive)
REMARK    1  A    between atoms: C_1  and  O_2
REMARK    2  A    between atoms: O_2  and  C_3
REMARK    3  A    between atoms: C_6  and  C_7
REMARK    4  A    between atoms: C_7  and  C_9
REMARK    5  A    between atoms: C_10  and  C_11
REMARK    6  A    between atoms: C_17  and  O_18
REMARK                            x       y       z     vdW  Elec       q    Type
REMARK                         _______ _______ _______ _____ _____    ______ ____
ROOT
ATOM      1  C   UNL     1       5.178   5.654  15.982  0.00  0.00    +0.000 A 
ATOM      2  C   UNL     1       4.827   6.898  16.509  0.00  0.00    +0.000 A 
ATOM      3  C   UNL     1       4.046   6.989  17.667  0.00  0.00    +0.000 A 
ATOM      4  C   UNL     1       3.602   5.832  18.321  0.00  0.00    +0.000 A 
ATOM      5  C   UNL     1       3.940   4.590  17.769  0.00  0.00    +0.000 A 
ATOM      6  C   UNL     1       4.736   4.498  16.622  0.00  0.00    +0.000 A 
ENDROOT
BRANCH   1   8
ATOM      7  C   UNL     1       6.989   4.745  14.738  0.00  0.00    +0.000 C 
ATOM      8  O   UNL     1       5.939   5.700  14.847  0.00  0.00    +0.000 OA
ENDBRANCH   1   8
BRANCH   4   9
ATOM      9  C   UNL     1       2.795   6.029  19.563  0.00  0.00    +0.000 C 
ATOM     10  O   UNL     1       2.759   5.154  20.418  0.00  0.00    +0.000 OA
BRANCH   9  11
ATOM     11  C   UNL     1       2.020   7.286  19.710  0.00  0.00    +0.000 C 
ATOM     12  C   UNL     1       1.486   7.648  20.887  0.00  0.00    +0.000 C 
BRANCH  12  13
ATOM     13  C   UNL     1       0.812   8.899  21.009  0.00  0.00    +0.000 A 
ATOM     14  C   UNL     1       0.633   9.911  20.073  0.00  0.00    +0.000 A 
ATOM     15  C   UNL     1      -0.014  11.064  20.608  0.00  0.00    +0.000 A 
ATOM     16  C   UNL     1      -0.333  10.875  21.924  0.00  0.00    +0.000 A 
ATOM     17 CL   UNL     1      -1.093  12.014  22.961  0.00  0.00    +0.000 Cl
ATOM     18  S   UNL     1       0.099   9.352  22.514  0.00  0.00    +0.000 S 
ENDBRANCH  12  13
ENDBRANCH   9  11
ENDBRANCH   4   9
BRANCH   5  19
ATOM     19  O   UNL     1       3.504   3.392  18.265  0.00  0.00    +0.000 OA
ATOM     20  H   UNL     1       4.066   2.697  17.876  0.00  0.00    +0.000 HD
ENDBRANCH   5  19
TORSDOF 5
ENDMDL
MODEL 8
REMARK VINA RESULT:      -6.3      2.585      3.790
REMARK  Name = 
REMARK  6 active torsions:
REMARK  status: ('A' for Active; 'I' for Inactive)
REMARK    1  A    between atoms: C_1  and  O_2
REMARK    2  A    between atoms: O_2  and  C_3
REMARK    3  A    between atoms: C_6  and  C_7
REMARK    4  A    between atoms: C_7  and  C_9
REMARK    5  A    between atoms: C_10  and  C_11
REMARK    6  A    between atoms: C_17  and  O_18
REMARK                            x       y       z     vdW  Elec       q    Type
REMARK                         _______ _______ _______ _____ _____    ______ ____
ROOT
ATOM      1  C   UNL     1       3.166   3.692  17.525  0.00  0.00    +0.000 A 
ATOM      2  C   UNL     1       1.950   4.186  17.999  0.00  0.00    +0.000 A 
ATOM      3  C   UNL     1       1.758   5.561  18.179  0.00  0.00    +0.000 A 
ATOM      4  C   UNL     1       2.785   6.469  17.888  0.00  0.00    +0.000 A 
ATOM      5  C   UNL     1       4.009   5.959  17.437  0.00  0.00    +0.000 A 
ATOM      6  C   UNL     1       4.195   4.587  17.237  0.00  0.00    +0.000 A 
ENDROOT
BRANCH   1   8
ATOM      7  C   UNL     1       3.503   1.586  18.576  0.00  0.00    +0.000 C 
ATOM      8  O   UNL     1       3.228   2.333  17.395  0.00  0.00    +0.000 OA
ENDBRANCH   1   8
BRANCH   4   9
ATOM      9  C   UNL     1       2.479   7.917  18.089  0.00  0.00    +0.000 C 
ATOM     10  O   UNL     1       2.722   8.726  17.203  0.00  0.00    +0.000 OA
BRANCH   9  11
ATOM     11  C   UNL     1       1.911   8.345  19.392  0.00  0.00    +0.000 C 
ATOM     12  C   UNL     1       1.006   9.333  19.473  0.00  0.00    +0.000 C 
BRANCH  12  13
ATOM     13  C   UNL     1       0.426   9.667  20.733  0.00  0.00    +0.000 A 
ATOM     14  C   UNL     1       0.392   8.943  21.919  0.00  0.00    +0.000 A 
ATOM     15  C   UNL     1      -0.377   9.574  22.941  0.00  0.00    +0.000 A 
ATOM     16  C   UNL     1      -0.876  10.770  22.505  0.00  0.00    +0.000 A 
ATOM     17 CL   UNL     1      -1.878  11.841  23.399  0.00  0.00    +0.000 Cl
ATOM     18  S   UNL     1      -0.421  11.158  20.925  0.00  0.00    +0.000 S 
ENDBRANCH  12  13
ENDBRANCH   9  11
ENDBRANCH   4   9
BRANCH   5  19
ATOM     19  O   UNL     1       5.111   6.732  17.194  0.00  0.00    +0.000 OA
ATOM     20  H   UNL     1       5.795   6.471  17.839  0.00  0.00    +0.000 HD
ENDBRANCH   5  19
TORSDOF 5
ENDMDL
MODEL 9
REMARK VINA RESULT:      -6.3      4.454      7.167
REMARK  Name = 
REMARK  6 active torsions:
REMARK  status: ('A' for Active; 'I' for Inactive)
REMARK    1  A    between atoms: C_1  and  O_2
REMARK    2  A    between atoms: O_2  and  C_3
REMARK    3  A    between atoms: C_6  and  C_7
REMARK    4  A    between atoms: C_7  and  C_9
REMARK    5  A    between atoms: C_10  and  C_11
REMARK    6  A    between atoms: C_17  and  O_18
REMARK                            x       y       z     vdW  Elec       q    Type
REMARK                         _______ _______ _______ _____ _____    ______ ____
ROOT
ATOM      1  C   UNL     1       2.589   4.776  20.104  0.00  0.00    +0.000 A 
ATOM      2  C   UNL     1       2.374   6.003  19.476  0.00  0.00    +0.000 A 
ATOM      3  C   UNL     1       3.321   6.528  18.589  0.00  0.00    +0.000 A 
ATOM      4  C   UNL     1       4.505   5.832  18.315  0.00  0.00    +0.000 A 
ATOM      5  C   UNL     1       4.721   4.612  18.970  0.00  0.00    +0.000 A 
ATOM      6  C   UNL     1       3.766   4.077  19.842  0.00  0.00    +0.000 A 
ENDROOT
BRANCH   1   8
ATOM      7  C   UNL     1       1.271   2.987  20.951  0.00  0.00    +0.000 C 
ATOM      8  O   UNL     1       1.591   4.375  20.948  0.00  0.00    +0.000 OA
ENDBRANCH   1   8
BRANCH   4   9
ATOM      9  C   UNL     1       5.444   6.460  17.337  0.00  0.00    +0.000 C 
ATOM     10  O   UNL     1       6.087   7.452  17.653  0.00  0.00    +0.000 OA
BRANCH   9  11
ATOM     11  C   UNL     1       5.546   5.872  15.978  0.00  0.00    +0.000 C 
ATOM     12  C   UNL     1       6.687   5.320  15.535  0.00  0.00    +0.000 C 
BRANCH  12  13
ATOM     13  C   UNL     1       6.726   4.698  14.252  0.00  0.00    +0.000 A 
ATOM     14  C   UNL     1       7.487   5.009  13.132  0.00  0.00    +0.000 A 
ATOM     15  C   UNL     1       7.167   4.211  11.995  0.00  0.00    +0.000 A 
ATOM     16  C   UNL     1       6.195   3.299  12.300  0.00  0.00    +0.000 A 
ATOM     17 CL   UNL     1       5.492   2.162  11.221  0.00  0.00    +0.000 Cl
ATOM     18  S   UNL     1       5.686   3.364  13.909  0.00  0.00    +0.000 S 
ENDBRANCH  12  13
ENDBRANCH   9  11
ENDBRANCH   4   9
BRANCH   5  19
ATOM     19  O   UNL     1       5.868   3.876  18.849  0.00  0.00    +0.000 OA
ATOM     20  H   UNL     1       6.328   4.189  18.048  0.00  0.00    +0.000 HD
ENDBRANCH   5  19
TORSDOF 5
ENDMDL
