MODEL 1
REMARK VINA RESULT:      -8.8      0.000      0.000
REMARK  Name = 
REMARK  5 active torsions:
REMARK  status: ('A' for Active; 'I' for Inactive)
REMARK    1  A    between atoms: N_1  and  C_2
REMARK    2  A    between atoms: N_10  and  C_11
REMARK    3  A    between atoms: C_15  and  N_16
REMARK    4  A    between atoms: N_19  and  C_20
REMARK    5  A    between atoms: C_24  and  C_25
REMARK                            x       y       z     vdW  Elec       q    Type
REMARK                         _______ _______ _______ _____ _____    ______ ____
ROOT
ATOM      1  C   UNL     1      -1.036  11.447  18.287  0.00  0.00    +0.000 A 
ATOM      2  C   UNL     1      -0.334  12.657  18.332  0.00  0.00    +0.000 A 
ATOM      3  C   UNL     1       1.005  12.671  18.703  0.00  0.00    +0.000 A 
ATOM      4  C   UNL     1       1.645  11.481  19.044  0.00  0.00    +0.000 A 
ATOM      5  C   UNL     1       0.956  10.265  19.044  0.00  0.00    +0.000 A 
ATOM      6  C   UNL     1      -0.396  10.250  18.667  0.00  0.00    +0.000 A 
ENDROOT
BRANCH   1  15
ATOM      7  C   UNL     1      -5.925  12.026  18.279  0.00  0.00    +0.000 A 
ATOM      8  N   UNL     1      -6.047  12.527  19.526  0.00  0.00    +0.000 NA
ATOM      9  C   UNL     1      -4.942  12.723  20.269  0.00  0.00    +0.000 A 
ATOM     10  C   UNL     1      -3.653  12.427  19.865  0.00  0.00    +0.000 A 
ATOM     11  C   UNL     1      -3.519  11.838  18.600  0.00  0.00    +0.000 A 
ATOM     12  C   UNL     1      -4.652  11.650  17.794  0.00  0.00    +0.000 A 
ATOM     13  C   UNL     1      -4.198  11.106  16.562  0.00  0.00    +0.000 A 
ATOM     14  C   UNL     1      -2.828  11.010  16.621  0.00  0.00    +0.000 A 
ATOM     15  N   UNL     1      -2.400  11.432  17.865  0.00  0.00    +0.000 N 
BRANCH   7  16
ATOM     16  N   UNL     1      -7.089  11.930  17.533  0.00  0.00    +0.000 N 
ATOM     17  H   UNL     1      -7.257  12.793  17.029  0.00  0.00    +0.000 HD
ATOM     18  H   UNL     1      -7.875  11.506  17.999  0.00  0.00    +0.000 HD
ENDBRANCH   7  16
ENDBRANCH   1  15
BRANCH   5  19
ATOM     19  N   UNL     1       1.602   9.044  19.354  0.00  0.00    +0.000 N 
ATOM     20  C   UNL     1       2.227   8.234  18.418  0.00  0.00    +0.000 C 
ATOM     21  O   UNL     1       2.505   8.581  17.277  0.00  0.00    +0.000 OA
ATOM     22  N   UNL     1       2.474   6.963  18.919  0.00  0.00    +0.000 N 
ATOM     23  H   UNL     1       1.848   8.871  20.318  0.00  0.00    +0.000 HD
ATOM     24  H   UNL     1       1.766   6.618  19.550  0.00  0.00    +0.000 HD
BRANCH  22  25
ATOM     25  C   UNL     1       3.182   6.000  18.156  0.00  0.00    +0.000 A 
ATOM     26  C   UNL     1       2.590   4.790  17.781  0.00  0.00    +0.000 A 
ATOM     27  C   UNL     1       3.308   3.839  17.055  0.00  0.00    +0.000 A 
ATOM     28  C   UNL     1       4.632   4.087  16.709  0.00  0.00    +0.000 A 
ATOM     29  C   UNL     1       5.248   5.294  17.074  0.00  0.00    +0.000 A 
ATOM     30  C   UNL     1       4.502   6.263  17.776  0.00  0.00    +0.000 A 
BRANCH  29  31
ATOM     31  C   UNL     1       6.704   5.538  16.767  0.00  0.00    +0.000 C 
ATOM     32  F   UNL     1       7.062   5.187  15.500  0.00  0.00    +0.000 F 
ATOM     33  F   UNL     1       7.053   6.847  16.905  0.00  0.00    +0.000 F 
ATOM     34  F   UNL     1       7.532   4.842  17.594  0.00  0.00    +0.000 F 
ENDBRANCH  29  31
ENDBRANCH  22  25
ENDBRANCH   5  19
TORSDOF 5
ENDMDL
MODEL 2
REMARK VINA RESULT:      -8.7      2.182      2.640
REMARK  Name = 
REMARK  5 active torsions:
REMARK  status: ('A' for Active; 'I' for Inactive)
REMARK    1  A    between atoms: N_1  and  C_2
REMARK    2  A    between atoms: N_10  and  C_11
REMARK    3  A    between atoms: C_15  and  N_16
REMARK    4  A    between atoms: N_19  and  C_20
REMARK    5  A    between atoms: C_24  and  C_25
REMARK                            x       y       z     vdW  Elec       q    Type
REMARK                         _______ _______ _______ _____ _____    ______ ____
ROOT
ATOM      1  C   UNL     1      -1.416  11.807  18.486  0.00  0.00    +0.000 A 
ATOM      2  C   UNL     1      -0.774  13.030  18.261  0.00  0.00    +0.000 A 
ATOM      3  C   UNL     1       0.600  13.138  18.440  0.00  0.00    +0.000 A 
ATOM      4  C   UNL     1       1.336  12.029  18.855  0.00  0.00    +0.000 A 
ATOM      5  C   UNL     1       0.713  10.808  19.122  0.00  0.00    +0.000 A 
ATOM      6  C   UNL     1      -0.674  10.699  18.940  0.00  0.00    +0.000 A 
ENDROOT
BRANCH   1  15
ATOM      7  C   UNL     1      -6.286  12.037  19.170  0.00  0.00    +0.000 A 
ATOM      8  N   UNL     1      -6.266  12.542  20.421  0.00  0.00    +0.000 NA
ATOM      9  C   UNL     1      -5.085  12.824  21.001  0.00  0.00    +0.000 A 
ATOM     10  C   UNL     1      -3.847  12.616  20.418  0.00  0.00    +0.000 A 
ATOM     11  C   UNL     1      -3.852  12.025  19.147  0.00  0.00    +0.000 A 
ATOM     12  C   UNL     1      -5.070  11.747  18.509  0.00  0.00    +0.000 A 
ATOM     13  C   UNL     1      -4.757  11.224  17.226  0.00  0.00    +0.000 A 
ATOM     14  C   UNL     1      -3.390  11.226  17.091  0.00  0.00    +0.000 A 
ATOM     15  N   UNL     1      -2.821  11.690  18.261  0.00  0.00    +0.000 N 
BRANCH   7  16
ATOM     16  N   UNL     1      -7.534  11.851  18.596  0.00  0.00    +0.000 N 
ATOM     17  H   UNL     1      -7.629  10.902  18.257  0.00  0.00    +0.000 HD
ATOM     18  H   UNL     1      -7.854  12.593  17.993  0.00  0.00    +0.000 HD
ENDBRANCH   7  16
ENDBRANCH   1  15
BRANCH   5  19
ATOM     19  N   UNL     1       1.453   9.665  19.511  0.00  0.00    +0.000 N 
ATOM     20  C   UNL     1       1.871   8.673  18.637  0.00  0.00    +0.000 C 
ATOM     21  O   UNL     1       1.865   8.778  17.416  0.00  0.00    +0.000 OA
ATOM     22  N   UNL     1       2.267   7.525  19.310  0.00  0.00    +0.000 N 
ATOM     23  H   UNL     1       1.920   9.686  20.406  0.00  0.00    +0.000 HD
ATOM     24  H   UNL     1       1.736   7.326  20.145  0.00  0.00    +0.000 HD
BRANCH  22  25
ATOM     25  C   UNL     1       2.811   6.418  18.611  0.00  0.00    +0.000 A 
ATOM     26  C   UNL     1       3.880   6.573  17.721  0.00  0.00    +0.000 A 
ATOM     27  C   UNL     1       4.387   5.480  17.017  0.00  0.00    +0.000 A 
ATOM     28  C   UNL     1       3.818   4.223  17.189  0.00  0.00    +0.000 A 
ATOM     29  C   UNL     1       2.745   4.042  18.076  0.00  0.00    +0.000 A 
ATOM     30  C   UNL     1       2.265   5.147  18.808  0.00  0.00    +0.000 A 
BRANCH  29  31
ATOM     31  C   UNL     1       2.076   2.697  18.210  0.00  0.00    +0.000 C 
ATOM     32  F   UNL     1       2.449   2.010  19.326  0.00  0.00    +0.000 F 
ATOM     33  F   UNL     1       0.719   2.794  18.266  0.00  0.00    +0.000 F 
ATOM     34  F   UNL     1       2.349   1.875  17.159  0.00  0.00    +0.000 F 
ENDBRANCH  29  31
ENDBRANCH  22  25
ENDBRANCH   5  19
TORSDOF 5
ENDMDL
MODEL 3
REMARK VINA RESULT:      -8.7      6.211     10.748
REMARK  Name = 
REMARK  5 active torsions:
REMARK  status: ('A' for Active; 'I' for Inactive)
REMARK    1  A    between atoms: N_1  and  C_2
REMARK    2  A    between atoms: N_10  and  C_11
REMARK    3  A    between atoms: C_15  and  N_16
REMARK    4  A    between atoms: N_19  and  C_20
REMARK    5  A    between atoms: C_24  and  C_25
REMARK                            x       y       z     vdW  Elec       q    Type
REMARK                         _______ _______ _______ _____ _____    ______ ____
ROOT
ATOM      1  C   UNL     1       2.448   7.390  19.042  0.00  0.00    +0.000 A 
ATOM      2  C   UNL     1       2.388   8.125  17.852  0.00  0.00    +0.000 A 
ATOM      3  C   UNL     1       1.675   9.317  17.805  0.00  0.00    +0.000 A 
ATOM      4  C   UNL     1       1.009   9.774  18.942  0.00  0.00    +0.000 A 
ATOM      5  C   UNL     1       1.023   9.040  20.130  0.00  0.00    +0.000 A 
ATOM      6  C   UNL     1       1.744   7.837  20.178  0.00  0.00    +0.000 A 
ENDROOT
BRANCH   1  15
ATOM      7  C   UNL     1       3.926   2.848  20.233  0.00  0.00    +0.000 A 
ATOM      8  N   UNL     1       2.937   2.562  21.105  0.00  0.00    +0.000 NA
ATOM      9  C   UNL     1       1.964   3.467  21.320  0.00  0.00    +0.000 A 
ATOM     10  C   UNL     1       1.897   4.714  20.725  0.00  0.00    +0.000 A 
ATOM     11  C   UNL     1       2.958   5.052  19.872  0.00  0.00    +0.000 A 
ATOM     12  C   UNL     1       3.968   4.116  19.609  0.00  0.00    +0.000 A 
ATOM     13  C   UNL     1       4.852   4.712  18.669  0.00  0.00    +0.000 A 
ATOM     14  C   UNL     1       4.358   5.955  18.355  0.00  0.00    +0.000 A 
ATOM     15  N   UNL     1       3.215   6.187  19.096  0.00  0.00    +0.000 N 
BRANCH   7  16
ATOM     16  N   UNL     1       4.847   1.842  19.988  0.00  0.00    +0.000 N 
ATOM     17  H   UNL     1       5.139   1.411  20.857  0.00  0.00    +0.000 HD
ATOM     18  H   UNL     1       5.565   2.059  19.315  0.00  0.00    +0.000 HD
ENDBRANCH   7  16
ENDBRANCH   1  15
BRANCH   5  19
ATOM     19  N   UNL     1       0.380   9.509  21.302  0.00  0.00    +0.000 N 
ATOM     20  C   UNL     1      -0.352  10.684  21.370  0.00  0.00    +0.000 C 
ATOM     21  O   UNL     1      -0.731  11.323  20.396  0.00  0.00    +0.000 OA
ATOM     22  N   UNL     1      -0.580  11.074  22.683  0.00  0.00    +0.000 N 
ATOM     23  H   UNL     1       0.225   8.850  22.051  0.00  0.00    +0.000 HD
ATOM     24  H   UNL     1       0.177  10.867  23.318  0.00  0.00    +0.000 HD
BRANCH  22  25
ATOM     25  C   UNL     1      -1.383  12.204  22.983  0.00  0.00    +0.000 A 
ATOM     26  C   UNL     1      -0.833  13.488  23.050  0.00  0.00    +0.000 A 
ATOM     27  C   UNL     1      -1.628  14.588  23.374  0.00  0.00    +0.000 A 
ATOM     28  C   UNL     1      -2.980  14.409  23.648  0.00  0.00    +0.000 A 
ATOM     29  C   UNL     1      -3.554  13.129  23.587  0.00  0.00    +0.000 A 
ATOM     30  C   UNL     1      -2.749  12.030  23.223  0.00  0.00    +0.000 A 
BRANCH  29  31
ATOM     31  C   UNL     1      -5.002  12.917  23.955  0.00  0.00    +0.000 C 
ATOM     32  F   UNL     1      -5.180  12.075  25.010  0.00  0.00    +0.000 F 
ATOM     33  F   UNL     1      -5.628  14.078  24.291  0.00  0.00    +0.000 F 
ATOM     34  F   UNL     1      -5.724  12.386  22.929  0.00  0.00    +0.000 F 
ENDBRANCH  29  31
ENDBRANCH  22  25
ENDBRANCH   5  19
TORSDOF 5
ENDMDL
MODEL 4
REMARK VINA RESULT:      -8.7      6.970      9.435
REMARK  Name = 
REMARK  5 active torsions:
REMARK  status: ('A' for Active; 'I' for Inactive)
REMARK    1  A    between atoms: N_1  and  C_2
REMARK    2  A    between atoms: N_10  and  C_11
REMARK    3  A    between atoms: C_15  and  N_16
REMARK    4  A    between atoms: N_19  and  C_20
REMARK    5  A    between atoms: C_24  and  C_25
REMARK                            x       y       z     vdW  Elec       q    Type
REMARK                         _______ _______ _______ _____ _____    ______ ____
ROOT
ATOM      1  C   UNL     1       5.300   4.650  17.349  0.00  0.00    +0.000 A 
ATOM      2  C   UNL     1       5.651   4.455  16.008  0.00  0.00    +0.000 A 
ATOM      3  C   UNL     1       6.760   5.105  15.477  0.00  0.00    +0.000 A 
ATOM      4  C   UNL     1       7.514   5.959  16.280  0.00  0.00    +0.000 A 
ATOM      5  C   UNL     1       7.162   6.199  17.610  0.00  0.00    +0.000 A 
ATOM      6  C   UNL     1       6.043   5.543  18.146  0.00  0.00    +0.000 A 
ENDROOT
BRANCH   1  15
ATOM      7  C   UNL     1       1.266   3.633  19.983  0.00  0.00    +0.000 A 
ATOM      8  N   UNL     1       1.160   4.823  20.611  0.00  0.00    +0.000 NA
ATOM      9  C   UNL     1       2.045   5.797  20.333  0.00  0.00    +0.000 A 
ATOM     10  C   UNL     1       3.101   5.680  19.448  0.00  0.00    +0.000 A 
ATOM     11  C   UNL     1       3.266   4.426  18.842  0.00  0.00    +0.000 A 
ATOM     12  C   UNL     1       2.341   3.402  19.093  0.00  0.00    +0.000 A 
ATOM     13  C   UNL     1       2.726   2.290  18.296  0.00  0.00    +0.000 A 
ATOM     14  C   UNL     1       3.829   2.658  17.562  0.00  0.00    +0.000 A 
ATOM     15  N   UNL     1       4.184   3.950  17.900  0.00  0.00    +0.000 N 
BRANCH   7  16
ATOM     16  N   UNL     1       0.274   2.702  20.245  0.00  0.00    +0.000 N 
ATOM     17  H   UNL     1      -0.321   2.582  19.435  0.00  0.00    +0.000 HD
ATOM     18  H   UNL     1      -0.176   2.783  21.143  0.00  0.00    +0.000 HD
ENDBRANCH   7  16
ENDBRANCH   1  15
BRANCH   5  19
ATOM     19  N   UNL     1       7.939   7.038  18.445  0.00  0.00    +0.000 N 
ATOM     20  C   UNL     1       8.060   8.409  18.277  0.00  0.00    +0.000 C 
ATOM     21  O   UNL     1       7.337   9.085  17.555  0.00  0.00    +0.000 OA
ATOM     22  N   UNL     1       9.125   8.926  19.002  0.00  0.00    +0.000 N 
ATOM     23  H   UNL     1       8.214   6.681  19.349  0.00  0.00    +0.000 HD
ATOM     24  H   UNL     1       9.925   8.313  19.064  0.00  0.00    +0.000 HD
BRANCH  22  25
ATOM     25  C   UNL     1       9.376  10.321  19.039  0.00  0.00    +0.000 A 
ATOM     26  C   UNL     1       9.841  11.007  17.912  0.00  0.00    +0.000 A 
ATOM     27  C   UNL     1      10.112  12.374  17.970  0.00  0.00    +0.000 A 
ATOM     28  C   UNL     1       9.933  13.065  19.164  0.00  0.00    +0.000 A 
ATOM     29  C   UNL     1       9.467  12.399  20.309  0.00  0.00    +0.000 A 
ATOM     30  C   UNL     1       9.162  11.025  20.228  0.00  0.00    +0.000 A 
BRANCH  29  31
ATOM     31  C   UNL     1       9.341  13.126  21.624  0.00  0.00    +0.000 C 
ATOM     32  F   UNL     1       8.197  13.856  21.738  0.00  0.00    +0.000 F 
ATOM     33  F   UNL     1       9.352  12.278  22.690  0.00  0.00    +0.000 F 
ATOM     34  F   UNL     1      10.364  14.001  21.833  0.00  0.00    +0.000 F 
ENDBRANCH  29  31
ENDBRANCH  22  25
ENDBRANCH   5  19
TORSDOF 5
ENDMDL
MODEL 5
REMARK VINA RESULT:      -8.6      6.232     10.698
REMARK  Name = 
REMARK  5 active torsions:
REMARK  status: ('A' for Active; 'I' for Inactive)
REMARK    1  A    between atoms: N_1  and  C_2
REMARK    2  A    between atoms: N_10  and  C_11
REMARK    3  A    between atoms: C_15  and  N_16
REMARK    4  A    between atoms: N_19  and  C_20
REMARK    5  A    between atoms: C_24  and  C_25
REMARK                            x       y       z     vdW  Elec       q    Type
REMARK                         _______ _______ _______ _____ _____    ______ ____
ROOT
ATOM      1  C   UNL     1       2.605   7.087  19.000  0.00  0.00    +0.000 A 
ATOM      2  C   UNL     1       2.649   7.837  17.820  0.00  0.00    +0.000 A 
ATOM      3  C   UNL     1       2.018   9.075  17.756  0.00  0.00    +0.000 A 
ATOM      4  C   UNL     1       1.331   9.561  18.867  0.00  0.00    +0.000 A 
ATOM      5  C   UNL     1       1.240   8.815  20.044  0.00  0.00    +0.000 A 
ATOM      6  C   UNL     1       1.878   7.567  20.109  0.00  0.00    +0.000 A 
ENDROOT
BRANCH   1  15
ATOM      7  C   UNL     1       3.480   2.242  19.033  0.00  0.00    +0.000 A 
ATOM      8  N   UNL     1       2.205   1.830  18.880  0.00  0.00    +0.000 NA
ATOM      9  C   UNL     1       1.227   2.745  18.745  0.00  0.00    +0.000 A 
ATOM     10  C   UNL     1       1.415   4.115  18.771  0.00  0.00    +0.000 A 
ATOM     11  C   UNL     1       2.726   4.557  19.003  0.00  0.00    +0.000 A 
ATOM     12  C   UNL     1       3.767   3.624  19.118  0.00  0.00    +0.000 A 
ATOM     13  C   UNL     1       4.970   4.364  19.276  0.00  0.00    +0.000 A 
ATOM     14  C   UNL     1       4.656   5.700  19.218  0.00  0.00    +0.000 A 
ATOM     15  N   UNL     1       3.288   5.836  19.074  0.00  0.00    +0.000 N 
BRANCH   7  16
ATOM     16  N   UNL     1       4.450   1.254  19.078  0.00  0.00    +0.000 N 
ATOM     17  H   UNL     1       5.371   1.667  19.163  0.00  0.00    +0.000 HD
ATOM     18  H   UNL     1       4.340   0.501  18.417  0.00  0.00    +0.000 HD
ENDBRANCH   7  16
ENDBRANCH   1  15
BRANCH   5  19
ATOM     19  N   UNL     1       0.574   9.313  21.191  0.00  0.00    +0.000 N 
ATOM     20  C   UNL     1      -0.117  10.514  21.230  0.00  0.00    +0.000 C 
ATOM     21  O   UNL     1      -0.437  11.161  20.240  0.00  0.00    +0.000 OA
ATOM     22  N   UNL     1      -0.376  10.918  22.533  0.00  0.00    +0.000 N 
ATOM     23  H   UNL     1       0.369   8.664  21.937  0.00  0.00    +0.000 HD
ATOM     24  H   UNL     1       0.351  10.686  23.194  0.00  0.00    +0.000 HD
BRANCH  22  25
ATOM     25  C   UNL     1      -1.146  12.078  22.800  0.00  0.00    +0.000 A 
ATOM     26  C   UNL     1      -0.582  13.356  22.739  0.00  0.00    +0.000 A 
ATOM     27  C   UNL     1      -1.344  14.487  23.033  0.00  0.00    +0.000 A 
ATOM     28  C   UNL     1      -2.677  14.347  23.404  0.00  0.00    +0.000 A 
ATOM     29  C   UNL     1      -3.266  13.074  23.473  0.00  0.00    +0.000 A 
ATOM     30  C   UNL     1      -2.496  11.941  23.138  0.00  0.00    +0.000 A 
BRANCH  29  31
ATOM     31  C   UNL     1      -4.688  12.909  23.946  0.00  0.00    +0.000 C 
ATOM     32  F   UNL     1      -5.282  14.079  24.312  0.00  0.00    +0.000 F 
ATOM     33  F   UNL     1      -5.493  12.363  22.993  0.00  0.00    +0.000 F 
ATOM     34  F   UNL     1      -4.782  12.090  25.029  0.00  0.00    +0.000 F 
ENDBRANCH  29  31
ENDBRANCH  22  25
ENDBRANCH   5  19
TORSDOF 5
ENDMDL
MODEL 6
REMARK VINA RESULT:      -8.5      4.090      6.105
REMARK  Name = 
REMARK  5 active torsions:
REMARK  status: ('A' for Active; 'I' for Inactive)
REMARK    1  A    between atoms: N_1  and  C_2
REMARK    2  A    between atoms: N_10  and  C_11
REMARK    3  A    between atoms: C_15  and  N_16
REMARK    4  A    between atoms: N_19  and  C_20
REMARK    5  A    between atoms: C_24  and  C_25
REMARK                            x       y       z     vdW  Elec       q    Type
REMARK                         _______ _______ _______ _____ _____    ______ ____
ROOT
ATOM      1  C   UNL     1       2.248   6.760  19.764  0.00  0.00    +0.000 A 
ATOM      2  C   UNL     1       1.674   5.914  20.719  0.00  0.00    +0.000 A 
ATOM      3  C   UNL     1       2.165   4.624  20.893  0.00  0.00    +0.000 A 
ATOM      4  C   UNL     1       3.223   4.173  20.105  0.00  0.00    +0.000 A 
ATOM      5  C   UNL     1       3.788   4.985  19.119  0.00  0.00    +0.000 A 
ATOM      6  C   UNL     1       3.293   6.287  18.945  0.00  0.00    +0.000 A 
ENDROOT
BRANCH   1  15
ATOM      7  C   UNL     1       0.313  11.164  20.814  0.00  0.00    +0.000 A 
ATOM      8  N   UNL     1       0.061  10.940  22.120  0.00  0.00    +0.000 NA
ATOM      9  C   UNL     1       0.404   9.760  22.666  0.00  0.00    +0.000 A 
ATOM     10  C   UNL     1       0.993   8.711  21.981  0.00  0.00    +0.000 A 
ATOM     11  C   UNL     1       1.194   8.904  20.607  0.00  0.00    +0.000 A 
ATOM     12  C   UNL     1       0.870  10.136  20.019  0.00  0.00    +0.000 A 
ATOM     13  C   UNL     1       1.245  10.053  18.651  0.00  0.00    +0.000 A 
ATOM     14  C   UNL     1       1.811   8.818  18.441  0.00  0.00    +0.000 A 
ATOM     15  N   UNL     1       1.767   8.096  19.618  0.00  0.00    +0.000 N 
BRANCH   7  16
ATOM     16  N   UNL     1       0.017  12.429  20.332  0.00  0.00    +0.000 N 
ATOM     17  H   UNL     1      -0.645  12.370  19.568  0.00  0.00    +0.000 HD
ATOM     18  H   UNL     1       0.803  13.050  20.218  0.00  0.00    +0.000 HD
ENDBRANCH   7  16
ENDBRANCH   1  15
BRANCH   5  19
ATOM     19  N   UNL     1       4.885   4.551  18.336  0.00  0.00    +0.000 N 
ATOM     20  C   UNL     1       5.013   4.789  16.976  0.00  0.00    +0.000 C 
ATOM     21  O   UNL     1       4.334   5.591  16.346  0.00  0.00    +0.000 OA
ATOM     22  N   UNL     1       5.984   3.981  16.400  0.00  0.00    +0.000 N 
ATOM     23  H   UNL     1       5.732   4.283  18.816  0.00  0.00    +0.000 HD
ATOM     24  H   UNL     1       6.049   3.056  16.800  0.00  0.00    +0.000 HD
BRANCH  22  25
ATOM     25  C   UNL     1       6.337   4.120  15.034  0.00  0.00    +0.000 A 
ATOM     26  C   UNL     1       7.459   4.858  14.644  0.00  0.00    +0.000 A 
ATOM     27  C   UNL     1       7.778   5.012  13.295  0.00  0.00    +0.000 A 
ATOM     28  C   UNL     1       6.967   4.438  12.322  0.00  0.00    +0.000 A 
ATOM     29  C   UNL     1       5.835   3.693  12.688  0.00  0.00    +0.000 A 
ATOM     30  C   UNL     1       5.543   3.514  14.056  0.00  0.00    +0.000 A 
BRANCH  29  31
ATOM     31  C   UNL     1       4.910   3.131  11.638  0.00  0.00    +0.000 C 
ATOM     32  F   UNL     1       5.333   1.947  11.114  0.00  0.00    +0.000 F 
ATOM     33  F   UNL     1       3.656   2.903  12.117  0.00  0.00    +0.000 F 
ATOM     34  F   UNL     1       4.758   3.973  10.578  0.00  0.00    +0.000 F 
ENDBRANCH  29  31
ENDBRANCH  22  25
ENDBRANCH   5  19
TORSDOF 5
ENDMDL
MODEL 7
REMARK VINA RESULT:      -8.5      2.702      3.478
REMARK  Name = 
REMARK  5 active torsions:
REMARK  status: ('A' for Active; 'I' for Inactive)
REMARK    1  A    between atoms: N_1  and  C_2
REMARK    2  A    between atoms: N_10  and  C_11
REMARK    3  A    between atoms: C_15  and  N_16
REMARK    4  A    between atoms: N_19  and  C_20
REMARK    5  A    between atoms: C_24  and  C_25
REMARK                            x       y       z     vdW  Elec       q    Type
REMARK                         _______ _______ _______ _____ _____    ______ ____
ROOT
ATOM      1  C   UNL     1      -0.338  11.850  18.929  0.00  0.00    +0.000 A 
ATOM      2  C   UNL     1       0.560  12.918  19.026  0.00  0.00    +0.000 A 
ATOM      3  C   UNL     1       1.892  12.744  18.667  0.00  0.00    +0.000 A 
ATOM      4  C   UNL     1       2.333  11.500  18.220  0.00  0.00    +0.000 A 
ATOM      5  C   UNL     1       1.465  10.408  18.149  0.00  0.00    +0.000 A 
ATOM      6  C   UNL     1       0.120  10.584  18.511  0.00  0.00    +0.000 A 
ENDROOT
BRANCH   1  15
ATOM      7  C   UNL     1      -5.249  11.953  18.596  0.00  0.00    +0.000 A 
ATOM      8  N   UNL     1      -5.351  11.499  17.330  0.00  0.00    +0.000 NA
ATOM      9  C   UNL     1      -4.234  11.168  16.655  0.00  0.00    +0.000 A 
ATOM     10  C   UNL     1      -2.948  11.274  17.152  0.00  0.00    +0.000 A 
ATOM     11  C   UNL     1      -2.823  11.812  18.441  0.00  0.00    +0.000 A 
ATOM     12  C   UNL     1      -3.973  12.139  19.176  0.00  0.00    +0.000 A 
ATOM     13  C   UNL     1      -3.536  12.588  20.451  0.00  0.00    +0.000 A 
ATOM     14  C   UNL     1      -2.165  12.495  20.486  0.00  0.00    +0.000 A 
ATOM     15  N   UNL     1      -1.713  12.045  19.260  0.00  0.00    +0.000 N 
BRANCH   7  16
ATOM     16  N   UNL     1      -6.438  12.192  19.267  0.00  0.00    +0.000 N 
ATOM     17  H   UNL     1      -6.492  13.162  19.553  0.00  0.00    +0.000 HD
ATOM     18  H   UNL     1      -6.709  11.494  19.942  0.00  0.00    +0.000 HD
ENDBRANCH   7  16
ENDBRANCH   1  15
BRANCH   5  19
ATOM     19  N   UNL     1       1.892   9.147  17.665  0.00  0.00    +0.000 N 
ATOM     20  C   UNL     1       2.189   8.062  18.475  0.00  0.00    +0.000 C 
ATOM     21  O   UNL     1       1.895   7.981  19.661  0.00  0.00    +0.000 OA
ATOM     22  N   UNL     1       2.896   7.084  17.788  0.00  0.00    +0.000 N 
ATOM     23  H   UNL     1       1.733   8.937  16.690  0.00  0.00    +0.000 HD
ATOM     24  H   UNL     1       3.541   7.441  17.098  0.00  0.00    +0.000 HD
BRANCH  22  25
ATOM     25  C   UNL     1       3.228   5.851  18.405  0.00  0.00    +0.000 A 
ATOM     26  C   UNL     1       4.551   5.532  18.725  0.00  0.00    +0.000 A 
ATOM     27  C   UNL     1       4.868   4.303  19.306  0.00  0.00    +0.000 A 
ATOM     28  C   UNL     1       3.862   3.377  19.558  0.00  0.00    +0.000 A 
ATOM     29  C   UNL     1       2.526   3.674  19.244  0.00  0.00    +0.000 A 
ATOM     30  C   UNL     1       2.214   4.933  18.692  0.00  0.00    +0.000 A 
BRANCH  29  31
ATOM     31  C   UNL     1       1.441   2.646  19.446  0.00  0.00    +0.000 C 
ATOM     32  F   UNL     1       0.745   2.807  20.606  0.00  0.00    +0.000 F 
ATOM     33  F   UNL     1       0.515   2.665  18.448  0.00  0.00    +0.000 F 
ATOM     34  F   UNL     1       1.930   1.376  19.478  0.00  0.00    +0.000 F 
ENDBRANCH  29  31
ENDBRANCH  22  25
ENDBRANCH   5  19
TORSDOF 5
ENDMDL
MODEL 8
REMARK VINA RESULT:      -8.4      3.373      4.240
REMARK  Name = 
REMARK  5 active torsions:
REMARK  status: ('A' for Active; 'I' for Inactive)
REMARK    1  A    between atoms: N_1  and  C_2
REMARK    2  A    between atoms: N_10  and  C_11
REMARK    3  A    between atoms: C_15  and  N_16
REMARK    4  A    between atoms: N_19  and  C_20
REMARK    5  A    between atoms: C_24  and  C_25
REMARK                            x       y       z     vdW  Elec       q    Type
REMARK                         _______ _______ _______ _____ _____    ______ ____
ROOT
ATOM      1  C   UNL     1      -1.742  12.527  20.825  0.00  0.00    +0.000 A 
ATOM      2  C   UNL     1      -1.063  13.628  20.290  0.00  0.00    +0.000 A 
ATOM      3  C   UNL     1       0.304  13.552  20.047  0.00  0.00    +0.000 A 
ATOM      4  C   UNL     1       0.999  12.382  20.349  0.00  0.00    +0.000 A 
ATOM      5  C   UNL     1       0.351  11.283  20.918  0.00  0.00    +0.000 A 
ATOM      6  C   UNL     1      -1.029  11.359  21.161  0.00  0.00    +0.000 A 
ENDROOT
BRANCH   1  15
ATOM      7  C   UNL     1      -6.127  12.678  23.059  0.00  0.00    +0.000 A 
ATOM      8  N   UNL     1      -5.683  12.570  24.329  0.00  0.00    +0.000 NA
ATOM      9  C   UNL     1      -4.359  12.502  24.562  0.00  0.00    +0.000 A 
ATOM     10  C   UNL     1      -3.381  12.513  23.584  0.00  0.00    +0.000 A 
ATOM     11  C   UNL     1      -3.831  12.552  22.256  0.00  0.00    +0.000 A 
ATOM     12  C   UNL     1      -5.205  12.651  21.988  0.00  0.00    +0.000 A 
ATOM     13  C   UNL     1      -5.345  12.740  20.576  0.00  0.00    +0.000 A 
ATOM     14  C   UNL     1      -4.087  12.732  20.025  0.00  0.00    +0.000 A 
ATOM     15  N   UNL     1      -3.153  12.595  21.034  0.00  0.00    +0.000 N 
BRANCH   7  16
ATOM     16  N   UNL     1      -7.493  12.832  22.891  0.00  0.00    +0.000 N 
ATOM     17  H   UNL     1      -7.989  12.507  23.712  0.00  0.00    +0.000 HD
ATOM     18  H   UNL     1      -7.858  12.560  21.992  0.00  0.00    +0.000 HD
ENDBRANCH   7  16
ENDBRANCH   1  15
BRANCH   5  19
ATOM     19  N   UNL     1       1.038  10.077  21.197  0.00  0.00    +0.000 N 
ATOM     20  C   UNL     1       1.249   9.068  20.269  0.00  0.00    +0.000 C 
ATOM     21  O   UNL     1       1.086   9.193  19.061  0.00  0.00    +0.000 OA
ATOM     22  N   UNL     1       1.636   7.881  20.877  0.00  0.00    +0.000 N 
ATOM     23  H   UNL     1       1.623  10.046  22.020  0.00  0.00    +0.000 HD
ATOM     24  H   UNL     1       1.208   7.713  21.776  0.00  0.00    +0.000 HD
BRANCH  22  25
ATOM     25  C   UNL     1       1.985   6.744  20.105  0.00  0.00    +0.000 A 
ATOM     26  C   UNL     1       2.746   6.863  18.938  0.00  0.00    +0.000 A 
ATOM     27  C   UNL     1       3.058   5.739  18.172  0.00  0.00    +0.000 A 
ATOM     28  C   UNL     1       2.598   4.486  18.562  0.00  0.00    +0.000 A 
ATOM     29  C   UNL     1       1.832   4.341  19.729  0.00  0.00    +0.000 A 
ATOM     30  C   UNL     1       1.553   5.479  20.515  0.00  0.00    +0.000 A 
BRANCH  29  31
ATOM     31  C   UNL     1       1.268   2.998  20.118  0.00  0.00    +0.000 C 
ATOM     32  F   UNL     1       0.112   2.681  19.470  0.00  0.00    +0.000 F 
ATOM     33  F   UNL     1       2.132   1.977  19.863  0.00  0.00    +0.000 F 
ATOM     34  F   UNL     1       0.981   2.921  21.447  0.00  0.00    +0.000 F 
ENDBRANCH  29  31
ENDBRANCH  22  25
ENDBRANCH   5  19
TORSDOF 5
ENDMDL
MODEL 9
REMARK VINA RESULT:      -8.4      2.905      3.743
REMARK  Name = 
REMARK  5 active torsions:
REMARK  status: ('A' for Active; 'I' for Inactive)
REMARK    1  A    between atoms: N_1  and  C_2
REMARK    2  A    between atoms: N_10  and  C_11
REMARK    3  A    between atoms: C_15  and  N_16
REMARK    4  A    between atoms: N_19  and  C_20
REMARK    5  A    between atoms: C_24  and  C_25
REMARK                            x       y       z     vdW  Elec       q    Type
REMARK                         _______ _______ _______ _____ _____    ______ ____
ROOT
ATOM      1  C   UNL     1      -1.529  12.388  20.251  0.00  0.00    +0.000 A 
ATOM      2  C   UNL     1      -0.778  13.504  19.867  0.00  0.00    +0.000 A 
ATOM      3  C   UNL     1       0.611  13.436  19.847  0.00  0.00    +0.000 A 
ATOM      4  C   UNL     1       1.254  12.258  20.221  0.00  0.00    +0.000 A 
ATOM      5  C   UNL     1       0.528  11.142  20.644  0.00  0.00    +0.000 A 
ATOM      6  C   UNL     1      -0.874  11.210  20.663  0.00  0.00    +0.000 A 
ENDROOT
BRANCH   1  15
ATOM      7  C   UNL     1      -6.194  12.017  18.722  0.00  0.00    +0.000 A 
ATOM      8  N   UNL     1      -5.938  11.556  17.481  0.00  0.00    +0.000 NA
ATOM      9  C   UNL     1      -4.665  11.334  17.108  0.00  0.00    +0.000 A 
ATOM     10  C   UNL     1      -3.556  11.563  17.903  0.00  0.00    +0.000 A 
ATOM     11  C   UNL     1      -3.803  12.111  19.170  0.00  0.00    +0.000 A 
ATOM     12  C   UNL     1      -5.123  12.325  19.593  0.00  0.00    +0.000 A 
ATOM     13  C   UNL     1      -5.058  12.814  20.925  0.00  0.00    +0.000 A 
ATOM     14  C   UNL     1      -3.735  12.854  21.296  0.00  0.00    +0.000 A 
ATOM     15  N   UNL     1      -2.955  12.449  20.230  0.00  0.00    +0.000 N 
BRANCH   7  16
ATOM     16  N   UNL     1      -7.529  12.141  19.076  0.00  0.00    +0.000 N 
ATOM     17  H   UNL     1      -8.124  11.780  18.340  0.00  0.00    +0.000 HD
ATOM     18  H   UNL     1      -7.791  13.020  19.494  0.00  0.00    +0.000 HD
ENDBRANCH   7  16
ENDBRANCH   1  15
BRANCH   5  19
ATOM     19  N   UNL     1       1.167   9.927  20.994  0.00  0.00    +0.000 N 
ATOM     20  C   UNL     1       1.412   8.892  20.105  0.00  0.00    +0.000 C 
ATOM     21  O   UNL     1       1.331   8.991  18.887  0.00  0.00    +0.000 OA
ATOM     22  N   UNL     1       1.731   7.712  20.763  0.00  0.00    +0.000 N 
ATOM     23  H   UNL     1       1.697   9.903  21.853  0.00  0.00    +0.000 HD
ATOM     24  H   UNL     1       1.243   7.575  21.636  0.00  0.00    +0.000 HD
BRANCH  22  25
ATOM     25  C   UNL     1       2.101   6.549  20.041  0.00  0.00    +0.000 A 
ATOM     26  C   UNL     1       2.964   6.619  18.943  0.00  0.00    +0.000 A 
ATOM     27  C   UNL     1       3.298   5.471  18.223  0.00  0.00    +0.000 A 
ATOM     28  C   UNL     1       2.758   4.243  18.591  0.00  0.00    +0.000 A 
ATOM     29  C   UNL     1       1.890   4.147  19.689  0.00  0.00    +0.000 A 
ATOM     30  C   UNL     1       1.588   5.308  20.430  0.00  0.00    +0.000 A 
BRANCH  29  31
ATOM     31  C   UNL     1       1.243   2.832  20.047  0.00  0.00    +0.000 C 
ATOM     32  F   UNL     1       2.032   1.749  19.798  0.00  0.00    +0.000 F 
ATOM     33  F   UNL     1       0.911   2.758  21.365  0.00  0.00    +0.000 F 
ATOM     34  F   UNL     1       0.088   2.618  19.357  0.00  0.00    +0.000 F 
ENDBRANCH  29  31
ENDBRANCH  22  25
ENDBRANCH   5  19
TORSDOF 5
ENDMDL
