MODEL 1
REMARK VINA RESULT:      -5.8      0.000      0.000
REMARK  Name = 
REMARK  20 active torsions:
REMARK  status: ('A' for Active; 'I' for Inactive)
REMARK    1  A    between atoms: C_1  and  O_2
REMARK    2  A    between atoms: O_2  and  C_3
REMARK    3  A    between atoms: C_3  and  C_4
REMARK    4  A    between atoms: C_4  and  O_5
REMARK    5  A    between atoms: O_5  and  P_6
REMARK    6  A    between atoms: P_6  and  O_8
REMARK    7  A    between atoms: P_6  and  C_13
REMARK    8  A    between atoms: O_8  and  C_9
REMARK    9  A    between atoms: C_9  and  C_10
REMARK   10  A    between atoms: C_10  and  O_11
REMARK   11  A    between atoms: O_11  and  C_12
REMARK   12  A    between atoms: C_13  and  N_14
REMARK   13  A    between atoms: C_13  and  C_25
REMARK   14  A    between atoms: N_14  and  C_15
REMARK   15  A    between atoms: C_15  and  S_16
REMARK   16  A    between atoms: S_16  and  C_17
REMARK   17  A    between atoms: C_18  and  C_19
REMARK   18  A    between atoms: C_18  and  C_21
REMARK   19  A    between atoms: C_21  and  O_23
REMARK   20  A    between atoms: O_23  and  C_24
REMARK                            x       y       z     vdW  Elec       q    Type
REMARK                         _______ _______ _______ _____ _____    ______ ____
ROOT
ATOM      1  C   UNL     1       4.203   5.680  18.523  0.00  0.00    +0.000 C 
ENDROOT
BRANCH   1   2
ATOM      2  C   UNL     1       3.794   4.225  18.348  0.00  0.00    +0.000 A 
ATOM      3  C   UNL     1       2.961   3.779  17.311  0.00  0.00    +0.000 A 
ATOM      4  C   UNL     1       2.667   2.418  17.175  0.00  0.00    +0.000 A 
ATOM      5  C   UNL     1       3.205   1.486  18.065  0.00  0.00    +0.000 A 
ATOM      6  C   UNL     1       4.039   1.912  19.087  0.00  0.00    +0.000 A 
ATOM      7  C   UNL     1       4.337   3.267  19.219  0.00  0.00    +0.000 A 
ATOM      8  F   UNL     1       5.147   3.648  20.216  0.00  0.00    +0.000 F 
ENDBRANCH   1   2
BRANCH   1   9
ATOM      9  N   UNL     1       3.013   6.565  18.450  0.00  0.00    +0.000 N 
ATOM     10  H   UNL     1       2.616   6.711  17.519  0.00  0.00    +0.000 HD
BRANCH   9  11
ATOM     11  C   UNL     1       2.227   7.004  19.522  0.00  0.00    +0.000 C 
ATOM     12  C   UNL     1       1.648   8.242  19.576  0.00  0.00    +0.000 C 
BRANCH  12  13
ATOM     13  C   UNL     1       1.795   9.194  18.455  0.00  0.00    +0.000 C 
ATOM     14  O   UNL     1       2.693   9.147  17.624  0.00  0.00    +0.000 OA
BRANCH  13  15
ATOM     15  O   UNL     1       0.779  10.091  18.451  0.00  0.00    +0.000 OA
ATOM     16  C   UNL     1       1.184  11.432  18.739  0.00  0.00    +0.000 C 
ENDBRANCH  13  15
ENDBRANCH  12  13
BRANCH  12  17
ATOM     17  C   UNL     1       0.798   8.595  20.785  0.00  0.00    +0.000 C 
ATOM     18  N   UNL     1       0.094   8.888  21.789  0.00  0.00    +0.000 NA
ENDBRANCH  12  17
BRANCH  11  19
ATOM     19  S   UNL     1       2.062   5.961  20.978  0.00  0.00    +0.000 S 
ATOM     20  C   UNL     1       1.031   4.597  20.380  0.00  0.00    +0.000 C 
ENDBRANCH  11  19
ENDBRANCH   9  11
ENDBRANCH   1   9
BRANCH   1  21
ATOM     21  P   UNL     1       5.579   6.437  17.583  0.00  0.00    +0.000 P 
ATOM     22  O   UNL     1       4.624   6.756  16.418  0.00  0.00    +0.000 OA
BRANCH  21  23
ATOM     23  O   UNL     1       6.256   4.949  17.286  0.00  0.00    +0.000 OA
BRANCH  23  24
ATOM     24  C   UNL     1       6.939   4.663  16.063  0.00  0.00    +0.000 C 
BRANCH  24  25
ATOM     25  C   UNL     1       6.106   3.898  15.032  0.00  0.00    +0.000 C 
BRANCH  25  26
ATOM     26  O   UNL     1       6.636   4.162  13.733  0.00  0.00    +0.000 OA
ATOM     27  C   UNL     1       5.928   3.470  12.717  0.00  0.00    +0.000 C 
ENDBRANCH  25  26
ENDBRANCH  24  25
ENDBRANCH  23  24
ENDBRANCH  21  23
BRANCH  21  28
ATOM     28  O   UNL     1       6.879   7.153  16.695  0.00  0.00    +0.000 OA
BRANCH  28  29
ATOM     29  C   UNL     1       7.992   7.605  17.472  0.00  0.00    +0.000 C 
BRANCH  29  30
ATOM     30  C   UNL     1       7.901   9.095  17.786  0.00  0.00    +0.000 C 
BRANCH  30  32
ATOM     31  C   UNL     1       9.350  10.733  18.680  0.00  0.00    +0.000 C 
ATOM     32  O   UNL     1       8.865   9.403  18.794  0.00  0.00    +0.000 OA
ENDBRANCH  30  32
ENDBRANCH  29  30
ENDBRANCH  28  29
ENDBRANCH  21  28
ENDBRANCH   1  21
TORSDOF 16
ENDMDL
MODEL 2
REMARK VINA RESULT:      -5.7      2.951      7.247
REMARK  Name = 
REMARK  20 active torsions:
REMARK  status: ('A' for Active; 'I' for Inactive)
REMARK    1  A    between atoms: C_1  and  O_2
REMARK    2  A    between atoms: O_2  and  C_3
REMARK    3  A    between atoms: C_3  and  C_4
REMARK    4  A    between atoms: C_4  and  O_5
REMARK    5  A    between atoms: O_5  and  P_6
REMARK    6  A    between atoms: P_6  and  O_8
REMARK    7  A    between atoms: P_6  and  C_13
REMARK    8  A    between atoms: O_8  and  C_9
REMARK    9  A    between atoms: C_9  and  C_10
REMARK   10  A    between atoms: C_10  and  O_11
REMARK   11  A    between atoms: O_11  and  C_12
REMARK   12  A    between atoms: C_13  and  N_14
REMARK   13  A    between atoms: C_13  and  C_25
REMARK   14  A    between atoms: N_14  and  C_15
REMARK   15  A    between atoms: C_15  and  S_16
REMARK   16  A    between atoms: S_16  and  C_17
REMARK   17  A    between atoms: C_18  and  C_19
REMARK   18  A    between atoms: C_18  and  C_21
REMARK   19  A    between atoms: C_21  and  O_23
REMARK   20  A    between atoms: O_23  and  C_24
REMARK                            x       y       z     vdW  Elec       q    Type
REMARK                         _______ _______ _______ _____ _____    ______ ____
ROOT
ATOM      1  C   UNL     1       2.646   6.212  18.595  0.00  0.00    +0.000 C 
ENDROOT
BRANCH   1   2
ATOM      2  C   UNL     1       2.107   5.009  19.356  0.00  0.00    +0.000 A 
ATOM      3  C   UNL     1       2.359   4.784  20.717  0.00  0.00    +0.000 A 
ATOM      4  C   UNL     1       1.789   3.686  21.370  0.00  0.00    +0.000 A 
ATOM      5  C   UNL     1       0.957   2.804  20.677  0.00  0.00    +0.000 A 
ATOM      6  C   UNL     1       0.691   3.021  19.334  0.00  0.00    +0.000 A 
ATOM      7  C   UNL     1       1.254   4.118  18.684  0.00  0.00    +0.000 A 
ATOM      8  F   UNL     1       0.978   4.302  17.387  0.00  0.00    +0.000 F 
ENDBRANCH   1   2
BRANCH   1   9
ATOM      9  N   UNL     1       4.114   6.330  18.783  0.00  0.00    +0.000 N 
ATOM     10  H   UNL     1       4.435   6.481  19.742  0.00  0.00    +0.000 HD
BRANCH   9  11
ATOM     11  C   UNL     1       5.108   6.000  17.855  0.00  0.00    +0.000 C 
ATOM     12  C   UNL     1       5.577   4.727  17.672  0.00  0.00    +0.000 C 
BRANCH  12  13
ATOM     13  C   UNL     1       5.014   3.598  18.440  0.00  0.00    +0.000 C 
ATOM     14  O   UNL     1       5.229   3.397  19.628  0.00  0.00    +0.000 OA
BRANCH  13  15
ATOM     15  O   UNL     1       4.197   2.847  17.662  0.00  0.00    +0.000 OA
ATOM     16  C   UNL     1       3.780   1.621  18.266  0.00  0.00    +0.000 C 
ENDBRANCH  13  15
ENDBRANCH  12  13
BRANCH  12  17
ATOM     17  C   UNL     1       6.644   4.492  16.617  0.00  0.00    +0.000 C 
ATOM     18  N   UNL     1       7.531   4.296  15.741  0.00  0.00    +0.000 NA
ENDBRANCH  12  17
BRANCH  11  19
ATOM     19  S   UNL     1       5.926   7.312  16.936  0.00  0.00    +0.000 S 
ATOM     20  C   UNL     1       7.514   7.471  17.795  0.00  0.00    +0.000 C 
ENDBRANCH  11  19
ENDBRANCH   9  11
ENDBRANCH   1   9
BRANCH   1  21
ATOM     21  P   UNL     1       1.885   7.872  18.712  0.00  0.00    +0.000 P 
ATOM     22  O   UNL     1       3.109   8.495  18.015  0.00  0.00    +0.000 OA
BRANCH  21  23
ATOM     23  O   UNL     1       2.154   7.931  20.350  0.00  0.00    +0.000 OA
BRANCH  23  24
ATOM     24  C   UNL     1       1.348   8.732  21.218  0.00  0.00    +0.000 C 
BRANCH  24  25
ATOM     25  C   UNL     1      -0.041   8.159  21.507  0.00  0.00    +0.000 C 
BRANCH  25  26
ATOM     26  O   UNL     1      -0.621   8.893  22.584  0.00  0.00    +0.000 OA
ATOM     27  C   UNL     1      -0.288  10.272  22.531  0.00  0.00    +0.000 C 
ENDBRANCH  25  26
ENDBRANCH  24  25
ENDBRANCH  23  24
ENDBRANCH  21  23
BRANCH  21  28
ATOM     28  O   UNL     1       1.166   9.442  18.822  0.00  0.00    +0.000 OA
BRANCH  28  29
ATOM     29  C   UNL     1       0.078   9.695  17.929  0.00  0.00    +0.000 C 
BRANCH  29  30
ATOM     30  C   UNL     1      -1.048  10.470  18.606  0.00  0.00    +0.000 C 
BRANCH  30  32
ATOM     31  C   UNL     1      -0.646  12.785  18.364  0.00  0.00    +0.000 C 
ATOM     32  O   UNL     1      -0.494  11.646  19.198  0.00  0.00    +0.000 OA
ENDBRANCH  30  32
ENDBRANCH  29  30
ENDBRANCH  28  29
ENDBRANCH  21  28
ENDBRANCH   1  21
TORSDOF 16
ENDMDL
MODEL 3
REMARK VINA RESULT:      -5.7      2.668      7.060
REMARK  Name = 
REMARK  20 active torsions:
REMARK  status: ('A' for Active; 'I' for Inactive)
REMARK    1  A    between atoms: C_1  and  O_2
REMARK    2  A    between atoms: O_2  and  C_3
REMARK    3  A    between atoms: C_3  and  C_4
REMARK    4  A    between atoms: C_4  and  O_5
REMARK    5  A    between atoms: O_5  and  P_6
REMARK    6  A    between atoms: P_6  and  O_8
REMARK    7  A    between atoms: P_6  and  C_13
REMARK    8  A    between atoms: O_8  and  C_9
REMARK    9  A    between atoms: C_9  and  C_10
REMARK   10  A    between atoms: C_10  and  O_11
REMARK   11  A    between atoms: O_11  and  C_12
REMARK   12  A    between atoms: C_13  and  N_14
REMARK   13  A    between atoms: C_13  and  C_25
REMARK   14  A    between atoms: N_14  and  C_15
REMARK   15  A    between atoms: C_15  and  S_16
REMARK   16  A    between atoms: S_16  and  C_17
REMARK   17  A    between atoms: C_18  and  C_19
REMARK   18  A    between atoms: C_18  and  C_21
REMARK   19  A    between atoms: C_21  and  O_23
REMARK   20  A    between atoms: O_23  and  C_24
REMARK                            x       y       z     vdW  Elec       q    Type
REMARK                         _______ _______ _______ _____ _____    ______ ____
ROOT
ATOM      1  C   UNL     1       2.606   6.232  18.684  0.00  0.00    +0.000 C 
ENDROOT
BRANCH   1   2
ATOM      2  C   UNL     1       2.070   4.995  19.389  0.00  0.00    +0.000 A 
ATOM      3  C   UNL     1       2.240   4.757  20.760  0.00  0.00    +0.000 A 
ATOM      4  C   UNL     1       1.676   3.626  21.358  0.00  0.00    +0.000 A 
ATOM      5  C   UNL     1       0.929   2.723  20.599  0.00  0.00    +0.000 A 
ATOM      6  C   UNL     1       0.743   2.952  19.244  0.00  0.00    +0.000 A 
ATOM      7  C   UNL     1       1.301   4.082  18.649  0.00  0.00    +0.000 A 
ATOM      8  F   UNL     1       1.103   4.277  17.339  0.00  0.00    +0.000 F 
ENDBRANCH   1   2
BRANCH   1   9
ATOM      9  N   UNL     1       4.056   6.398  18.957  0.00  0.00    +0.000 N 
ATOM     10  H   UNL     1       4.304   7.072  19.684  0.00  0.00    +0.000 HD
BRANCH   9  11
ATOM     11  C   UNL     1       5.092   5.561  18.525  0.00  0.00    +0.000 C 
ATOM     12  C   UNL     1       5.916   5.861  17.475  0.00  0.00    +0.000 C 
BRANCH  12  13
ATOM     13  C   UNL     1       5.776   7.138  16.746  0.00  0.00    +0.000 C 
ATOM     14  O   UNL     1       5.248   7.252  15.648  0.00  0.00    +0.000 OA
BRANCH  13  15
ATOM     15  O   UNL     1       6.270   8.166  17.480  0.00  0.00    +0.000 OA
ATOM     16  C   UNL     1       7.697   8.194  17.557  0.00  0.00    +0.000 C 
ENDBRANCH  13  15
ENDBRANCH  12  13
BRANCH  12  17
ATOM     17  C   UNL     1       7.019   4.880  17.114  0.00  0.00    +0.000 C 
ATOM     18  N   UNL     1       7.934   4.065  16.814  0.00  0.00    +0.000 NA
ENDBRANCH  12  17
BRANCH  11  19
ATOM     19  S   UNL     1       5.288   3.940  19.280  0.00  0.00    +0.000 S 
ATOM     20  C   UNL     1       4.411   2.852  18.127  0.00  0.00    +0.000 C 
ENDBRANCH  11  19
ENDBRANCH   9  11
ENDBRANCH   1   9
BRANCH   1  21
ATOM     21  P   UNL     1       1.780   7.862  18.789  0.00  0.00    +0.000 P 
ATOM     22  O   UNL     1       2.981   8.529  18.092  0.00  0.00    +0.000 OA
BRANCH  21  23
ATOM     23  O   UNL     1       2.043   7.941  20.428  0.00  0.00    +0.000 OA
BRANCH  23  24
ATOM     24  C   UNL     1       1.045   8.429  21.328  0.00  0.00    +0.000 C 
BRANCH  24  25
ATOM     25  C   UNL     1       1.559   9.425  22.370  0.00  0.00    +0.000 C 
BRANCH  25  26
ATOM     26  O   UNL     1       0.597   9.523  23.419  0.00  0.00    +0.000 OA
ATOM     27  C   UNL     1      -0.634  10.065  22.966  0.00  0.00    +0.000 C 
ENDBRANCH  25  26
ENDBRANCH  24  25
ENDBRANCH  23  24
ENDBRANCH  21  23
BRANCH  21  28
ATOM     28  O   UNL     1       1.000   9.403  18.889  0.00  0.00    +0.000 OA
BRANCH  28  29
ATOM     29  C   UNL     1       0.026   9.677  17.878  0.00  0.00    +0.000 C 
BRANCH  29  30
ATOM     30  C   UNL     1      -1.193  10.400  18.441  0.00  0.00    +0.000 C 
BRANCH  30  32
ATOM     31  C   UNL     1      -2.451   9.981  16.486  0.00  0.00    +0.000 C 
ATOM     32  O   UNL     1      -2.368   9.801  17.892  0.00  0.00    +0.000 OA
ENDBRANCH  30  32
ENDBRANCH  29  30
ENDBRANCH  28  29
ENDBRANCH  21  28
ENDBRANCH   1  21
TORSDOF 16
ENDMDL
MODEL 4
REMARK VINA RESULT:      -5.6      3.163      7.046
REMARK  Name = 
REMARK  20 active torsions:
REMARK  status: ('A' for Active; 'I' for Inactive)
REMARK    1  A    between atoms: C_1  and  O_2
REMARK    2  A    between atoms: O_2  and  C_3
REMARK    3  A    between atoms: C_3  and  C_4
REMARK    4  A    between atoms: C_4  and  O_5
REMARK    5  A    between atoms: O_5  and  P_6
REMARK    6  A    between atoms: P_6  and  O_8
REMARK    7  A    between atoms: P_6  and  C_13
REMARK    8  A    between atoms: O_8  and  C_9
REMARK    9  A    between atoms: C_9  and  C_10
REMARK   10  A    between atoms: C_10  and  O_11
REMARK   11  A    between atoms: O_11  and  C_12
REMARK   12  A    between atoms: C_13  and  N_14
REMARK   13  A    between atoms: C_13  and  C_25
REMARK   14  A    between atoms: N_14  and  C_15
REMARK   15  A    between atoms: C_15  and  S_16
REMARK   16  A    between atoms: S_16  and  C_17
REMARK   17  A    between atoms: C_18  and  C_19
REMARK   18  A    between atoms: C_18  and  C_21
REMARK   19  A    between atoms: C_21  and  O_23
REMARK   20  A    between atoms: O_23  and  C_24
REMARK                            x       y       z     vdW  Elec       q    Type
REMARK                         _______ _______ _______ _____ _____    ______ ____
ROOT
ATOM      1  C   UNL     1       2.496   6.142  19.246  0.00  0.00    +0.000 C 
ENDROOT
BRANCH   1   2
ATOM      2  C   UNL     1       1.963   4.777  19.658  0.00  0.00    +0.000 A 
ATOM      3  C   UNL     1       2.084   4.265  20.958  0.00  0.00    +0.000 A 
ATOM      4  C   UNL     1       1.525   3.025  21.285  0.00  0.00    +0.000 A 
ATOM      5  C   UNL     1       0.832   2.286  20.324  0.00  0.00    +0.000 A 
ATOM      6  C   UNL     1       0.695   2.786  19.038  0.00  0.00    +0.000 A 
ATOM      7  C   UNL     1       1.248   4.024  18.713  0.00  0.00    +0.000 A 
ATOM      8  F   UNL     1       1.098   4.481  17.463  0.00  0.00    +0.000 F 
ENDBRANCH   1   2
BRANCH   1   9
ATOM      9  N   UNL     1       3.972   6.097  19.092  0.00  0.00    +0.000 N 
ATOM     10  H   UNL     1       4.516   6.107  19.958  0.00  0.00    +0.000 HD
BRANCH   9  11
ATOM     11  C   UNL     1       4.685   5.783  17.929  0.00  0.00    +0.000 C 
ATOM     12  C   UNL     1       5.104   4.518  17.620  0.00  0.00    +0.000 C 
BRANCH  12  13
ATOM     13  C   UNL     1       4.782   3.379  18.504  0.00  0.00    +0.000 C 
ATOM     14  O   UNL     1       5.143   3.288  19.670  0.00  0.00    +0.000 OA
BRANCH  13  15
ATOM     15  O   UNL     1       4.000   2.478  17.861  0.00  0.00    +0.000 OA
ATOM     16  C   UNL     1       3.873   1.226  18.539  0.00  0.00    +0.000 C 
ENDBRANCH  13  15
ENDBRANCH  12  13
BRANCH  12  17
ATOM     17  C   UNL     1       5.854   4.300  16.317  0.00  0.00    +0.000 C 
ATOM     18  N   UNL     1       6.477   4.118  15.235  0.00  0.00    +0.000 NA
ENDBRANCH  12  17
BRANCH  11  19
ATOM     19  S   UNL     1       5.212   7.109  16.834  0.00  0.00    +0.000 S 
ATOM     20  C   UNL     1       6.902   7.445  17.395  0.00  0.00    +0.000 C 
ENDBRANCH  11  19
ENDBRANCH   9  11
ENDBRANCH   1   9
BRANCH   1  21
ATOM     21  P   UNL     1       2.023   7.685  20.107  0.00  0.00    +0.000 P 
ATOM     22  O   UNL     1       0.917   6.934  20.872  0.00  0.00    +0.000 OA
BRANCH  21  23
ATOM     23  O   UNL     1       1.345   8.305  18.723  0.00  0.00    +0.000 OA
BRANCH  23  24
ATOM     24  C   UNL     1       1.668   9.614  18.247  0.00  0.00    +0.000 C 
BRANCH  24  25
ATOM     25  C   UNL     1       0.547  10.644  18.404  0.00  0.00    +0.000 C 
BRANCH  25  26
ATOM     26  O   UNL     1      -0.692   9.949  18.542  0.00  0.00    +0.000 OA
ATOM     27  C   UNL     1      -1.482  10.029  17.366  0.00  0.00    +0.000 C 
ENDBRANCH  25  26
ENDBRANCH  24  25
ENDBRANCH  23  24
ENDBRANCH  21  23
BRANCH  21  28
ATOM     28  O   UNL     1       1.576   9.145  20.922  0.00  0.00    +0.000 OA
BRANCH  28  29
ATOM     29  C   UNL     1       1.448   9.053  22.343  0.00  0.00    +0.000 C 
BRANCH  29  30
ATOM     30  C   UNL     1       0.093   9.557  22.829  0.00  0.00    +0.000 C 
BRANCH  30  32
ATOM     31  C   UNL     1      -0.570  11.686  22.047  0.00  0.00    +0.000 C 
ATOM     32  O   UNL     1      -0.520  10.295  21.769  0.00  0.00    +0.000 OA
ENDBRANCH  30  32
ENDBRANCH  29  30
ENDBRANCH  28  29
ENDBRANCH  21  28
ENDBRANCH   1  21
TORSDOF 16
ENDMDL
MODEL 5
REMARK VINA RESULT:      -5.6      3.090      7.213
REMARK  Name = 
REMARK  20 active torsions:
REMARK  status: ('A' for Active; 'I' for Inactive)
REMARK    1  A    between atoms: C_1  and  O_2
REMARK    2  A    between atoms: O_2  and  C_3
REMARK    3  A    between atoms: C_3  and  C_4
REMARK    4  A    between atoms: C_4  and  O_5
REMARK    5  A    between atoms: O_5  and  P_6
REMARK    6  A    between atoms: P_6  and  O_8
REMARK    7  A    between atoms: P_6  and  C_13
REMARK    8  A    between atoms: O_8  and  C_9
REMARK    9  A    between atoms: C_9  and  C_10
REMARK   10  A    between atoms: C_10  and  O_11
REMARK   11  A    between atoms: O_11  and  C_12
REMARK   12  A    between atoms: C_13  and  N_14
REMARK   13  A    between atoms: C_13  and  C_25
REMARK   14  A    between atoms: N_14  and  C_15
REMARK   15  A    between atoms: C_15  and  S_16
REMARK   16  A    between atoms: S_16  and  C_17
REMARK   17  A    between atoms: C_18  and  C_19
REMARK   18  A    between atoms: C_18  and  C_21
REMARK   19  A    between atoms: C_21  and  O_23
REMARK   20  A    between atoms: O_23  and  C_24
REMARK                            x       y       z     vdW  Elec       q    Type
REMARK                         _______ _______ _______ _____ _____    ______ ____
ROOT
ATOM      1  C   UNL     1       2.471   6.140  19.088  0.00  0.00    +0.000 C 
ENDROOT
BRANCH   1   2
ATOM      2  C   UNL     1       1.837   4.790  19.386  0.00  0.00    +0.000 A 
ATOM      3  C   UNL     1       1.164   4.027  18.420  0.00  0.00    +0.000 A 
ATOM      4  C   UNL     1       0.649   2.768  18.746  0.00  0.00    +0.000 A 
ATOM      5  C   UNL     1       0.804   2.252  20.035  0.00  0.00    +0.000 A 
ATOM      6  C   UNL     1       1.477   2.991  20.996  0.00  0.00    +0.000 A 
ATOM      7  C   UNL     1       1.995   4.243  20.669  0.00  0.00    +0.000 A 
ATOM      8  F   UNL     1       2.641   4.933  21.618  0.00  0.00    +0.000 F 
ENDBRANCH   1   2
BRANCH   1   9
ATOM      9  N   UNL     1       3.948   6.012  19.004  0.00  0.00    +0.000 N 
ATOM     10  H   UNL     1       4.448   5.963  19.894  0.00  0.00    +0.000 HD
BRANCH   9  11
ATOM     11  C   UNL     1       4.699   5.691  17.867  0.00  0.00    +0.000 C 
ATOM     12  C   UNL     1       5.136   4.426  17.584  0.00  0.00    +0.000 C 
BRANCH  12  13
ATOM     13  C   UNL     1       4.795   3.294  18.470  0.00  0.00    +0.000 C 
ATOM     14  O   UNL     1       5.128   3.213  19.644  0.00  0.00    +0.000 OA
BRANCH  13  15
ATOM     15  O   UNL     1       4.028   2.387  17.816  0.00  0.00    +0.000 OA
ATOM     16  C   UNL     1       3.858   1.153  18.518  0.00  0.00    +0.000 C 
ENDBRANCH  13  15
ENDBRANCH  12  13
BRANCH  12  17
ATOM     17  C   UNL     1       5.927   4.199  16.307  0.00  0.00    +0.000 C 
ATOM     18  N   UNL     1       6.583   4.012  15.246  0.00  0.00    +0.000 NA
ENDBRANCH  12  17
BRANCH  11  19
ATOM     19  S   UNL     1       5.250   7.009  16.773  0.00  0.00    +0.000 S 
ATOM     20  C   UNL     1       6.901   7.395  17.412  0.00  0.00    +0.000 C 
ENDBRANCH  11  19
ENDBRANCH   9  11
ENDBRANCH   1   9
BRANCH   1  21
ATOM     21  P   UNL     1       2.047   7.655  20.022  0.00  0.00    +0.000 P 
ATOM     22  O   UNL     1       0.759   6.990  20.540  0.00  0.00    +0.000 OA
BRANCH  21  23
ATOM     23  O   UNL     1       1.667   8.467  18.623  0.00  0.00    +0.000 OA
BRANCH  23  24
ATOM     24  C   UNL     1       1.363   9.864  18.622  0.00  0.00    +0.000 C 
BRANCH  24  25
ATOM     25  C   UNL     1      -0.106  10.197  18.354  0.00  0.00    +0.000 C 
BRANCH  25  26
ATOM     26  O   UNL     1      -0.463  11.339  19.131  0.00  0.00    +0.000 OA
ATOM     27  C   UNL     1      -1.869  11.522  19.197  0.00  0.00    +0.000 C 
ENDBRANCH  25  26
ENDBRANCH  24  25
ENDBRANCH  23  24
ENDBRANCH  21  23
BRANCH  21  28
ATOM     28  O   UNL     1       1.646   9.088  20.905  0.00  0.00    +0.000 OA
BRANCH  28  29
ATOM     29  C   UNL     1       1.088   8.884  22.206  0.00  0.00    +0.000 C 
BRANCH  29  30
ATOM     30  C   UNL     1      -0.309   9.483  22.329  0.00  0.00    +0.000 C 
BRANCH  30  32
ATOM     31  C   UNL     1      -1.211  11.573  22.960  0.00  0.00    +0.000 C 
ATOM     32  O   UNL     1      -0.257  10.566  23.259  0.00  0.00    +0.000 OA
ENDBRANCH  30  32
ENDBRANCH  29  30
ENDBRANCH  28  29
ENDBRANCH  21  28
ENDBRANCH   1  21
TORSDOF 16
ENDMDL
MODEL 6
REMARK VINA RESULT:      -5.6      2.665      6.678
REMARK  Name = 
REMARK  20 active torsions:
REMARK  status: ('A' for Active; 'I' for Inactive)
REMARK    1  A    between atoms: C_1  and  O_2
REMARK    2  A    between atoms: O_2  and  C_3
REMARK    3  A    between atoms: C_3  and  C_4
REMARK    4  A    between atoms: C_4  and  O_5
REMARK    5  A    between atoms: O_5  and  P_6
REMARK    6  A    between atoms: P_6  and  O_8
REMARK    7  A    between atoms: P_6  and  C_13
REMARK    8  A    between atoms: O_8  and  C_9
REMARK    9  A    between atoms: C_9  and  C_10
REMARK   10  A    between atoms: C_10  and  O_11
REMARK   11  A    between atoms: O_11  and  C_12
REMARK   12  A    between atoms: C_13  and  N_14
REMARK   13  A    between atoms: C_13  and  C_25
REMARK   14  A    between atoms: N_14  and  C_15
REMARK   15  A    between atoms: C_15  and  S_16
REMARK   16  A    between atoms: S_16  and  C_17
REMARK   17  A    between atoms: C_18  and  C_19
REMARK   18  A    between atoms: C_18  and  C_21
REMARK   19  A    between atoms: C_21  and  O_23
REMARK   20  A    between atoms: O_23  and  C_24
REMARK                            x       y       z     vdW  Elec       q    Type
REMARK                         _______ _______ _______ _____ _____    ______ ____
ROOT
ATOM      1  C   UNL     1       2.631   5.986  18.525  0.00  0.00    +0.000 C 
ENDROOT
BRANCH   1   2
ATOM      2  C   UNL     1       2.213   4.865  19.465  0.00  0.00    +0.000 A 
ATOM      3  C   UNL     1       2.649   4.775  20.795  0.00  0.00    +0.000 A 
ATOM      4  C   UNL     1       2.186   3.747  21.623  0.00  0.00    +0.000 A 
ATOM      5  C   UNL     1       1.278   2.803  21.139  0.00  0.00    +0.000 A 
ATOM      6  C   UNL     1       0.830   2.888  19.830  0.00  0.00    +0.000 A 
ATOM      7  C   UNL     1       1.288   3.914  19.006  0.00  0.00    +0.000 A 
ATOM      8  F   UNL     1       0.837   3.970  17.746  0.00  0.00    +0.000 F 
ENDBRANCH   1   2
BRANCH   1   9
ATOM      9  N   UNL     1       4.110   6.050  18.417  0.00  0.00    +0.000 N 
ATOM     10  H   UNL     1       4.604   6.439  19.223  0.00  0.00    +0.000 HD
BRANCH   9  11
ATOM     11  C   UNL     1       4.910   5.407  17.466  0.00  0.00    +0.000 C 
ATOM     12  C   UNL     1       6.239   5.683  17.287  0.00  0.00    +0.000 C 
BRANCH  12  13
ATOM     13  C   UNL     1       6.925   6.675  18.141  0.00  0.00    +0.000 C 
ATOM     14  O   UNL     1       7.610   6.390  19.114  0.00  0.00    +0.000 OA
BRANCH  13  15
ATOM     15  O   UNL     1       6.728   7.931  17.670  0.00  0.00    +0.000 OA
ATOM     16  C   UNL     1       7.893   8.758  17.712  0.00  0.00    +0.000 C 
ENDBRANCH  13  15
ENDBRANCH  12  13
BRANCH  12  17
ATOM     17  C   UNL     1       7.007   4.903  16.234  0.00  0.00    +0.000 C 
ATOM     18  N   UNL     1       7.645   4.256  15.359  0.00  0.00    +0.000 NA
ENDBRANCH  12  17
BRANCH  11  19
ATOM     19  S   UNL     1       4.153   4.254  16.312  0.00  0.00    +0.000 S 
ATOM     20  C   UNL     1       4.093   2.714  17.266  0.00  0.00    +0.000 C 
ENDBRANCH  11  19
ENDBRANCH   9  11
ENDBRANCH   1   9
BRANCH   1  21
ATOM     21  P   UNL     1       1.960   7.684  18.657  0.00  0.00    +0.000 P 
ATOM     22  O   UNL     1       3.255   8.256  18.053  0.00  0.00    +0.000 OA
BRANCH  21  23
ATOM     23  O   UNL     1       2.136   7.674  20.309  0.00  0.00    +0.000 OA
BRANCH  23  24
ATOM     24  C   UNL     1       1.183   8.299  21.173  0.00  0.00    +0.000 C 
BRANCH  24  25
ATOM     25  C   UNL     1       1.790   9.229  22.225  0.00  0.00    +0.000 C 
BRANCH  25  26
ATOM     26  O   UNL     1       0.796   9.511  23.210  0.00  0.00    +0.000 OA
ATOM     27  C   UNL     1      -0.496   9.654  22.639  0.00  0.00    +0.000 C 
ENDBRANCH  25  26
ENDBRANCH  24  25
ENDBRANCH  23  24
ENDBRANCH  21  23
BRANCH  21  28
ATOM     28  O   UNL     1       1.325   9.288  18.782  0.00  0.00    +0.000 OA
BRANCH  28  29
ATOM     29  C   UNL     1       1.939  10.270  17.943  0.00  0.00    +0.000 C 
BRANCH  29  30
ATOM     30  C   UNL     1       1.835  11.672  18.534  0.00  0.00    +0.000 C 
BRANCH  30  32
ATOM     31  C   UNL     1       1.308  12.545  20.665  0.00  0.00    +0.000 C 
ATOM     32  O   UNL     1       0.940  11.628  19.647  0.00  0.00    +0.000 OA
ENDBRANCH  30  32
ENDBRANCH  29  30
ENDBRANCH  28  29
ENDBRANCH  21  28
ENDBRANCH   1  21
TORSDOF 16
ENDMDL
MODEL 7
REMARK VINA RESULT:      -5.6      1.267      3.859
REMARK  Name = 
REMARK  20 active torsions:
REMARK  status: ('A' for Active; 'I' for Inactive)
REMARK    1  A    between atoms: C_1  and  O_2
REMARK    2  A    between atoms: O_2  and  C_3
REMARK    3  A    between atoms: C_3  and  C_4
REMARK    4  A    between atoms: C_4  and  O_5
REMARK    5  A    between atoms: O_5  and  P_6
REMARK    6  A    between atoms: P_6  and  O_8
REMARK    7  A    between atoms: P_6  and  C_13
REMARK    8  A    between atoms: O_8  and  C_9
REMARK    9  A    between atoms: C_9  and  C_10
REMARK   10  A    between atoms: C_10  and  O_11
REMARK   11  A    between atoms: O_11  and  C_12
REMARK   12  A    between atoms: C_13  and  N_14
REMARK   13  A    between atoms: C_13  and  C_25
REMARK   14  A    between atoms: N_14  and  C_15
REMARK   15  A    between atoms: C_15  and  S_16
REMARK   16  A    between atoms: S_16  and  C_17
REMARK   17  A    between atoms: C_18  and  C_19
REMARK   18  A    between atoms: C_18  and  C_21
REMARK   19  A    between atoms: C_21  and  O_23
REMARK   20  A    between atoms: O_23  and  C_24
REMARK                            x       y       z     vdW  Elec       q    Type
REMARK                         _______ _______ _______ _____ _____    ______ ____
ROOT
ATOM      1  C   UNL     1       4.302   5.222  17.643  0.00  0.00    +0.000 C 
ENDROOT
BRANCH   1   2
ATOM      2  C   UNL     1       3.806   3.841  18.047  0.00  0.00    +0.000 A 
ATOM      3  C   UNL     1       2.747   3.186  17.403  0.00  0.00    +0.000 A 
ATOM      4  C   UNL     1       2.375   1.894  17.789  0.00  0.00    +0.000 A 
ATOM      5  C   UNL     1       3.058   1.238  18.816  0.00  0.00    +0.000 A 
ATOM      6  C   UNL     1       4.114   1.870  19.454  0.00  0.00    +0.000 A 
ATOM      7  C   UNL     1       4.488   3.156  19.065  0.00  0.00    +0.000 A 
ATOM      8  F   UNL     1       5.513   3.741  19.699  0.00  0.00    +0.000 F 
ENDBRANCH   1   2
BRANCH   1   9
ATOM      9  N   UNL     1       3.220   6.228  17.799  0.00  0.00    +0.000 N 
ATOM     10  H   UNL     1       2.723   6.490  16.945  0.00  0.00    +0.000 HD
BRANCH   9  11
ATOM     11  C   UNL     1       2.637   6.654  18.998  0.00  0.00    +0.000 C 
ATOM     12  C   UNL     1       2.115   7.906  19.179  0.00  0.00    +0.000 C 
BRANCH  12  13
ATOM     13  C   UNL     1       2.105   8.887  18.074  0.00  0.00    +0.000 C 
ATOM     14  O   UNL     1       2.655   8.715  16.995  0.00  0.00    +0.000 OA
BRANCH  13  15
ATOM     15  O   UNL     1       1.369   9.976  18.406  0.00  0.00    +0.000 OA
ATOM     16  C   UNL     1       0.023   9.938  17.925  0.00  0.00    +0.000 C 
ENDBRANCH  13  15
ENDBRANCH  12  13
BRANCH  12  17
ATOM     17  C   UNL     1       1.490   8.245  20.522  0.00  0.00    +0.000 C 
ATOM     18  N   UNL     1       0.971   8.525  21.637  0.00  0.00    +0.000 NA
ENDBRANCH  12  17
BRANCH  11  19
ATOM     19  S   UNL     1       2.684   5.573  20.434  0.00  0.00    +0.000 S 
ATOM     20  C   UNL     1       1.125   4.659  20.298  0.00  0.00    +0.000 C 
ENDBRANCH  11  19
ENDBRANCH   9  11
ENDBRANCH   1   9
BRANCH   1  21
ATOM     21  P   UNL     1       5.193   5.529  16.075  0.00  0.00    +0.000 P 
ATOM     22  O   UNL     1       6.340   4.610  16.533  0.00  0.00    +0.000 OA
BRANCH  21  23
ATOM     23  O   UNL     1       5.573   7.078  16.540  0.00  0.00    +0.000 OA
BRANCH  23  24
ATOM     24  C   UNL     1       6.256   7.350  17.766  0.00  0.00    +0.000 C 
BRANCH  24  25
ATOM     25  C   UNL     1       7.733   7.716  17.606  0.00  0.00    +0.000 C 
BRANCH  25  26
ATOM     26  O   UNL     1       8.446   7.237  18.746  0.00  0.00    +0.000 OA
ATOM     27  C   UNL     1       7.948   5.988  19.200  0.00  0.00    +0.000 C 
ENDBRANCH  25  26
ENDBRANCH  24  25
ENDBRANCH  23  24
ENDBRANCH  21  23
BRANCH  21  28
ATOM     28  O   UNL     1       6.035   5.819  14.592  0.00  0.00    +0.000 OA
BRANCH  28  29
ATOM     29  C   UNL     1       6.711   4.692  14.027  0.00  0.00    +0.000 C 
BRANCH  29  30
ATOM     30  C   UNL     1       5.758   3.775  13.269  0.00  0.00    +0.000 C 
BRANCH  30  32
ATOM     31  C   UNL     1       5.809   2.142  11.562  0.00  0.00    +0.000 C 
ATOM     32  O   UNL     1       6.419   3.310  12.091  0.00  0.00    +0.000 OA
ENDBRANCH  30  32
ENDBRANCH  29  30
ENDBRANCH  28  29
ENDBRANCH  21  28
ENDBRANCH   1  21
TORSDOF 16
ENDMDL
MODEL 8
REMARK VINA RESULT:      -5.6      2.771      6.658
REMARK  Name = 
REMARK  20 active torsions:
REMARK  status: ('A' for Active; 'I' for Inactive)
REMARK    1  A    between atoms: C_1  and  O_2
REMARK    2  A    between atoms: O_2  and  C_3
REMARK    3  A    between atoms: C_3  and  C_4
REMARK    4  A    between atoms: C_4  and  O_5
REMARK    5  A    between atoms: O_5  and  P_6
REMARK    6  A    between atoms: P_6  and  O_8
REMARK    7  A    between atoms: P_6  and  C_13
REMARK    8  A    between atoms: O_8  and  C_9
REMARK    9  A    between atoms: C_9  and  C_10
REMARK   10  A    between atoms: C_10  and  O_11
REMARK   11  A    between atoms: O_11  and  C_12
REMARK   12  A    between atoms: C_13  and  N_14
REMARK   13  A    between atoms: C_13  and  C_25
REMARK   14  A    between atoms: N_14  and  C_15
REMARK   15  A    between atoms: C_15  and  S_16
REMARK   16  A    between atoms: S_16  and  C_17
REMARK   17  A    between atoms: C_18  and  C_19
REMARK   18  A    between atoms: C_18  and  C_21
REMARK   19  A    between atoms: C_21  and  O_23
REMARK   20  A    between atoms: O_23  and  C_24
REMARK                            x       y       z     vdW  Elec       q    Type
REMARK                         _______ _______ _______ _____ _____    ______ ____
ROOT
ATOM      1  C   UNL     1       2.608   6.081  18.405  0.00  0.00    +0.000 C 
ENDROOT
BRANCH   1   2
ATOM      2  C   UNL     1       2.204   4.952  19.342  0.00  0.00    +0.000 A 
ATOM      3  C   UNL     1       2.639   4.865  20.673  0.00  0.00    +0.000 A 
ATOM      4  C   UNL     1       2.188   3.830  21.498  0.00  0.00    +0.000 A 
ATOM      5  C   UNL     1       1.294   2.874  21.011  0.00  0.00    +0.000 A 
ATOM      6  C   UNL     1       0.847   2.955  19.701  0.00  0.00    +0.000 A 
ATOM      7  C   UNL     1       1.292   3.990  18.880  0.00  0.00    +0.000 A 
ATOM      8  F   UNL     1       0.842   4.042  17.619  0.00  0.00    +0.000 F 
ENDBRANCH   1   2
BRANCH   1   9
ATOM      9  N   UNL     1       4.085   6.142  18.272  0.00  0.00    +0.000 N 
ATOM     10  H   UNL     1       4.595   6.514  19.076  0.00  0.00    +0.000 HD
BRANCH   9  11
ATOM     11  C   UNL     1       4.866   5.515  17.294  0.00  0.00    +0.000 C 
ATOM     12  C   UNL     1       6.125   5.930  16.954  0.00  0.00    +0.000 C 
BRANCH  12  13
ATOM     13  C   UNL     1       6.757   7.070  17.648  0.00  0.00    +0.000 C 
ATOM     14  O   UNL     1       6.301   8.205  17.666  0.00  0.00    +0.000 OA
BRANCH  13  15
ATOM     15  O   UNL     1       7.882   6.675  18.294  0.00  0.00    +0.000 OA
ATOM     16  C   UNL     1       7.640   5.831  19.422  0.00  0.00    +0.000 C 
ENDBRANCH  13  15
ENDBRANCH  12  13
BRANCH  12  17
ATOM     17  C   UNL     1       6.882   5.154  15.889  0.00  0.00    +0.000 C 
ATOM     18  N   UNL     1       7.510   4.509  15.005  0.00  0.00    +0.000 NA
ENDBRANCH  12  17
BRANCH  11  19
ATOM     19  S   UNL     1       4.156   4.178  16.323  0.00  0.00    +0.000 S 
ATOM     20  C   UNL     1       4.221   2.774  17.465  0.00  0.00    +0.000 C 
ENDBRANCH  11  19
ENDBRANCH   9  11
ENDBRANCH   1   9
BRANCH   1  21
ATOM     21  P   UNL     1       1.943   7.778  18.564  0.00  0.00    +0.000 P 
ATOM     22  O   UNL     1       3.215   8.350  17.910  0.00  0.00    +0.000 OA
BRANCH  21  23
ATOM     23  O   UNL     1       2.184   7.768  20.208  0.00  0.00    +0.000 OA
BRANCH  23  24
ATOM     24  C   UNL     1       1.168   8.190  21.121  0.00  0.00    +0.000 C 
BRANCH  24  25
ATOM     25  C   UNL     1       1.608   9.274  22.108  0.00  0.00    +0.000 C 
BRANCH  25  26
ATOM     26  O   UNL     1       0.680   9.305  23.192  0.00  0.00    +0.000 OA
ATOM     27  C   UNL     1      -0.461  10.096  22.896  0.00  0.00    +0.000 C 
ENDBRANCH  25  26
ENDBRANCH  24  25
ENDBRANCH  23  24
ENDBRANCH  21  23
BRANCH  21  28
ATOM     28  O   UNL     1       1.315   9.383  18.715  0.00  0.00    +0.000 OA
BRANCH  28  29
ATOM     29  C   UNL     1       1.988  10.391  17.955  0.00  0.00    +0.000 C 
BRANCH  29  30
ATOM     30  C   UNL     1       1.626  11.797  18.424  0.00  0.00    +0.000 C 
BRANCH  30  32
ATOM     31  C   UNL     1       2.539  13.951  18.748  0.00  0.00    +0.000 C 
ATOM     32  O   UNL     1       2.790  12.619  18.326  0.00  0.00    +0.000 OA
ENDBRANCH  30  32
ENDBRANCH  29  30
ENDBRANCH  28  29
ENDBRANCH  21  28
ENDBRANCH   1  21
TORSDOF 16
ENDMDL
MODEL 9
REMARK VINA RESULT:      -5.6      1.004      1.332
REMARK  Name = 
REMARK  20 active torsions:
REMARK  status: ('A' for Active; 'I' for Inactive)
REMARK    1  A    between atoms: C_1  and  O_2
REMARK    2  A    between atoms: O_2  and  C_3
REMARK    3  A    between atoms: C_3  and  C_4
REMARK    4  A    between atoms: C_4  and  O_5
REMARK    5  A    between atoms: O_5  and  P_6
REMARK    6  A    between atoms: P_6  and  O_8
REMARK    7  A    between atoms: P_6  and  C_13
REMARK    8  A    between atoms: O_8  and  C_9
REMARK    9  A    between atoms: C_9  and  C_10
REMARK   10  A    between atoms: C_10  and  O_11
REMARK   11  A    between atoms: O_11  and  C_12
REMARK   12  A    between atoms: C_13  and  N_14
REMARK   13  A    between atoms: C_13  and  C_25
REMARK   14  A    between atoms: N_14  and  C_15
REMARK   15  A    between atoms: C_15  and  S_16
REMARK   16  A    between atoms: S_16  and  C_17
REMARK   17  A    between atoms: C_18  and  C_19
REMARK   18  A    between atoms: C_18  and  C_21
REMARK   19  A    between atoms: C_21  and  O_23
REMARK   20  A    between atoms: O_23  and  C_24
REMARK                            x       y       z     vdW  Elec       q    Type
REMARK                         _______ _______ _______ _____ _____    ______ ____
ROOT
ATOM      1  C   UNL     1       4.491   5.558  18.716  0.00  0.00    +0.000 C 
ENDROOT
BRANCH   1   2
ATOM      2  C   UNL     1       4.189   4.067  18.674  0.00  0.00    +0.000 A 
ATOM      3  C   UNL     1       4.623   3.166  19.656  0.00  0.00    +0.000 A 
ATOM      4  C   UNL     1       4.265   1.816  19.586  0.00  0.00    +0.000 A 
ATOM      5  C   UNL     1       3.465   1.349  18.541  0.00  0.00    +0.000 A 
ATOM      6  C   UNL     1       3.019   2.232  17.569  0.00  0.00    +0.000 A 
ATOM      7  C   UNL     1       3.371   3.579  17.642  0.00  0.00    +0.000 A 
ATOM      8  F   UNL     1       2.924   4.407  16.689  0.00  0.00    +0.000 F 
ENDBRANCH   1   2
BRANCH   1   9
ATOM      9  N   UNL     1       3.244   6.346  18.552  0.00  0.00    +0.000 N 
ATOM     10  H   UNL     1       2.881   6.422  17.600  0.00  0.00    +0.000 HD
BRANCH   9  11
ATOM     11  C   UNL     1       2.378   6.768  19.568  0.00  0.00    +0.000 C 
ATOM     12  C   UNL     1       1.766   7.992  19.578  0.00  0.00    +0.000 C 
BRANCH  12  13
ATOM     13  C   UNL     1       1.962   8.942  18.464  0.00  0.00    +0.000 C 
ATOM     14  O   UNL     1       2.329   8.623  17.341  0.00  0.00    +0.000 OA
BRANCH  13  15
ATOM     15  O   UNL     1       1.637  10.202  18.846  0.00  0.00    +0.000 OA
ATOM     16  C   UNL     1       2.206  11.225  18.025  0.00  0.00    +0.000 C 
ENDBRANCH  13  15
ENDBRANCH  12  13
BRANCH  12  17
ATOM     17  C   UNL     1       0.831   8.326  20.727  0.00  0.00    +0.000 C 
ATOM     18  N   UNL     1       0.055   8.604  21.682  0.00  0.00    +0.000 NA
ENDBRANCH  12  17
BRANCH  11  19
ATOM     19  S   UNL     1       2.146   5.727  21.017  0.00  0.00    +0.000 S 
ATOM     20  C   UNL     1       1.045   4.426  20.403  0.00  0.00    +0.000 C 
ENDBRANCH  11  19
ENDBRANCH   9  11
ENDBRANCH   1   9
BRANCH   1  21
ATOM     21  P   UNL     1       5.825   6.321  17.722  0.00  0.00    +0.000 P 
ATOM     22  O   UNL     1       4.802   6.737  16.648  0.00  0.00    +0.000 OA
BRANCH  21  23
ATOM     23  O   UNL     1       6.423   4.831  17.296  0.00  0.00    +0.000 OA
BRANCH  23  24
ATOM     24  C   UNL     1       6.941   4.572  15.988  0.00  0.00    +0.000 C 
BRANCH  24  25
ATOM     25  C   UNL     1       5.922   4.003  15.000  0.00  0.00    +0.000 C 
BRANCH  25  26
ATOM     26  O   UNL     1       6.585   3.745  13.762  0.00  0.00    +0.000 OA
ATOM     27  C   UNL     1       7.235   4.899  13.254  0.00  0.00    +0.000 C 
ENDBRANCH  25  26
ENDBRANCH  24  25
ENDBRANCH  23  24
ENDBRANCH  21  23
BRANCH  21  28
ATOM     28  O   UNL     1       7.085   7.042  16.782  0.00  0.00    +0.000 OA
BRANCH  28  29
ATOM     29  C   UNL     1       7.681   8.219  17.334  0.00  0.00    +0.000 C 
BRANCH  29  30
ATOM     30  C   UNL     1       8.382   7.936  18.659  0.00  0.00    +0.000 C 
BRANCH  30  32
ATOM     31  C   UNL     1       8.788  10.221  18.219  0.00  0.00    +0.000 C 
ATOM     32  O   UNL     1       9.075   9.118  19.064  0.00  0.00    +0.000 OA
ENDBRANCH  30  32
ENDBRANCH  29  30
ENDBRANCH  28  29
ENDBRANCH  21  28
ENDBRANCH   1  21
TORSDOF 16
ENDMDL
