MODEL 1
REMARK VINA RESULT:      -6.8      0.000      0.000
REMARK  Name = 
REMARK  12 active torsions:
REMARK  status: ('A' for Active; 'I' for Inactive)
REMARK    1  A    between atoms: C_1  and  C_2
REMARK    2  A    between atoms: C_3  and  C_4
REMARK    3  A    between atoms: C_4  and  C_6
REMARK    4  A    between atoms: C_6  and  S_7
REMARK    5  A    between atoms: S_7  and  C_8
REMARK    6  A    between atoms: C_8  and  C_9
REMARK    7  A    between atoms: C_9  and  N_10
REMARK    8  A    between atoms: C_11  and  C_13
REMARK    9  A    between atoms: C_13  and  N_14
REMARK   10  A    between atoms: C_13  and  C_15
REMARK   11  A    between atoms: C_15  and  C_16
REMARK   12  A    between atoms: C_15  and  C_17
REMARK                            x       y       z     vdW  Elec       q    Type
REMARK                         _______ _______ _______ _____ _____    ______ ____
ROOT
ATOM      1  C   UNL     1       5.410   5.213  16.210  0.00  0.00    +0.000 C 
ATOM      2  O   UNL     1       4.964   4.861  15.120  0.00  0.00    +0.000 OA
ENDROOT
BRANCH   1   5
ATOM      3  C   UNL     1       3.773   7.720  17.311  0.00  0.00    +0.000 C 
ATOM      4  C   UNL     1       3.754   6.322  17.860  0.00  0.00    +0.000 A 
ATOM      5  C   UNL     1       4.473   5.185  17.397  0.00  0.00    +0.000 A 
ATOM      6  N   UNL     1       4.344   3.967  18.075  0.00  0.00    +0.000 N 
ATOM      7  O   UNL     1       4.917   2.895  17.687  0.00  0.00    +0.000 OA
ATOM      8  C   UNL     1       3.569   3.884  19.248  0.00  0.00    +0.000 A 
ATOM      9  C   UNL     1       3.515   2.686  20.001  0.00  0.00    +0.000 A 
ATOM     10  C   UNL     1       2.774   2.606  21.178  0.00  0.00    +0.000 A 
ATOM     11  C   UNL     1       2.046   3.706  21.609  0.00  0.00    +0.000 A 
ATOM     12  C   UNL     1       2.072   4.887  20.869  0.00  0.00    +0.000 A 
ATOM     13  C   UNL     1       2.846   4.999  19.694  0.00  0.00    +0.000 A 
ATOM     14  N   UNL     1       2.925   6.206  18.984  0.00  0.00    +0.000 N 
ATOM     15  O   UNL     1       2.247   7.212  19.391  0.00  0.00    +0.000 OA
ENDBRANCH   1   5
BRANCH   1  16
ATOM     16  C   UNL     1       6.861   5.686  16.375  0.00  0.00    +0.000 C 
BRANCH  16  17
ATOM     17  S   UNL     1       7.241   6.315  18.036  0.00  0.00    +0.000 S 
BRANCH  17  18
ATOM     18  C   UNL     1       7.517   8.072  17.605  0.00  0.00    +0.000 C 
BRANCH  18  19
ATOM     19  C   UNL     1       8.618   8.625  18.520  0.00  0.00    +0.000 C 
BRANCH  19  20
ATOM     20  N   UNL     1       8.956  10.012  18.252  0.00  0.00    +0.000 N 
ATOM     21  C   UNL     1       9.301  10.851  19.293  0.00  0.00    +0.000 C 
ATOM     22  O   UNL     1       9.226  10.511  20.475  0.00  0.00    +0.000 OA
ATOM     23  H   UNL     1       9.319  10.234  17.335  0.00  0.00    +0.000 HD
BRANCH  21  24
ATOM     24  C   UNL     1       9.662  12.289  18.870  0.00  0.00    +0.000 C 
BRANCH  24  25
ATOM     25  N   UNL     1       8.985  13.205  19.817  0.00  0.00    +0.000 NA
ATOM     26  H   UNL     1       8.042  12.839  19.983  0.00  0.00    +0.000 HD
ATOM     27  H   UNL     1       8.842  14.108  19.364  0.00  0.00    +0.000 HD
ENDBRANCH  24  25
BRANCH  24  28
ATOM     28  C   UNL     1      11.196  12.491  18.899  0.00  0.00    +0.000 C 
ATOM     29  C   UNL     1      11.766  12.631  17.480  0.00  0.00    +0.000 C 
ATOM     30  C   UNL     1      11.595  13.725  19.712  0.00  0.00    +0.000 C 
ENDBRANCH  24  28
ENDBRANCH  21  24
ENDBRANCH  19  20
ENDBRANCH  18  19
ENDBRANCH  17  18
ENDBRANCH  16  17
ENDBRANCH   1  16
TORSDOF 9
ENDMDL
MODEL 2
REMARK VINA RESULT:      -6.8      1.102      1.301
REMARK  Name = 
REMARK  12 active torsions:
REMARK  status: ('A' for Active; 'I' for Inactive)
REMARK    1  A    between atoms: C_1  and  C_2
REMARK    2  A    between atoms: C_3  and  C_4
REMARK    3  A    between atoms: C_4  and  C_6
REMARK    4  A    between atoms: C_6  and  S_7
REMARK    5  A    between atoms: S_7  and  C_8
REMARK    6  A    between atoms: C_8  and  C_9
REMARK    7  A    between atoms: C_9  and  N_10
REMARK    8  A    between atoms: C_11  and  C_13
REMARK    9  A    between atoms: C_13  and  N_14
REMARK   10  A    between atoms: C_13  and  C_15
REMARK   11  A    between atoms: C_15  and  C_16
REMARK   12  A    between atoms: C_15  and  C_17
REMARK                            x       y       z     vdW  Elec       q    Type
REMARK                         _______ _______ _______ _____ _____    ______ ____
ROOT
ATOM      1  C   UNL     1       5.537   5.791  16.296  0.00  0.00    +0.000 C 
ATOM      2  O   UNL     1       5.259   6.227  15.181  0.00  0.00    +0.000 OA
ENDROOT
BRANCH   1   5
ATOM      3  C   UNL     1       3.845   8.074  17.744  0.00  0.00    +0.000 C 
ATOM      4  C   UNL     1       3.661   6.591  17.887  0.00  0.00    +0.000 A 
ATOM      5  C   UNL     1       4.399   5.548  17.261  0.00  0.00    +0.000 A 
ATOM      6  N   UNL     1       4.092   4.214  17.557  0.00  0.00    +0.000 N 
ATOM      7  O   UNL     1       4.675   3.229  16.996  0.00  0.00    +0.000 OA
ATOM      8  C   UNL     1       3.112   3.907  18.521  0.00  0.00    +0.000 A 
ATOM      9  C   UNL     1       2.866   2.567  18.906  0.00  0.00    +0.000 A 
ATOM     10  C   UNL     1       1.919   2.258  19.881  0.00  0.00    +0.000 A 
ATOM     11  C   UNL     1       1.177   3.274  20.465  0.00  0.00    +0.000 A 
ATOM     12  C   UNL     1       1.392   4.598  20.084  0.00  0.00    +0.000 A 
ATOM     13  C   UNL     1       2.373   4.933  19.125  0.00  0.00    +0.000 A 
ATOM     14  N   UNL     1       2.636   6.269  18.787  0.00  0.00    +0.000 N 
ATOM     15  O   UNL     1       1.943   7.197  19.332  0.00  0.00    +0.000 OA
ENDBRANCH   1   5
BRANCH   1  16
ATOM     16  C   UNL     1       6.988   5.515  16.717  0.00  0.00    +0.000 C 
BRANCH  16  17
ATOM     17  S   UNL     1       7.523   6.470  18.167  0.00  0.00    +0.000 S 
BRANCH  17  18
ATOM     18  C   UNL     1       7.911   8.047  17.325  0.00  0.00    +0.000 C 
BRANCH  18  19
ATOM     19  C   UNL     1       8.039   9.143  18.391  0.00  0.00    +0.000 C 
BRANCH  19  20
ATOM     20  N   UNL     1       9.086  10.111  18.112  0.00  0.00    +0.000 N 
ATOM     21  C   UNL     1       9.738  10.741  19.153  0.00  0.00    +0.000 C 
ATOM     22  O   UNL     1       9.397  10.609  20.329  0.00  0.00    +0.000 OA
ATOM     23  H   UNL     1       9.584  10.017  17.237  0.00  0.00    +0.000 HD
BRANCH  21  24
ATOM     24  C   UNL     1      10.843  11.725  18.719  0.00  0.00    +0.000 C 
BRANCH  24  25
ATOM     25  N   UNL     1      11.154  11.435  17.301  0.00  0.00    +0.000 NA
ATOM     26  H   UNL     1      10.547  10.665  17.001  0.00  0.00    +0.000 HD
ATOM     27  H   UNL     1      12.102  11.064  17.236  0.00  0.00    +0.000 HD
ENDBRANCH  24  25
BRANCH  24  28
ATOM     28  C   UNL     1      10.365  13.186  18.898  0.00  0.00    +0.000 C 
ATOM     29  C   UNL     1      10.998  13.832  20.139  0.00  0.00    +0.000 C 
ATOM     30  C   UNL     1      10.690  14.048  17.676  0.00  0.00    +0.000 C 
ENDBRANCH  24  28
ENDBRANCH  21  24
ENDBRANCH  19  20
ENDBRANCH  18  19
ENDBRANCH  17  18
ENDBRANCH  16  17
ENDBRANCH   1  16
TORSDOF 9
ENDMDL
MODEL 3
REMARK VINA RESULT:      -6.8      4.889      8.174
REMARK  Name = 
REMARK  12 active torsions:
REMARK  status: ('A' for Active; 'I' for Inactive)
REMARK    1  A    between atoms: C_1  and  C_2
REMARK    2  A    between atoms: C_3  and  C_4
REMARK    3  A    between atoms: C_4  and  C_6
REMARK    4  A    between atoms: C_6  and  S_7
REMARK    5  A    between atoms: S_7  and  C_8
REMARK    6  A    between atoms: C_8  and  C_9
REMARK    7  A    between atoms: C_9  and  N_10
REMARK    8  A    between atoms: C_11  and  C_13
REMARK    9  A    between atoms: C_13  and  N_14
REMARK   10  A    between atoms: C_13  and  C_15
REMARK   11  A    between atoms: C_15  and  C_16
REMARK   12  A    between atoms: C_15  and  C_17
REMARK                            x       y       z     vdW  Elec       q    Type
REMARK                         _______ _______ _______ _____ _____    ______ ____
ROOT
ATOM      1  C   UNL     1       2.846   6.849  18.036  0.00  0.00    +0.000 C 
ATOM      2  O   UNL     1       2.273   5.779  17.843  0.00  0.00    +0.000 OA
ENDROOT
BRANCH   1   5
ATOM      3  C   UNL     1       1.959   6.363  21.061  0.00  0.00    +0.000 C 
ATOM      4  C   UNL     1       1.777   7.622  20.261  0.00  0.00    +0.000 A 
ATOM      5  C   UNL     1       2.156   7.870  18.912  0.00  0.00    +0.000 A 
ATOM      6  N   UNL     1       1.862   9.110  18.332  0.00  0.00    +0.000 N 
ATOM      7  O   UNL     1       2.217   9.421  17.148  0.00  0.00    +0.000 OA
ATOM      8  C   UNL     1       1.133  10.076  19.051  0.00  0.00    +0.000 A 
ATOM      9  C   UNL     1       0.738  11.292  18.442  0.00  0.00    +0.000 A 
ATOM     10  C   UNL     1      -0.008  12.240  19.137  0.00  0.00    +0.000 A 
ATOM     11  C   UNL     1      -0.348  12.011  20.463  0.00  0.00    +0.000 A 
ATOM     12  C   UNL     1       0.050  10.828  21.086  0.00  0.00    +0.000 A 
ATOM     13  C   UNL     1       0.775   9.840  20.386  0.00  0.00    +0.000 A 
ATOM     14  N   UNL     1       1.120   8.622  20.991  0.00  0.00    +0.000 N 
ATOM     15  O   UNL     1       0.803   8.423  22.214  0.00  0.00    +0.000 OA
ENDBRANCH   1   5
BRANCH   1  16
ATOM     16  C   UNL     1       4.209   7.162  17.402  0.00  0.00    +0.000 C 
BRANCH  16  17
ATOM     17  S   UNL     1       5.532   6.026  17.913  0.00  0.00    +0.000 S 
BRANCH  17  18
ATOM     18  C   UNL     1       5.763   5.147  16.324  0.00  0.00    +0.000 C 
BRANCH  18  19
ATOM     19  C   UNL     1       4.811   3.944  16.296  0.00  0.00    +0.000 C 
BRANCH  19  20
ATOM     20  N   UNL     1       4.552   3.374  17.607  0.00  0.00    +0.000 N 
ATOM     21  C   UNL     1       3.409   2.630  17.822  0.00  0.00    +0.000 C 
ATOM     22  O   UNL     1       2.521   2.515  16.976  0.00  0.00    +0.000 OA
ATOM     23  H   UNL     1       5.350   3.184  18.197  0.00  0.00    +0.000 HD
BRANCH  21  24
ATOM     24  C   UNL     1       3.268   2.063  19.248  0.00  0.00    +0.000 C 
BRANCH  24  25
ATOM     25  N   UNL     1       4.630   1.978  19.821  0.00  0.00    +0.000 NA
ATOM     26  H   UNL     1       4.561   2.188  20.822  0.00  0.00    +0.000 HD
ATOM     27  H   UNL     1       5.204   2.727  19.433  0.00  0.00    +0.000 HD
ENDBRANCH  24  25
BRANCH  24  28
ATOM     28  C   UNL     1       2.359   2.977  20.105  0.00  0.00    +0.000 C 
ATOM     29  C   UNL     1       0.883   2.827  19.708  0.00  0.00    +0.000 C 
ATOM     30  C   UNL     1       2.498   2.682  21.600  0.00  0.00    +0.000 C 
ENDBRANCH  24  28
ENDBRANCH  21  24
ENDBRANCH  19  20
ENDBRANCH  18  19
ENDBRANCH  17  18
ENDBRANCH  16  17
ENDBRANCH   1  16
TORSDOF 9
ENDMDL
MODEL 4
REMARK VINA RESULT:      -6.8      4.185      6.670
REMARK  Name = 
REMARK  12 active torsions:
REMARK  status: ('A' for Active; 'I' for Inactive)
REMARK    1  A    between atoms: C_1  and  C_2
REMARK    2  A    between atoms: C_3  and  C_4
REMARK    3  A    between atoms: C_4  and  C_6
REMARK    4  A    between atoms: C_6  and  S_7
REMARK    5  A    between atoms: S_7  and  C_8
REMARK    6  A    between atoms: C_8  and  C_9
REMARK    7  A    between atoms: C_9  and  N_10
REMARK    8  A    between atoms: C_11  and  C_13
REMARK    9  A    between atoms: C_13  and  N_14
REMARK   10  A    between atoms: C_13  and  C_15
REMARK   11  A    between atoms: C_15  and  C_16
REMARK   12  A    between atoms: C_15  and  C_17
REMARK                            x       y       z     vdW  Elec       q    Type
REMARK                         _______ _______ _______ _____ _____    ______ ____
ROOT
ATOM      1  C   UNL     1       2.968   5.760  19.876  0.00  0.00    +0.000 C 
ATOM      2  O   UNL     1       4.195   5.704  19.896  0.00  0.00    +0.000 OA
ENDROOT
BRANCH   1   5
ATOM      3  C   UNL     1       3.445   7.511  17.254  0.00  0.00    +0.000 C 
ATOM      4  C   UNL     1       2.560   7.857  18.417  0.00  0.00    +0.000 A 
ATOM      5  C   UNL     1       2.329   7.103  19.601  0.00  0.00    +0.000 A 
ATOM      6  N   UNL     1       1.488   7.621  20.593  0.00  0.00    +0.000 N 
ATOM      7  O   UNL     1       1.193   6.980  21.655  0.00  0.00    +0.000 OA
ATOM      8  C   UNL     1       0.934   8.909  20.455  0.00  0.00    +0.000 A 
ATOM      9  C   UNL     1       0.168   9.487  21.496  0.00  0.00    +0.000 A 
ATOM     10  C   UNL     1      -0.358  10.772  21.379  0.00  0.00    +0.000 A 
ATOM     11  C   UNL     1      -0.159  11.491  20.210  0.00  0.00    +0.000 A 
ATOM     12  C   UNL     1       0.576  10.931  19.166  0.00  0.00    +0.000 A 
ATOM     13  C   UNL     1       1.147   9.645  19.281  0.00  0.00    +0.000 A 
ATOM     14  N   UNL     1       1.941   9.104  18.258  0.00  0.00    +0.000 N 
ATOM     15  O   UNL     1       2.114   9.778  17.184  0.00  0.00    +0.000 OA
ENDBRANCH   1   5
BRANCH   1  16
ATOM     16  C   UNL     1       2.098   4.523  20.139  0.00  0.00    +0.000 C 
BRANCH  16  17
ATOM     17  S   UNL     1       2.854   2.966  19.587  0.00  0.00    +0.000 S 
BRANCH  17  18
ATOM     18  C   UNL     1       2.147   2.905  17.900  0.00  0.00    +0.000 C 
BRANCH  18  19
ATOM     19  C   UNL     1       3.262   3.235  16.899  0.00  0.00    +0.000 C 
BRANCH  19  20
ATOM     20  N   UNL     1       4.557   3.451  17.518  0.00  0.00    +0.000 N 
ATOM     21  C   UNL     1       5.461   4.322  16.942  0.00  0.00    +0.000 C 
ATOM     22  O   UNL     1       5.268   4.852  15.846  0.00  0.00    +0.000 OA
ATOM     23  H   UNL     1       4.628   3.298  18.515  0.00  0.00    +0.000 HD
BRANCH  21  24
ATOM     24  C   UNL     1       6.787   4.479  17.713  0.00  0.00    +0.000 C 
BRANCH  24  25
ATOM     25  N   UNL     1       7.882   4.176  16.763  0.00  0.00    +0.000 NA
ATOM     26  H   UNL     1       7.456   3.830  15.898  0.00  0.00    +0.000 HD
ATOM     27  H   UNL     1       8.427   3.392  17.121  0.00  0.00    +0.000 HD
ENDBRANCH  24  25
BRANCH  24  28
ATOM     28  C   UNL     1       6.917   5.915  18.275  0.00  0.00    +0.000 C 
ATOM     29  C   UNL     1       7.848   5.953  19.496  0.00  0.00    +0.000 C 
ATOM     30  C   UNL     1       7.445   6.895  17.225  0.00  0.00    +0.000 C 
ENDBRANCH  24  28
ENDBRANCH  21  24
ENDBRANCH  19  20
ENDBRANCH  18  19
ENDBRANCH  17  18
ENDBRANCH  16  17
ENDBRANCH   1  16
TORSDOF 9
ENDMDL
MODEL 5
REMARK VINA RESULT:      -6.7      4.664      7.761
REMARK  Name = 
REMARK  12 active torsions:
REMARK  status: ('A' for Active; 'I' for Inactive)
REMARK    1  A    between atoms: C_1  and  C_2
REMARK    2  A    between atoms: C_3  and  C_4
REMARK    3  A    between atoms: C_4  and  C_6
REMARK    4  A    between atoms: C_6  and  S_7
REMARK    5  A    between atoms: S_7  and  C_8
REMARK    6  A    between atoms: C_8  and  C_9
REMARK    7  A    between atoms: C_9  and  N_10
REMARK    8  A    between atoms: C_11  and  C_13
REMARK    9  A    between atoms: C_13  and  N_14
REMARK   10  A    between atoms: C_13  and  C_15
REMARK   11  A    between atoms: C_15  and  C_16
REMARK   12  A    between atoms: C_15  and  C_17
REMARK                            x       y       z     vdW  Elec       q    Type
REMARK                         _______ _______ _______ _____ _____    ______ ____
ROOT
ATOM      1  C   UNL     1       2.558   6.807  18.755  0.00  0.00    +0.000 C 
ATOM      2  O   UNL     1       1.902   5.975  18.131  0.00  0.00    +0.000 OA
ENDROOT
BRANCH   1   5
ATOM      3  C   UNL     1       2.315   9.686  17.402  0.00  0.00    +0.000 C 
ATOM      4  C   UNL     1       1.727   9.257  18.716  0.00  0.00    +0.000 A 
ATOM      5  C   UNL     1       1.819   7.986  19.348  0.00  0.00    +0.000 A 
ATOM      6  N   UNL     1       1.225   7.796  20.602  0.00  0.00    +0.000 N 
ATOM      7  O   UNL     1       1.222   6.672  21.204  0.00  0.00    +0.000 OA
ATOM      8  C   UNL     1       0.604   8.873  21.265  0.00  0.00    +0.000 A 
ATOM      9  C   UNL     1       0.092   8.722  22.576  0.00  0.00    +0.000 A 
ATOM     10  C   UNL     1      -0.496   9.790  23.250  0.00  0.00    +0.000 A 
ATOM     11  C   UNL     1      -0.615  11.019  22.618  0.00  0.00    +0.000 A 
ATOM     12  C   UNL     1      -0.135  11.181  21.319  0.00  0.00    +0.000 A 
ATOM     13  C   UNL     1       0.497  10.121  20.635  0.00  0.00    +0.000 A 
ATOM     14  N   UNL     1       1.039  10.299  19.353  0.00  0.00    +0.000 N 
ATOM     15  O   UNL     1       0.920  11.437  18.780  0.00  0.00    +0.000 OA
ENDBRANCH   1   5
BRANCH   1  16
ATOM     16  C   UNL     1       4.078   6.679  18.919  0.00  0.00    +0.000 C 
BRANCH  16  17
ATOM     17  S   UNL     1       4.996   6.807  17.356  0.00  0.00    +0.000 S 
BRANCH  17  18
ATOM     18  C   UNL     1       6.504   5.896  17.851  0.00  0.00    +0.000 C 
BRANCH  18  19
ATOM     19  C   UNL     1       6.335   4.427  17.440  0.00  0.00    +0.000 C 
BRANCH  19  20
ATOM     20  N   UNL     1       5.643   3.620  18.429  0.00  0.00    +0.000 N 
ATOM     21  C   UNL     1       4.389   3.113  18.152  0.00  0.00    +0.000 C 
ATOM     22  O   UNL     1       3.762   3.409  17.133  0.00  0.00    +0.000 OA
ATOM     23  H   UNL     1       6.210   3.119  19.100  0.00  0.00    +0.000 HD
BRANCH  21  24
ATOM     24  C   UNL     1       3.778   2.254  19.276  0.00  0.00    +0.000 C 
BRANCH  24  25
ATOM     25  N   UNL     1       4.866   1.945  20.231  0.00  0.00    +0.000 NA
ATOM     26  H   UNL     1       4.752   2.561  21.042  0.00  0.00    +0.000 HD
ATOM     27  H   UNL     1       5.759   2.215  19.818  0.00  0.00    +0.000 HD
ENDBRANCH  24  25
BRANCH  24  28
ATOM     28  C   UNL     1       2.625   3.017  19.973  0.00  0.00    +0.000 C 
ATOM     29  C   UNL     1       1.262   2.630  19.380  0.00  0.00    +0.000 C 
ATOM     30  C   UNL     1       2.596   2.756  21.481  0.00  0.00    +0.000 C 
ENDBRANCH  24  28
ENDBRANCH  21  24
ENDBRANCH  19  20
ENDBRANCH  18  19
ENDBRANCH  17  18
ENDBRANCH  16  17
ENDBRANCH   1  16
TORSDOF 9
ENDMDL
MODEL 6
REMARK VINA RESULT:      -6.6      1.260      1.426
REMARK  Name = 
REMARK  12 active torsions:
REMARK  status: ('A' for Active; 'I' for Inactive)
REMARK    1  A    between atoms: C_1  and  C_2
REMARK    2  A    between atoms: C_3  and  C_4
REMARK    3  A    between atoms: C_4  and  C_6
REMARK    4  A    between atoms: C_6  and  S_7
REMARK    5  A    between atoms: S_7  and  C_8
REMARK    6  A    between atoms: C_8  and  C_9
REMARK    7  A    between atoms: C_9  and  N_10
REMARK    8  A    between atoms: C_11  and  C_13
REMARK    9  A    between atoms: C_13  and  N_14
REMARK   10  A    between atoms: C_13  and  C_15
REMARK   11  A    between atoms: C_15  and  C_16
REMARK   12  A    between atoms: C_15  and  C_17
REMARK                            x       y       z     vdW  Elec       q    Type
REMARK                         _______ _______ _______ _____ _____    ______ ____
ROOT
ATOM      1  C   UNL     1       5.982   5.675  16.946  0.00  0.00    +0.000 C 
ATOM      2  O   UNL     1       5.763   5.946  15.767  0.00  0.00    +0.000 OA
ENDROOT
BRANCH   1   5
ATOM      3  C   UNL     1       3.732   7.872  17.481  0.00  0.00    +0.000 C 
ATOM      4  C   UNL     1       3.802   6.493  18.073  0.00  0.00    +0.000 A 
ATOM      5  C   UNL     1       4.792   5.493  17.859  0.00  0.00    +0.000 A 
ATOM      6  N   UNL     1       4.695   4.274  18.541  0.00  0.00    +0.000 N 
ATOM      7  O   UNL     1       5.514   3.313  18.360  0.00  0.00    +0.000 OA
ATOM      8  C   UNL     1       3.670   4.065  19.484  0.00  0.00    +0.000 A 
ATOM      9  C   UNL     1       3.622   2.879  20.255  0.00  0.00    +0.000 A 
ATOM     10  C   UNL     1       2.629   2.679  21.212  0.00  0.00    +0.000 A 
ATOM     11  C   UNL     1       1.646   3.641  21.394  0.00  0.00    +0.000 A 
ATOM     12  C   UNL     1       1.666   4.806  20.629  0.00  0.00    +0.000 A 
ATOM     13  C   UNL     1       2.685   5.043  19.682  0.00  0.00    +0.000 A 
ATOM     14  N   UNL     1       2.744   6.243  18.957  0.00  0.00    +0.000 N 
ATOM     15  O   UNL     1       1.830   7.121  19.133  0.00  0.00    +0.000 OA
ENDBRANCH   1   5
BRANCH   1  16
ATOM     16  C   UNL     1       7.411   5.541  17.492  0.00  0.00    +0.000 C 
BRANCH  16  17
ATOM     17  S   UNL     1       7.917   6.920  18.561  0.00  0.00    +0.000 S 
BRANCH  17  18
ATOM     18  C   UNL     1       7.751   8.280  17.348  0.00  0.00    +0.000 C 
BRANCH  18  19
ATOM     19  C   UNL     1       7.925   9.611  18.090  0.00  0.00    +0.000 C 
BRANCH  19  20
ATOM     20  N   UNL     1       9.297   9.889  18.478  0.00  0.00    +0.000 N 
ATOM     21  C   UNL     1       9.809  11.163  18.340  0.00  0.00    +0.000 C 
ATOM     22  O   UNL     1       9.189  12.073  17.787  0.00  0.00    +0.000 OA
ATOM     23  H   UNL     1       9.710   9.294  19.184  0.00  0.00    +0.000 HD
BRANCH  21  24
ATOM     24  C   UNL     1      11.268  11.327  18.811  0.00  0.00    +0.000 C 
BRANCH  24  25
ATOM     25  N   UNL     1      12.036  11.875  17.670  0.00  0.00    +0.000 NA
ATOM     26  H   UNL     1      11.374  12.062  16.911  0.00  0.00    +0.000 HD
ATOM     27  H   UNL     1      12.657  11.152  17.306  0.00  0.00    +0.000 HD
ENDBRANCH  24  25
BRANCH  24  28
ATOM     28  C   UNL     1      11.337  12.271  20.035  0.00  0.00    +0.000 C 
ATOM     29  C   UNL     1      11.311  13.745  19.604  0.00  0.00    +0.000 C 
ATOM     30  C   UNL     1      10.186  12.025  21.013  0.00  0.00    +0.000 C 
ENDBRANCH  24  28
ENDBRANCH  21  24
ENDBRANCH  19  20
ENDBRANCH  18  19
ENDBRANCH  17  18
ENDBRANCH  16  17
ENDBRANCH   1  16
TORSDOF 9
ENDMDL
MODEL 7
REMARK VINA RESULT:      -6.6      5.600      8.563
REMARK  Name = 
REMARK  12 active torsions:
REMARK  status: ('A' for Active; 'I' for Inactive)
REMARK    1  A    between atoms: C_1  and  C_2
REMARK    2  A    between atoms: C_3  and  C_4
REMARK    3  A    between atoms: C_4  and  C_6
REMARK    4  A    between atoms: C_6  and  S_7
REMARK    5  A    between atoms: S_7  and  C_8
REMARK    6  A    between atoms: C_8  and  C_9
REMARK    7  A    between atoms: C_9  and  N_10
REMARK    8  A    between atoms: C_11  and  C_13
REMARK    9  A    between atoms: C_13  and  N_14
REMARK   10  A    between atoms: C_13  and  C_15
REMARK   11  A    between atoms: C_15  and  C_16
REMARK   12  A    between atoms: C_15  and  C_17
REMARK                            x       y       z     vdW  Elec       q    Type
REMARK                         _______ _______ _______ _____ _____    ______ ____
ROOT
ATOM      1  C   UNL     1       0.941   9.831  18.906  0.00  0.00    +0.000 C 
ATOM      2  O   UNL     1       1.674  10.167  17.979  0.00  0.00    +0.000 OA
ENDROOT
BRANCH   1   5
ATOM      3  C   UNL     1       0.439  11.902  21.279  0.00  0.00    +0.000 C 
ATOM      4  C   UNL     1      -0.523  11.537  20.186  0.00  0.00    +0.000 A 
ATOM      5  C   UNL     1      -0.334  10.617  19.117  0.00  0.00    +0.000 A 
ATOM      6  N   UNL     1      -1.378  10.388  18.213  0.00  0.00    +0.000 N 
ATOM      7  O   UNL     1      -1.262   9.618  17.203  0.00  0.00    +0.000 OA
ATOM      8  C   UNL     1      -2.629  11.006  18.400  0.00  0.00    +0.000 A 
ATOM      9  C   UNL     1      -3.724  10.703  17.555  0.00  0.00    +0.000 A 
ATOM     10  C   UNL     1      -4.973  11.288  17.752  0.00  0.00    +0.000 A 
ATOM     11  C   UNL     1      -5.146  12.211  18.773  0.00  0.00    +0.000 A 
ATOM     12  C   UNL     1      -4.074  12.537  19.603  0.00  0.00    +0.000 A 
ATOM     13  C   UNL     1      -2.811  11.926  19.442  0.00  0.00    +0.000 A 
ATOM     14  N   UNL     1      -1.749  12.204  20.315  0.00  0.00    +0.000 N 
ATOM     15  O   UNL     1      -1.921  13.059  21.251  0.00  0.00    +0.000 OA
ENDBRANCH   1   5
BRANCH   1  16
ATOM     16  C   UNL     1       1.302   8.667  19.840  0.00  0.00    +0.000 C 
BRANCH  16  17
ATOM     17  S   UNL     1       2.353   7.405  19.062  0.00  0.00    +0.000 S 
BRANCH  17  18
ATOM     18  C   UNL     1       2.019   6.026  20.218  0.00  0.00    +0.000 C 
BRANCH  18  19
ATOM     19  C   UNL     1       3.159   5.006  20.091  0.00  0.00    +0.000 C 
BRANCH  19  20
ATOM     20  N   UNL     1       4.197   5.404  19.157  0.00  0.00    +0.000 N 
ATOM     21  C   UNL     1       5.218   4.528  18.845  0.00  0.00    +0.000 C 
ATOM     22  O   UNL     1       5.362   3.445  19.415  0.00  0.00    +0.000 OA
ATOM     23  H   UNL     1       3.960   6.107  18.470  0.00  0.00    +0.000 HD
BRANCH  21  24
ATOM     24  C   UNL     1       6.239   5.065  17.823  0.00  0.00    +0.000 C 
BRANCH  24  25
ATOM     25  N   UNL     1       7.474   4.263  17.977  0.00  0.00    +0.000 NA
ATOM     26  H   UNL     1       8.229   4.903  18.245  0.00  0.00    +0.000 HD
ATOM     27  H   UNL     1       7.751   3.897  17.066  0.00  0.00    +0.000 HD
ENDBRANCH  24  25
BRANCH  24  28
ATOM     28  C   UNL     1       5.676   4.950  16.386  0.00  0.00    +0.000 C 
ATOM     29  C   UNL     1       5.131   6.298  15.891  0.00  0.00    +0.000 C 
ATOM     30  C   UNL     1       6.732   4.454  15.395  0.00  0.00    +0.000 C 
ENDBRANCH  24  28
ENDBRANCH  21  24
ENDBRANCH  19  20
ENDBRANCH  18  19
ENDBRANCH  17  18
ENDBRANCH  16  17
ENDBRANCH   1  16
TORSDOF 9
ENDMDL
MODEL 8
REMARK VINA RESULT:      -6.5      4.114      6.789
REMARK  Name = 
REMARK  12 active torsions:
REMARK  status: ('A' for Active; 'I' for Inactive)
REMARK    1  A    between atoms: C_1  and  C_2
REMARK    2  A    between atoms: C_3  and  C_4
REMARK    3  A    between atoms: C_4  and  C_6
REMARK    4  A    between atoms: C_6  and  S_7
REMARK    5  A    between atoms: S_7  and  C_8
REMARK    6  A    between atoms: C_8  and  C_9
REMARK    7  A    between atoms: C_9  and  N_10
REMARK    8  A    between atoms: C_11  and  C_13
REMARK    9  A    between atoms: C_13  and  N_14
REMARK   10  A    between atoms: C_13  and  C_15
REMARK   11  A    between atoms: C_15  and  C_16
REMARK   12  A    between atoms: C_15  and  C_17
REMARK                            x       y       z     vdW  Elec       q    Type
REMARK                         _______ _______ _______ _____ _____    ______ ____
ROOT
ATOM      1  C   UNL     1       2.585   6.167  19.493  0.00  0.00    +0.000 C 
ATOM      2  O   UNL     1       3.813   6.150  19.452  0.00  0.00    +0.000 OA
ENDROOT
BRANCH   1   5
ATOM      3  C   UNL     1       2.645   8.603  17.434  0.00  0.00    +0.000 C 
ATOM      4  C   UNL     1       1.949   8.567  18.765  0.00  0.00    +0.000 A 
ATOM      5  C   UNL     1       1.906   7.501  19.707  0.00  0.00    +0.000 A 
ATOM      6  N   UNL     1       1.226   7.681  20.918  0.00  0.00    +0.000 N 
ATOM      7  O   UNL     1       1.102   6.755  21.785  0.00  0.00    +0.000 OA
ATOM      8  C   UNL     1       0.653   8.928  21.233  0.00  0.00    +0.000 A 
ATOM      9  C   UNL     1       0.055   9.155  22.496  0.00  0.00    +0.000 A 
ATOM     10  C   UNL     1      -0.488  10.395  22.827  0.00  0.00    +0.000 A 
ATOM     11  C   UNL     1      -0.475  11.422  21.894  0.00  0.00    +0.000 A 
ATOM     12  C   UNL     1       0.092  11.211  20.638  0.00  0.00    +0.000 A 
ATOM     13  C   UNL     1       0.680   9.973  20.299  0.00  0.00    +0.000 A 
ATOM     14  N   UNL     1       1.308   9.778  19.059  0.00  0.00    +0.000 N 
ATOM     15  O   UNL     1       1.311  10.732  18.207  0.00  0.00    +0.000 OA
ENDBRANCH   1   5
BRANCH   1  16
ATOM     16  C   UNL     1       1.754   4.884  19.353  0.00  0.00    +0.000 C 
BRANCH  16  17
ATOM     17  S   UNL     1       1.783   4.173  17.682  0.00  0.00    +0.000 S 
BRANCH  17  18
ATOM     18  C   UNL     1       2.371   2.494  18.111  0.00  0.00    +0.000 C 
BRANCH  18  19
ATOM     19  C   UNL     1       3.787   2.321  17.546  0.00  0.00    +0.000 C 
BRANCH  19  20
ATOM     20  N   UNL     1       4.732   3.314  18.024  0.00  0.00    +0.000 N 
ATOM     21  C   UNL     1       5.610   3.914  17.143  0.00  0.00    +0.000 C 
ATOM     22  O   UNL     1       5.714   3.562  15.966  0.00  0.00    +0.000 OA
ATOM     23  H   UNL     1       4.483   3.831  18.857  0.00  0.00    +0.000 HD
BRANCH  21  24
ATOM     24  C   UNL     1       6.542   4.966  17.775  0.00  0.00    +0.000 C 
BRANCH  24  25
ATOM     25  N   UNL     1       7.838   4.301  18.037  0.00  0.00    +0.000 NA
ATOM     26  H   UNL     1       8.455   4.500  17.243  0.00  0.00    +0.000 HD
ATOM     27  H   UNL     1       7.705   3.290  18.019  0.00  0.00    +0.000 HD
ENDBRANCH  24  25
BRANCH  24  28
ATOM     28  C   UNL     1       6.717   6.174  16.823  0.00  0.00    +0.000 C 
ATOM     29  C   UNL     1       5.359   6.703  16.339  0.00  0.00    +0.000 C 
ATOM     30  C   UNL     1       7.481   7.320  17.488  0.00  0.00    +0.000 C 
ENDBRANCH  24  28
ENDBRANCH  21  24
ENDBRANCH  19  20
ENDBRANCH  18  19
ENDBRANCH  17  18
ENDBRANCH  16  17
ENDBRANCH   1  16
TORSDOF 9
ENDMDL
MODEL 9
REMARK VINA RESULT:      -6.5      5.514      8.831
REMARK  Name = 
REMARK  12 active torsions:
REMARK  status: ('A' for Active; 'I' for Inactive)
REMARK    1  A    between atoms: C_1  and  C_2
REMARK    2  A    between atoms: C_3  and  C_4
REMARK    3  A    between atoms: C_4  and  C_6
REMARK    4  A    between atoms: C_6  and  S_7
REMARK    5  A    between atoms: S_7  and  C_8
REMARK    6  A    between atoms: C_8  and  C_9
REMARK    7  A    between atoms: C_9  and  N_10
REMARK    8  A    between atoms: C_11  and  C_13
REMARK    9  A    between atoms: C_13  and  N_14
REMARK   10  A    between atoms: C_13  and  C_15
REMARK   11  A    between atoms: C_15  and  C_16
REMARK   12  A    between atoms: C_15  and  C_17
REMARK                            x       y       z     vdW  Elec       q    Type
REMARK                         _______ _______ _______ _____ _____    ______ ____
ROOT
ATOM      1  C   UNL     1       1.094   9.004  21.661  0.00  0.00    +0.000 C 
ATOM      2  O   UNL     1       2.122   9.366  22.229  0.00  0.00    +0.000 OA
ENDROOT
BRANCH   1   5
ATOM      3  C   UNL     1       0.622  10.051  18.685  0.00  0.00    +0.000 C 
ATOM      4  C   UNL     1      -0.092  10.511  19.924  0.00  0.00    +0.000 A 
ATOM      5  C   UNL     1       0.097  10.070  21.264  0.00  0.00    +0.000 A 
ATOM      6  N   UNL     1      -0.650  10.656  22.293  0.00  0.00    +0.000 N 
ATOM      7  O   UNL     1      -0.572  10.276  23.507  0.00  0.00    +0.000 OA
ATOM      8  C   UNL     1      -1.527  11.723  22.016  0.00  0.00    +0.000 A 
ATOM      9  C   UNL     1      -2.208  12.393  23.061  0.00  0.00    +0.000 A 
ATOM     10  C   UNL     1      -3.054  13.469  22.798  0.00  0.00    +0.000 A 
ATOM     11  C   UNL     1      -3.262  13.876  21.488  0.00  0.00    +0.000 A 
ATOM     12  C   UNL     1      -2.615  13.215  20.445  0.00  0.00    +0.000 A 
ATOM     13  C   UNL     1      -1.726  12.147  20.695  0.00  0.00    +0.000 A 
ATOM     14  N   UNL     1      -1.024  11.522  19.653  0.00  0.00    +0.000 N 
ATOM     15  O   UNL     1      -1.227  11.905  18.449  0.00  0.00    +0.000 OA
ENDBRANCH   1   5
BRANCH   1  16
ATOM     16  C   UNL     1       0.807   7.524  21.374  0.00  0.00    +0.000 C 
BRANCH  16  17
ATOM     17  S   UNL     1       2.083   6.714  20.366  0.00  0.00    +0.000 S 
BRANCH  17  18
ATOM     18  C   UNL     1       1.523   4.982  20.561  0.00  0.00    +0.000 C 
BRANCH  18  19
ATOM     19  C   UNL     1       2.633   4.057  20.045  0.00  0.00    +0.000 C 
BRANCH  19  20
ATOM     20  N   UNL     1       3.588   4.720  19.174  0.00  0.00    +0.000 N 
ATOM     21  C   UNL     1       4.843   4.175  18.983  0.00  0.00    +0.000 C 
ATOM     22  O   UNL     1       5.245   3.196  19.614  0.00  0.00    +0.000 OA
ATOM     23  H   UNL     1       3.218   5.306  18.439  0.00  0.00    +0.000 HD
BRANCH  21  24
ATOM     24  C   UNL     1       5.748   4.964  18.017  0.00  0.00    +0.000 C 
BRANCH  24  25
ATOM     25  N   UNL     1       7.075   4.306  18.027  0.00  0.00    +0.000 NA
ATOM     26  H   UNL     1       7.356   4.188  19.006  0.00  0.00    +0.000 HD
ATOM     27  H   UNL     1       7.766   4.942  17.629  0.00  0.00    +0.000 HD
ENDBRANCH  24  25
BRANCH  24  28
ATOM     28  C   UNL     1       5.141   4.973  16.594  0.00  0.00    +0.000 C 
ATOM     29  C   UNL     1       5.131   6.389  16.001  0.00  0.00    +0.000 C 
ATOM     30  C   UNL     1       5.902   4.048  15.642  0.00  0.00    +0.000 C 
ENDBRANCH  24  28
ENDBRANCH  21  24
ENDBRANCH  19  20
ENDBRANCH  18  19
ENDBRANCH  17  18
ENDBRANCH  16  17
ENDBRANCH   1  16
TORSDOF 9
ENDMDL
