MODEL 1
REMARK VINA RESULT:      -8.9      0.000      0.000
REMARK  Name = 
REMARK  5 active torsions:
REMARK  status: ('A' for Active; 'I' for Inactive)
REMARK    1  A    between atoms: C_2  and  C_3
REMARK    2  A    between atoms: C_3  and  S_4
REMARK    3  A    between atoms: S_4  and  C_5
REMARK    4  A    between atoms: C_13  and  C_14
REMARK    5  A    between atoms: N_21  and  C_22
REMARK                            x       y       z     vdW  Elec       q    Type
REMARK                         _______ _______ _______ _____ _____    ______ ____
ROOT
ATOM      1  C   UNL     1       4.868   4.749  19.148  0.00  0.00    +0.000 A 
ATOM      2  N   UNL     1       5.586   3.651  19.022  0.00  0.00    +0.000 NA
ATOM      3  N   UNL     1       4.946   2.640  19.699  0.00  0.00    +0.000 NA
ATOM      4  C   UNL     1       3.847   3.147  20.204  0.00  0.00    +0.000 A 
ATOM      5  N   UNL     1       2.919   2.524  20.997  0.00  0.00    +0.000 N 
ATOM      6  C   UNL     1       1.797   3.183  21.426  0.00  0.00    +0.000 A 
ATOM      7  O   UNL     1       0.965   2.666  22.158  0.00  0.00    +0.000 OA
ATOM      8  C   UNL     1       1.602   4.583  20.941  0.00  0.00    +0.000 A 
ATOM      9  C   UNL     1       2.539   5.181  20.173  0.00  0.00    +0.000 A 
ATOM     10  N   UNL     1       3.697   4.471  19.829  0.00  0.00    +0.000 N 
ATOM     11  H   UNL     1       3.071   1.568  21.287  0.00  0.00    +0.000 HD
ENDROOT
BRANCH   9  12
ATOM     12  C   UNL     1       2.223   6.531  19.686  0.00  0.00    +0.000 A 
ATOM     13  C   UNL     1       1.786   7.526  20.568  0.00  0.00    +0.000 A 
ATOM     14  C   UNL     1       1.441   8.789  20.082  0.00  0.00    +0.000 A 
ATOM     15  C   UNL     1       1.537   9.066  18.718  0.00  0.00    +0.000 A 
ATOM     16  C   UNL     1       1.976   8.081  17.836  0.00  0.00    +0.000 A 
ATOM     17  C   UNL     1       2.309   6.813  18.315  0.00  0.00    +0.000 A 
ENDBRANCH   9  12
BRANCH   1  18
ATOM     18  S   UNL     1       5.385   6.327  18.635  0.00  0.00    +0.000 S 
BRANCH  18  19
ATOM     19  C   UNL     1       7.159   6.029  18.355  0.00  0.00    +0.000 C 
BRANCH  19  21
ATOM     20  O   UNL     1       8.211   4.245  17.165  0.00  0.00    +0.000 OA
ATOM     21  C   UNL     1       7.460   5.222  17.093  0.00  0.00    +0.000 C 
ATOM     22  N   UNL     1       6.806   5.621  15.942  0.00  0.00    +0.000 N 
ATOM     23  H   UNL     1       6.422   6.565  15.941  0.00  0.00    +0.000 HD
BRANCH  22  24
ATOM     24  C   UNL     1       6.891   4.990  14.676  0.00  0.00    +0.000 A 
ATOM     25  C   UNL     1       7.768   5.403  13.667  0.00  0.00    +0.000 A 
ATOM     26  C   UNL     1       7.703   4.828  12.393  0.00  0.00    +0.000 A 
ATOM     27  C   UNL     1       6.788   3.814  12.139  0.00  0.00    +0.000 A 
ATOM     28  F   UNL     1       6.697   3.301  10.906  0.00  0.00    +0.000 F 
ATOM     29  C   UNL     1       5.971   3.323  13.148  0.00  0.00    +0.000 A 
ATOM     30  C   UNL     1       6.037   3.910  14.410  0.00  0.00    +0.000 A 
ATOM     31  F   UNL     1       5.230   3.448  15.379  0.00  0.00    +0.000 F 
ENDBRANCH  22  24
ENDBRANCH  19  21
ENDBRANCH  18  19
ENDBRANCH   1  18
TORSDOF 5
ENDMDL
MODEL 2
REMARK VINA RESULT:      -8.9      0.952      1.297
REMARK  Name = 
REMARK  5 active torsions:
REMARK  status: ('A' for Active; 'I' for Inactive)
REMARK    1  A    between atoms: C_2  and  C_3
REMARK    2  A    between atoms: C_3  and  S_4
REMARK    3  A    between atoms: S_4  and  C_5
REMARK    4  A    between atoms: C_13  and  C_14
REMARK    5  A    between atoms: N_21  and  C_22
REMARK                            x       y       z     vdW  Elec       q    Type
REMARK                         _______ _______ _______ _____ _____    ______ ____
ROOT
ATOM      1  C   UNL     1       4.933   4.977  18.828  0.00  0.00    +0.000 A 
ATOM      2  N   UNL     1       5.666   3.894  18.669  0.00  0.00    +0.000 NA
ATOM      3  N   UNL     1       5.093   2.877  19.394  0.00  0.00    +0.000 NA
ATOM      4  C   UNL     1       4.017   3.365  19.961  0.00  0.00    +0.000 A 
ATOM      5  N   UNL     1       3.154   2.729  20.817  0.00  0.00    +0.000 N 
ATOM      6  C   UNL     1       2.046   3.367  21.308  0.00  0.00    +0.000 A 
ATOM      7  O   UNL     1       1.273   2.840  22.095  0.00  0.00    +0.000 OA
ATOM      8  C   UNL     1       1.788   4.757  20.822  0.00  0.00    +0.000 A 
ATOM      9  C   UNL     1       2.661   5.368  19.991  0.00  0.00    +0.000 A 
ATOM     10  N   UNL     1       3.812   4.680  19.584  0.00  0.00    +0.000 N 
ATOM     11  H   UNL     1       3.346   1.781  21.106  0.00  0.00    +0.000 HD
ENDROOT
BRANCH   9  12
ATOM     12  C   UNL     1       2.285   6.705  19.513  0.00  0.00    +0.000 A 
ATOM     13  C   UNL     1       1.807   7.675  20.400  0.00  0.00    +0.000 A 
ATOM     14  C   UNL     1       1.405   8.924  19.922  0.00  0.00    +0.000 A 
ATOM     15  C   UNL     1       1.484   9.211  18.559  0.00  0.00    +0.000 A 
ATOM     16  C   UNL     1       1.963   8.251  17.670  0.00  0.00    +0.000 A 
ATOM     17  C   UNL     1       2.353   6.997  18.142  0.00  0.00    +0.000 A 
ENDBRANCH   9  12
BRANCH   1  18
ATOM     18  S   UNL     1       5.380   6.561  18.269  0.00  0.00    +0.000 S 
BRANCH  18  19
ATOM     19  C   UNL     1       7.104   6.268  17.764  0.00  0.00    +0.000 C 
BRANCH  19  21
ATOM     20  O   UNL     1       7.989   4.349  16.652  0.00  0.00    +0.000 OA
ATOM     21  C   UNL     1       7.248   5.333  16.566  0.00  0.00    +0.000 C 
ATOM     22  N   UNL     1       6.475   5.633  15.459  0.00  0.00    +0.000 N 
ATOM     23  H   UNL     1       6.108   6.581  15.405  0.00  0.00    +0.000 HD
BRANCH  22  24
ATOM     24  C   UNL     1       6.407   4.877  14.262  0.00  0.00    +0.000 A 
ATOM     25  C   UNL     1       5.372   3.980  13.974  0.00  0.00    +0.000 A 
ATOM     26  C   UNL     1       5.439   3.162  12.842  0.00  0.00    +0.000 A 
ATOM     27  C   UNL     1       6.521   3.266  11.977  0.00  0.00    +0.000 A 
ATOM     28  F   UNL     1       6.603   2.448  10.921  0.00  0.00    +0.000 F 
ATOM     29  C   UNL     1       7.514   4.212  12.190  0.00  0.00    +0.000 A 
ATOM     30  C   UNL     1       7.443   5.015  13.327  0.00  0.00    +0.000 A 
ATOM     31  F   UNL     1       8.417   5.914  13.543  0.00  0.00    +0.000 F 
ENDBRANCH  22  24
ENDBRANCH  19  21
ENDBRANCH  18  19
ENDBRANCH   1  18
TORSDOF 5
ENDMDL
MODEL 3
REMARK VINA RESULT:      -8.5      5.084      6.818
REMARK  Name = 
REMARK  5 active torsions:
REMARK  status: ('A' for Active; 'I' for Inactive)
REMARK    1  A    between atoms: C_2  and  C_3
REMARK    2  A    between atoms: C_3  and  S_4
REMARK    3  A    between atoms: S_4  and  C_5
REMARK    4  A    between atoms: C_13  and  C_14
REMARK    5  A    between atoms: N_21  and  C_22
REMARK                            x       y       z     vdW  Elec       q    Type
REMARK                         _______ _______ _______ _____ _____    ______ ____
ROOT
ATOM      1  C   UNL     1       6.117   6.176  17.051  0.00  0.00    +0.000 A 
ATOM      2  N   UNL     1       7.085   5.601  16.366  0.00  0.00    +0.000 NA
ATOM      3  N   UNL     1       6.769   4.273  16.209  0.00  0.00    +0.000 NA
ATOM      4  C   UNL     1       5.609   4.080  16.788  0.00  0.00    +0.000 A 
ATOM      5  N   UNL     1       4.922   2.901  16.925  0.00  0.00    +0.000 N 
ATOM      6  C   UNL     1       3.696   2.863  17.534  0.00  0.00    +0.000 A 
ATOM      7  O   UNL     1       3.070   1.825  17.699  0.00  0.00    +0.000 OA
ATOM      8  C   UNL     1       3.118   4.166  17.985  0.00  0.00    +0.000 A 
ATOM      9  C   UNL     1       3.820   5.312  17.853  0.00  0.00    +0.000 A 
ATOM     10  N   UNL     1       5.100   5.268  17.283  0.00  0.00    +0.000 N 
ATOM     11  H   UNL     1       5.333   2.042  16.588  0.00  0.00    +0.000 HD
ENDROOT
BRANCH   9  12
ATOM     12  C   UNL     1       3.139   6.549  18.257  0.00  0.00    +0.000 A 
ATOM     13  C   UNL     1       2.664   6.711  19.563  0.00  0.00    +0.000 A 
ATOM     14  C   UNL     1       1.973   7.871  19.918  0.00  0.00    +0.000 A 
ATOM     15  C   UNL     1       1.760   8.876  18.974  0.00  0.00    +0.000 A 
ATOM     16  C   UNL     1       2.234   8.724  17.673  0.00  0.00    +0.000 A 
ATOM     17  C   UNL     1       2.913   7.559  17.310  0.00  0.00    +0.000 A 
ENDBRANCH   9  12
BRANCH   1  18
ATOM     18  S   UNL     1       6.178   7.800  17.668  0.00  0.00    +0.000 S 
BRANCH  18  19
ATOM     19  C   UNL     1       7.977   8.066  17.747  0.00  0.00    +0.000 C 
BRANCH  19  21
ATOM     20  O   UNL     1       7.883  10.447  17.583  0.00  0.00    +0.000 OA
ATOM     21  C   UNL     1       8.376   9.479  18.169  0.00  0.00    +0.000 C 
ATOM     22  N   UNL     1       9.241   9.574  19.244  0.00  0.00    +0.000 N 
ATOM     23  H   UNL     1       9.769   8.735  19.478  0.00  0.00    +0.000 HD
BRANCH  22  24
ATOM     24  C   UNL     1       9.700  10.776  19.837  0.00  0.00    +0.000 A 
ATOM     25  C   UNL     1       9.206  11.276  21.047  0.00  0.00    +0.000 A 
ATOM     26  C   UNL     1       9.599  12.538  21.506  0.00  0.00    +0.000 A 
ATOM     27  C   UNL     1      10.516  13.284  20.775  0.00  0.00    +0.000 A 
ATOM     28  F   UNL     1      10.852  14.509  21.194  0.00  0.00    +0.000 F 
ATOM     29  C   UNL     1      11.090  12.771  19.621  0.00  0.00    +0.000 A 
ATOM     30  C   UNL     1      10.684  11.518  19.167  0.00  0.00    +0.000 A 
ATOM     31  F   UNL     1      11.225  11.034  18.038  0.00  0.00    +0.000 F 
ENDBRANCH  22  24
ENDBRANCH  19  21
ENDBRANCH  18  19
ENDBRANCH   1  18
TORSDOF 5
ENDMDL
MODEL 4
REMARK VINA RESULT:      -8.4      4.503      8.527
REMARK  Name = 
REMARK  5 active torsions:
REMARK  status: ('A' for Active; 'I' for Inactive)
REMARK    1  A    between atoms: C_2  and  C_3
REMARK    2  A    between atoms: C_3  and  S_4
REMARK    3  A    between atoms: S_4  and  C_5
REMARK    4  A    between atoms: C_13  and  C_14
REMARK    5  A    between atoms: N_21  and  C_22
REMARK                            x       y       z     vdW  Elec       q    Type
REMARK                         _______ _______ _______ _____ _____    ______ ____
ROOT
ATOM      1  C   UNL     1       2.924   6.990  18.432  0.00  0.00    +0.000 A 
ATOM      2  N   UNL     1       3.137   8.073  17.712  0.00  0.00    +0.000 NA
ATOM      3  N   UNL     1       4.036   7.758  16.720  0.00  0.00    +0.000 NA
ATOM      4  C   UNL     1       4.331   6.488  16.854  0.00  0.00    +0.000 A 
ATOM      5  N   UNL     1       5.221   5.748  16.119  0.00  0.00    +0.000 N 
ATOM      6  C   UNL     1       5.400   4.412  16.360  0.00  0.00    +0.000 A 
ATOM      7  O   UNL     1       6.207   3.731  15.743  0.00  0.00    +0.000 OA
ATOM      8  C   UNL     1       4.542   3.788  17.412  0.00  0.00    +0.000 A 
ATOM      9  C   UNL     1       3.683   4.540  18.134  0.00  0.00    +0.000 A 
ATOM     10  N   UNL     1       3.601   5.917  17.881  0.00  0.00    +0.000 N 
ATOM     11  H   UNL     1       5.769   6.198  15.399  0.00  0.00    +0.000 HD
ENDROOT
BRANCH   9  12
ATOM     12  C   UNL     1       2.831   3.825  19.093  0.00  0.00    +0.000 A 
ATOM     13  C   UNL     1       1.515   3.481  18.765  0.00  0.00    +0.000 A 
ATOM     14  C   UNL     1       0.701   2.847  19.706  0.00  0.00    +0.000 A 
ATOM     15  C   UNL     1       1.199   2.548  20.975  0.00  0.00    +0.000 A 
ATOM     16  C   UNL     1       2.510   2.884  21.307  0.00  0.00    +0.000 A 
ATOM     17  C   UNL     1       3.322   3.531  20.374  0.00  0.00    +0.000 A 
ENDBRANCH   9  12
BRANCH   1  18
ATOM     18  S   UNL     1       2.022   6.957  19.918  0.00  0.00    +0.000 S 
BRANCH  18  19
ATOM     19  C   UNL     1       1.851   8.739  20.250  0.00  0.00    +0.000 C 
BRANCH  19  21
ATOM     20  O   UNL     1      -0.382   8.907  21.082  0.00  0.00    +0.000 OA
ATOM     21  C   UNL     1       0.410   9.243  20.197  0.00  0.00    +0.000 C 
ATOM     22  N   UNL     1       0.104  10.111  19.164  0.00  0.00    +0.000 N 
ATOM     23  H   UNL     1       0.743  10.116  18.371  0.00  0.00    +0.000 HD
BRANCH  22  24
ATOM     24  C   UNL     1      -1.147  10.742  18.952  0.00  0.00    +0.000 A 
ATOM     25  C   UNL     1      -1.633  11.779  19.755  0.00  0.00    +0.000 A 
ATOM     26  C   UNL     1      -2.934  12.261  19.579  0.00  0.00    +0.000 A 
ATOM     27  C   UNL     1      -3.737  11.733  18.575  0.00  0.00    +0.000 A 
ATOM     28  F   UNL     1      -4.996  12.164  18.441  0.00  0.00    +0.000 F 
ATOM     29  C   UNL     1      -3.246  10.768  17.706  0.00  0.00    +0.000 A 
ATOM     30  C   UNL     1      -1.952  10.288  17.897  0.00  0.00    +0.000 A 
ATOM     31  F   UNL     1      -1.487   9.339  17.068  0.00  0.00    +0.000 F 
ENDBRANCH  22  24
ENDBRANCH  19  21
ENDBRANCH  18  19
ENDBRANCH   1  18
TORSDOF 5
ENDMDL
MODEL 5
REMARK VINA RESULT:      -8.3      4.277      8.028
REMARK  Name = 
REMARK  5 active torsions:
REMARK  status: ('A' for Active; 'I' for Inactive)
REMARK    1  A    between atoms: C_2  and  C_3
REMARK    2  A    between atoms: C_3  and  S_4
REMARK    3  A    between atoms: S_4  and  C_5
REMARK    4  A    between atoms: C_13  and  C_14
REMARK    5  A    between atoms: N_21  and  C_22
REMARK                            x       y       z     vdW  Elec       q    Type
REMARK                         _______ _______ _______ _____ _____    ______ ____
ROOT
ATOM      1  C   UNL     1       2.162   5.607  19.853  0.00  0.00    +0.000 A 
ATOM      2  N   UNL     1       1.192   5.248  20.671  0.00  0.00    +0.000 NA
ATOM      3  N   UNL     1       1.145   3.875  20.703  0.00  0.00    +0.000 NA
ATOM      4  C   UNL     1       2.099   3.436  19.918  0.00  0.00    +0.000 A 
ATOM      5  N   UNL     1       2.399   2.136  19.602  0.00  0.00    +0.000 N 
ATOM      6  C   UNL     1       3.453   1.831  18.783  0.00  0.00    +0.000 A 
ATOM      7  O   UNL     1       3.730   0.685  18.459  0.00  0.00    +0.000 OA
ATOM      8  C   UNL     1       4.294   2.969  18.303  0.00  0.00    +0.000 A 
ATOM      9  C   UNL     1       3.970   4.243  18.614  0.00  0.00    +0.000 A 
ATOM     10  N   UNL     1       2.835   4.487  19.400  0.00  0.00    +0.000 N 
ATOM     11  H   UNL     1       1.823   1.389  19.964  0.00  0.00    +0.000 HD
ENDROOT
BRANCH   9  12
ATOM     12  C   UNL     1       4.897   5.287  18.157  0.00  0.00    +0.000 A 
ATOM     13  C   UNL     1       4.608   6.055  17.024  0.00  0.00    +0.000 A 
ATOM     14  C   UNL     1       5.524   7.008  16.572  0.00  0.00    +0.000 A 
ATOM     15  C   UNL     1       6.726   7.202  17.252  0.00  0.00    +0.000 A 
ATOM     16  C   UNL     1       7.018   6.443  18.383  0.00  0.00    +0.000 A 
ATOM     17  C   UNL     1       6.112   5.480  18.830  0.00  0.00    +0.000 A 
ENDBRANCH   9  12
BRANCH   1  18
ATOM     18  S   UNL     1       2.461   7.240  19.338  0.00  0.00    +0.000 S 
BRANCH  18  19
ATOM     19  C   UNL     1       1.911   8.165  20.806  0.00  0.00    +0.000 C 
BRANCH  19  21
ATOM     20  O   UNL     1      -0.382   8.471  21.399  0.00  0.00    +0.000 OA
ATOM     21  C   UNL     1       0.537   8.815  20.650  0.00  0.00    +0.000 C 
ATOM     22  N   UNL     1       0.436   9.808  19.694  0.00  0.00    +0.000 N 
ATOM     23  H   UNL     1       1.164   9.830  18.982  0.00  0.00    +0.000 HD
BRANCH  22  24
ATOM     24  C   UNL     1      -0.721  10.580  19.416  0.00  0.00    +0.000 A 
ATOM     25  C   UNL     1      -1.222  11.556  20.284  0.00  0.00    +0.000 A 
ATOM     26  C   UNL     1      -2.444  12.181  20.016  0.00  0.00    +0.000 A 
ATOM     27  C   UNL     1      -3.148  11.858  18.862  0.00  0.00    +0.000 A 
ATOM     28  F   UNL     1      -4.339  12.423  18.635  0.00  0.00    +0.000 F 
ATOM     29  C   UNL     1      -2.627  10.961  17.940  0.00  0.00    +0.000 A 
ATOM     30  C   UNL     1      -1.414  10.336  18.222  0.00  0.00    +0.000 A 
ATOM     31  F   UNL     1      -0.923   9.452  17.338  0.00  0.00    +0.000 F 
ENDBRANCH  22  24
ENDBRANCH  19  21
ENDBRANCH  18  19
ENDBRANCH   1  18
TORSDOF 5
ENDMDL
MODEL 6
REMARK VINA RESULT:      -8.3      4.715      8.597
REMARK  Name = 
REMARK  5 active torsions:
REMARK  status: ('A' for Active; 'I' for Inactive)
REMARK    1  A    between atoms: C_2  and  C_3
REMARK    2  A    between atoms: C_3  and  S_4
REMARK    3  A    between atoms: S_4  and  C_5
REMARK    4  A    between atoms: C_13  and  C_14
REMARK    5  A    between atoms: N_21  and  C_22
REMARK                            x       y       z     vdW  Elec       q    Type
REMARK                         _______ _______ _______ _____ _____    ______ ____
ROOT
ATOM      1  C   UNL     1       2.924   7.010  18.511  0.00  0.00    +0.000 A 
ATOM      2  N   UNL     1       3.143   8.080  17.772  0.00  0.00    +0.000 NA
ATOM      3  N   UNL     1       3.993   7.729  16.750  0.00  0.00    +0.000 NA
ATOM      4  C   UNL     1       4.254   6.452  16.886  0.00  0.00    +0.000 A 
ATOM      5  N   UNL     1       5.093   5.679  16.124  0.00  0.00    +0.000 N 
ATOM      6  C   UNL     1       5.241   4.340  16.372  0.00  0.00    +0.000 A 
ATOM      7  O   UNL     1       6.003   3.628  15.732  0.00  0.00    +0.000 OA
ATOM      8  C   UNL     1       4.404   3.752  17.462  0.00  0.00    +0.000 A 
ATOM      9  C   UNL     1       3.596   4.536  18.208  0.00  0.00    +0.000 A 
ATOM     10  N   UNL     1       3.547   5.912  17.945  0.00  0.00    +0.000 N 
ATOM     11  H   UNL     1       5.626   6.105  15.380  0.00  0.00    +0.000 HD
ENDROOT
BRANCH   9  12
ATOM     12  C   UNL     1       2.760   3.856  19.206  0.00  0.00    +0.000 A 
ATOM     13  C   UNL     1       1.417   3.572  18.940  0.00  0.00    +0.000 A 
ATOM     14  C   UNL     1       0.621   2.971  19.918  0.00  0.00    +0.000 A 
ATOM     15  C   UNL     1       1.165   2.645  21.161  0.00  0.00    +0.000 A 
ATOM     16  C   UNL     1       2.504   2.921  21.431  0.00  0.00    +0.000 A 
ATOM     17  C   UNL     1       3.298   3.535  20.461  0.00  0.00    +0.000 A 
ENDBRANCH   9  12
BRANCH   1  18
ATOM     18  S   UNL     1       2.079   7.018  20.029  0.00  0.00    +0.000 S 
BRANCH  18  19
ATOM     19  C   UNL     1       1.764   8.799  20.233  0.00  0.00    +0.000 C 
BRANCH  19  21
ATOM     20  O   UNL     1      -0.465   8.889  21.087  0.00  0.00    +0.000 OA
ATOM     21  C   UNL     1       0.287   9.181  20.152  0.00  0.00    +0.000 C 
ATOM     22  N   UNL     1      -0.100   9.894  19.032  0.00  0.00    +0.000 N 
ATOM     23  H   UNL     1       0.527   9.856  18.231  0.00  0.00    +0.000 HD
BRANCH  22  24
ATOM     24  C   UNL     1      -1.400  10.396  18.775  0.00  0.00    +0.000 A 
ATOM     25  C   UNL     1      -2.289   9.804  17.871  0.00  0.00    +0.000 A 
ATOM     26  C   UNL     1      -3.501  10.429  17.558  0.00  0.00    +0.000 A 
ATOM     27  C   UNL     1      -3.842  11.626  18.177  0.00  0.00    +0.000 A 
ATOM     28  F   UNL     1      -4.979  12.243  17.838  0.00  0.00    +0.000 F 
ATOM     29  C   UNL     1      -3.019  12.185  19.145  0.00  0.00    +0.000 A 
ATOM     30  C   UNL     1      -1.810  11.560  19.441  0.00  0.00    +0.000 A 
ATOM     31  F   UNL     1      -1.006  12.115  20.363  0.00  0.00    +0.000 F 
ENDBRANCH  22  24
ENDBRANCH  19  21
ENDBRANCH  18  19
ENDBRANCH   1  18
TORSDOF 5
ENDMDL
MODEL 7
REMARK VINA RESULT:      -8.2      4.312      8.113
REMARK  Name = 
REMARK  5 active torsions:
REMARK  status: ('A' for Active; 'I' for Inactive)
REMARK    1  A    between atoms: C_2  and  C_3
REMARK    2  A    between atoms: C_3  and  S_4
REMARK    3  A    between atoms: S_4  and  C_5
REMARK    4  A    between atoms: C_13  and  C_14
REMARK    5  A    between atoms: N_21  and  C_22
REMARK                            x       y       z     vdW  Elec       q    Type
REMARK                         _______ _______ _______ _____ _____    ______ ____
ROOT
ATOM      1  C   UNL     1       2.905   6.402  19.159  0.00  0.00    +0.000 A 
ATOM      2  N   UNL     1       2.103   6.755  20.143  0.00  0.00    +0.000 NA
ATOM      3  N   UNL     1       1.510   5.619  20.641  0.00  0.00    +0.000 NA
ATOM      4  C   UNL     1       1.981   4.605  19.956  0.00  0.00    +0.000 A 
ATOM      5  N   UNL     1       1.638   3.282  20.069  0.00  0.00    +0.000 N 
ATOM      6  C   UNL     1       2.245   2.326  19.298  0.00  0.00    +0.000 A 
ATOM      7  O   UNL     1       1.942   1.142  19.352  0.00  0.00    +0.000 OA
ATOM      8  C   UNL     1       3.333   2.780  18.379  0.00  0.00    +0.000 A 
ATOM      9  C   UNL     1       3.641   4.091  18.275  0.00  0.00    +0.000 A 
ATOM     10  N   UNL     1       2.932   5.024  19.043  0.00  0.00    +0.000 N 
ATOM     11  H   UNL     1       0.915   3.007  20.718  0.00  0.00    +0.000 HD
ENDROOT
BRANCH   9  12
ATOM     12  C   UNL     1       4.772   4.430  17.401  0.00  0.00    +0.000 A 
ATOM     13  C   UNL     1       4.601   4.537  16.017  0.00  0.00    +0.000 A 
ATOM     14  C   UNL     1       5.696   4.810  15.194  0.00  0.00    +0.000 A 
ATOM     15  C   UNL     1       6.964   4.983  15.751  0.00  0.00    +0.000 A 
ATOM     16  C   UNL     1       7.141   4.883  17.129  0.00  0.00    +0.000 A 
ATOM     17  C   UNL     1       6.051   4.597  17.953  0.00  0.00    +0.000 A 
ENDBRANCH   9  12
BRANCH   1  18
ATOM     18  S   UNL     1       3.709   7.518  18.096  0.00  0.00    +0.000 S 
BRANCH  18  19
ATOM     19  C   UNL     1       2.282   8.377  17.363  0.00  0.00    +0.000 C 
BRANCH  19  21
ATOM     20  O   UNL     1       2.296  10.685  17.980  0.00  0.00    +0.000 OA
ATOM     21  C   UNL     1       1.794   9.574  18.178  0.00  0.00    +0.000 C 
ATOM     22  N   UNL     1       0.758   9.331  19.061  0.00  0.00    +0.000 N 
ATOM     23  H   UNL     1       0.600   8.359  19.320  0.00  0.00    +0.000 HD
BRANCH  22  24
ATOM     24  C   UNL     1       0.115  10.298  19.874  0.00  0.00    +0.000 A 
ATOM     25  C   UNL     1       0.448  10.521  21.215  0.00  0.00    +0.000 A 
ATOM     26  C   UNL     1      -0.319  11.388  22.000  0.00  0.00    +0.000 A 
ATOM     27  C   UNL     1      -1.394  12.063  21.435  0.00  0.00    +0.000 A 
ATOM     28  F   UNL     1      -2.153  12.854  22.202  0.00  0.00    +0.000 F 
ATOM     29  C   UNL     1      -1.688  11.929  20.085  0.00  0.00    +0.000 A 
ATOM     30  C   UNL     1      -0.924  11.055  19.315  0.00  0.00    +0.000 A 
ATOM     31  F   UNL     1      -1.225  10.911  18.014  0.00  0.00    +0.000 F 
ENDBRANCH  22  24
ENDBRANCH  19  21
ENDBRANCH  18  19
ENDBRANCH   1  18
TORSDOF 5
ENDMDL
MODEL 8
REMARK VINA RESULT:      -8.2      5.159      9.593
REMARK  Name = 
REMARK  5 active torsions:
REMARK  status: ('A' for Active; 'I' for Inactive)
REMARK    1  A    between atoms: C_2  and  C_3
REMARK    2  A    between atoms: C_3  and  S_4
REMARK    3  A    between atoms: S_4  and  C_5
REMARK    4  A    between atoms: C_13  and  C_14
REMARK    5  A    between atoms: N_21  and  C_22
REMARK                            x       y       z     vdW  Elec       q    Type
REMARK                         _______ _______ _______ _____ _____    ______ ____
ROOT
ATOM      1  C   UNL     1       2.375   7.366  18.989  0.00  0.00    +0.000 A 
ATOM      2  N   UNL     1       2.429   8.538  18.390  0.00  0.00    +0.000 NA
ATOM      3  N   UNL     1       3.289   8.436  17.322  0.00  0.00    +0.000 NA
ATOM      4  C   UNL     1       3.721   7.198  17.291  0.00  0.00    +0.000 A 
ATOM      5  N   UNL     1       4.633   6.647  16.428  0.00  0.00    +0.000 N 
ATOM      6  C   UNL     1       4.963   5.320  16.501  0.00  0.00    +0.000 A 
ATOM      7  O   UNL     1       5.794   4.803  15.767  0.00  0.00    +0.000 OA
ATOM      8  C   UNL     1       4.243   4.493  17.517  0.00  0.00    +0.000 A 
ATOM      9  C   UNL     1       3.360   5.062  18.366  0.00  0.00    +0.000 A 
ATOM     10  N   UNL     1       3.121   6.440  18.281  0.00  0.00    +0.000 N 
ATOM     11  H   UNL     1       5.083   7.231  15.738  0.00  0.00    +0.000 HD
ENDROOT
BRANCH   9  12
ATOM     12  C   UNL     1       2.650   4.156  19.278  0.00  0.00    +0.000 A 
ATOM     13  C   UNL     1       1.358   3.710  18.982  0.00  0.00    +0.000 A 
ATOM     14  C   UNL     1       0.676   2.890  19.884  0.00  0.00    +0.000 A 
ATOM     15  C   UNL     1       1.283   2.507  21.080  0.00  0.00    +0.000 A 
ATOM     16  C   UNL     1       2.572   2.944  21.380  0.00  0.00    +0.000 A 
ATOM     17  C   UNL     1       3.251   3.775  20.487  0.00  0.00    +0.000 A 
ENDBRANCH   9  12
BRANCH   1  18
ATOM     18  S   UNL     1       1.579   7.070  20.505  0.00  0.00    +0.000 S 
BRANCH  18  19
ATOM     19  C   UNL     1       1.576   8.744  21.219  0.00  0.00    +0.000 C 
BRANCH  19  21
ATOM     20  O   UNL     1      -0.767   8.526  21.629  0.00  0.00    +0.000 OA
ATOM     21  C   UNL     1       0.178   9.305  21.477  0.00  0.00    +0.000 C 
ATOM     22  N   UNL     1       0.081  10.681  21.581  0.00  0.00    +0.000 N 
ATOM     23  H   UNL     1       0.854  11.221  21.195  0.00  0.00    +0.000 HD
BRANCH  22  24
ATOM     24  C   UNL     1      -1.099  11.411  21.869  0.00  0.00    +0.000 A 
ATOM     25  C   UNL     1      -1.638  11.527  23.155  0.00  0.00    +0.000 A 
ATOM     26  C   UNL     1      -2.879  12.141  23.350  0.00  0.00    +0.000 A 
ATOM     27  C   UNL     1      -3.564  12.675  22.265  0.00  0.00    +0.000 A 
ATOM     28  F   UNL     1      -4.772  13.219  22.449  0.00  0.00    +0.000 F 
ATOM     29  C   UNL     1      -3.008  12.655  20.993  0.00  0.00    +0.000 A 
ATOM     30  C   UNL     1      -1.775  12.031  20.809  0.00  0.00    +0.000 A 
ATOM     31  F   UNL     1      -1.249  11.994  19.574  0.00  0.00    +0.000 F 
ENDBRANCH  22  24
ENDBRANCH  19  21
ENDBRANCH  18  19
ENDBRANCH   1  18
TORSDOF 5
ENDMDL
MODEL 9
REMARK VINA RESULT:      -8.1      4.209      8.117
REMARK  Name = 
REMARK  5 active torsions:
REMARK  status: ('A' for Active; 'I' for Inactive)
REMARK    1  A    between atoms: C_2  and  C_3
REMARK    2  A    between atoms: C_3  and  S_4
REMARK    3  A    between atoms: S_4  and  C_5
REMARK    4  A    between atoms: C_13  and  C_14
REMARK    5  A    between atoms: N_21  and  C_22
REMARK                            x       y       z     vdW  Elec       q    Type
REMARK                         _______ _______ _______ _____ _____    ______ ____
ROOT
ATOM      1  C   UNL     1       2.868   6.296  19.130  0.00  0.00    +0.000 A 
ATOM      2  N   UNL     1       2.054   6.589  20.124  0.00  0.00    +0.000 NA
ATOM      3  N   UNL     1       1.512   5.416  20.593  0.00  0.00    +0.000 NA
ATOM      4  C   UNL     1       2.024   4.441  19.883  0.00  0.00    +0.000 A 
ATOM      5  N   UNL     1       1.740   3.102  19.963  0.00  0.00    +0.000 N 
ATOM      6  C   UNL     1       2.386   2.193  19.168  0.00  0.00    +0.000 A 
ATOM      7  O   UNL     1       2.135   0.996  19.192  0.00  0.00    +0.000 OA
ATOM      8  C   UNL     1       3.451   2.716  18.259  0.00  0.00    +0.000 A 
ATOM      9  C   UNL     1       3.702   4.042  18.187  0.00  0.00    +0.000 A 
ATOM     10  N   UNL     1       2.955   4.924  18.980  0.00  0.00    +0.000 N 
ATOM     11  H   UNL     1       1.031   2.780  20.605  0.00  0.00    +0.000 HD
ENDROOT
BRANCH   9  12
ATOM     12  C   UNL     1       4.815   4.452  17.321  0.00  0.00    +0.000 A 
ATOM     13  C   UNL     1       4.635   4.590  15.941  0.00  0.00    +0.000 A 
ATOM     14  C   UNL     1       5.716   4.931  15.124  0.00  0.00    +0.000 A 
ATOM     15  C   UNL     1       6.977   5.141  15.682  0.00  0.00    +0.000 A 
ATOM     16  C   UNL     1       7.163   5.009  17.057  0.00  0.00    +0.000 A 
ATOM     17  C   UNL     1       6.088   4.655  17.875  0.00  0.00    +0.000 A 
ENDBRANCH   9  12
BRANCH   1  18
ATOM     18  S   UNL     1       3.621   7.472  18.094  0.00  0.00    +0.000 S 
BRANCH  18  19
ATOM     19  C   UNL     1       2.161   8.377  17.492  0.00  0.00    +0.000 C 
BRANCH  19  21
ATOM     20  O   UNL     1       2.087  10.625  18.296  0.00  0.00    +0.000 OA
ATOM     21  C   UNL     1       1.675   9.471  18.442  0.00  0.00    +0.000 C 
ATOM     22  N   UNL     1       0.739   9.089  19.385  0.00  0.00    +0.000 N 
ATOM     23  H   UNL     1       0.666   8.091  19.575  0.00  0.00    +0.000 HD
BRANCH  22  24
ATOM     24  C   UNL     1       0.112   9.942  20.328  0.00  0.00    +0.000 A 
ATOM     25  C   UNL     1      -0.583  11.103  19.972  0.00  0.00    +0.000 A 
ATOM     26  C   UNL     1      -1.055  11.976  20.959  0.00  0.00    +0.000 A 
ATOM     27  C   UNL     1      -0.867  11.669  22.301  0.00  0.00    +0.000 A 
ATOM     28  F   UNL     1      -1.278  12.529  23.239  0.00  0.00    +0.000 F 
ATOM     29  C   UNL     1      -0.262  10.478  22.680  0.00  0.00    +0.000 A 
ATOM     30  C   UNL     1       0.214   9.622  21.689  0.00  0.00    +0.000 A 
ATOM     31  F   UNL     1       0.818   8.480  22.059  0.00  0.00    +0.000 F 
ENDBRANCH  22  24
ENDBRANCH  19  21
ENDBRANCH  18  19
ENDBRANCH   1  18
TORSDOF 5
ENDMDL
