MODEL 1
REMARK VINA RESULT:      -7.4      0.000      0.000
REMARK  Name = 
REMARK  12 active torsions:
REMARK  status: ('A' for Active; 'I' for Inactive)
REMARK    1  A    between atoms: C_2  and  C_4
REMARK    2  A    between atoms: C_7  and  O_8
REMARK    3  A    between atoms: O_8  and  C_9
REMARK    4  A    between atoms: C_9  and  C_11
REMARK    5  A    between atoms: C_14  and  C_15
REMARK    6  A    between atoms: C_15  and  C_16
REMARK    7  A    between atoms: C_16  and  C_17
REMARK    8  A    between atoms: C_16  and  C_22
REMARK    9  A    between atoms: C_17  and  C_18
REMARK   10  A    between atoms: C_18  and  C_19
REMARK   11  A    between atoms: C_19  and  O_21
REMARK   12  A    between atoms: C_22  and  O_24
REMARK                            x       y       z     vdW  Elec       q    Type
REMARK                         _______ _______ _______ _____ _____    ______ ____
ROOT
ATOM      1  C   UNL     1       2.529   4.310  18.738  0.00  0.00    +0.000 A 
ATOM      2  C   UNL     1       1.818   3.634  17.765  0.00  0.00    +0.000 A 
ATOM      3  C   UNL     1       2.759   3.158  16.823  0.00  0.00    +0.000 A 
ATOM      4  C   UNL     1       3.979   3.663  17.213  0.00  0.00    +0.000 A 
ATOM      5  O   UNL     1       3.855   4.332  18.391  0.00  0.00    +0.000 OA
ENDROOT
BRANCH   1   6
ATOM      6  C   UNL     1       2.096   4.938  19.966  0.00  0.00    +0.000 C 
ATOM      7  O   UNL     1       1.307   4.449  20.764  0.00  0.00    +0.000 OA
BRANCH   6   8
ATOM      8  O   UNL     1       2.764   6.161  20.114  0.00  0.00    +0.000 OA
BRANCH   8  12
ATOM      9  C   UNL     1       1.047   9.838  19.066  0.00  0.00    +0.000 A 
ATOM     10  C   UNL     1       1.789   9.098  18.138  0.00  0.00    +0.000 A 
ATOM     11  C   UNL     1       2.357   7.880  18.520  0.00  0.00    +0.000 A 
ATOM     12  C   UNL     1       2.171   7.408  19.823  0.00  0.00    +0.000 A 
ATOM     13  C   UNL     1       1.395   8.117  20.736  0.00  0.00    +0.000 A 
ATOM     14  C   UNL     1       0.841   9.339  20.360  0.00  0.00    +0.000 A 
BRANCH   9  16
ATOM     15  N   UNL     1       1.066  12.245  19.078  0.00  0.00    +0.000 NA
ATOM     16  C   UNL     1       0.476  11.162  18.692  0.00  0.00    +0.000 C 
ATOM     17  N   UNL     1      -0.681  11.222  17.966  0.00  0.00    +0.000 N 
ATOM     18  H   UNL     1       0.573  13.056  18.698  0.00  0.00    +0.000 HD
ATOM     19  H   UNL     1      -1.190  12.090  18.027  0.00  0.00    +0.000 HD
ATOM     20  H   UNL     1      -1.294  10.417  18.056  0.00  0.00    +0.000 HD
ENDBRANCH   9  16
ENDBRANCH   8  12
ENDBRANCH   6   8
ENDBRANCH   1   6
BRANCH   4  21
ATOM     21  C   UNL     1       5.333   3.658  16.602  0.00  0.00    +0.000 C 
BRANCH  21  22
ATOM     22  C   UNL     1       5.707   5.046  16.035  0.00  0.00    +0.000 C 
BRANCH  22  23
ATOM     23  C   UNL     1       6.452   4.856  14.723  0.00  0.00    +0.000 C 
ATOM     24  O   UNL     1       7.535   5.359  14.464  0.00  0.00    +0.000 OA
BRANCH  23  25
ATOM     25  O   UNL     1       5.813   4.061  13.837  0.00  0.00    +0.000 OA
ATOM     26  H   UNL     1       6.178   3.161  13.738  0.00  0.00    +0.000 HD
ENDBRANCH  23  25
ENDBRANCH  22  23
BRANCH  22  27
ATOM     27  C   UNL     1       6.516   5.929  17.013  0.00  0.00    +0.000 C 
BRANCH  27  28
ATOM     28  C   UNL     1       7.399   5.124  17.969  0.00  0.00    +0.000 C 
BRANCH  28  29
ATOM     29  C   UNL     1       7.117   5.416  19.425  0.00  0.00    +0.000 C 
ATOM     30  O   UNL     1       7.944   5.393  20.321  0.00  0.00    +0.000 OA
BRANCH  29  31
ATOM     31  O   UNL     1       5.812   5.694  19.632  0.00  0.00    +0.000 OA
ATOM     32  H   UNL     1       5.195   5.095  19.169  0.00  0.00    +0.000 HD
ENDBRANCH  29  31
ENDBRANCH  28  29
ENDBRANCH  27  28
ENDBRANCH  22  27
ENDBRANCH  21  22
ENDBRANCH   4  21
TORSDOF 12
ENDMDL
MODEL 2
REMARK VINA RESULT:      -7.3      0.730      1.354
REMARK  Name = 
REMARK  12 active torsions:
REMARK  status: ('A' for Active; 'I' for Inactive)
REMARK    1  A    between atoms: C_2  and  C_4
REMARK    2  A    between atoms: C_7  and  O_8
REMARK    3  A    between atoms: O_8  and  C_9
REMARK    4  A    between atoms: C_9  and  C_11
REMARK    5  A    between atoms: C_14  and  C_15
REMARK    6  A    between atoms: C_15  and  C_16
REMARK    7  A    between atoms: C_16  and  C_17
REMARK    8  A    between atoms: C_16  and  C_22
REMARK    9  A    between atoms: C_17  and  C_18
REMARK   10  A    between atoms: C_18  and  C_19
REMARK   11  A    between atoms: C_19  and  O_21
REMARK   12  A    between atoms: C_22  and  O_24
REMARK                            x       y       z     vdW  Elec       q    Type
REMARK                         _______ _______ _______ _____ _____    ______ ____
ROOT
ATOM      1  C   UNL     1       3.025   4.300  18.796  0.00  0.00    +0.000 A 
ATOM      2  C   UNL     1       3.335   2.955  18.856  0.00  0.00    +0.000 A 
ATOM      3  C   UNL     1       4.156   2.671  17.740  0.00  0.00    +0.000 A 
ATOM      4  C   UNL     1       4.212   3.832  17.002  0.00  0.00    +0.000 A 
ATOM      5  O   UNL     1       3.559   4.833  17.652  0.00  0.00    +0.000 OA
ENDROOT
BRANCH   1   6
ATOM      6  C   UNL     1       2.280   5.143  19.703  0.00  0.00    +0.000 C 
ATOM      7  O   UNL     1       1.308   4.785  20.358  0.00  0.00    +0.000 OA
BRANCH   6   8
ATOM      8  O   UNL     1       2.881   6.409  19.748  0.00  0.00    +0.000 OA
BRANCH   8  12
ATOM      9  C   UNL     1       0.849   9.975  18.900  0.00  0.00    +0.000 A 
ATOM     10  C   UNL     1       0.849   9.434  20.191  0.00  0.00    +0.000 A 
ATOM     11  C   UNL     1       1.528   8.240  20.441  0.00  0.00    +0.000 A 
ATOM     12  C   UNL     1       2.208   7.599  19.400  0.00  0.00    +0.000 A 
ATOM     13  C   UNL     1       2.251   8.156  18.125  0.00  0.00    +0.000 A 
ATOM     14  C   UNL     1       1.561   9.341  17.872  0.00  0.00    +0.000 A 
BRANCH   9  16
ATOM     15  N   UNL     1       0.504  12.351  19.075  0.00  0.00    +0.000 NA
ATOM     16  C   UNL     1       0.089  11.221  18.603  0.00  0.00    +0.000 C 
ATOM     17  N   UNL     1      -1.054  11.158  17.856  0.00  0.00    +0.000 N 
ATOM     18  H   UNL     1      -0.101  13.103  18.740  0.00  0.00    +0.000 HD
ATOM     19  H   UNL     1      -1.690  11.934  17.964  0.00  0.00    +0.000 HD
ATOM     20  H   UNL     1      -1.540  10.267  17.877  0.00  0.00    +0.000 HD
ENDBRANCH   9  16
ENDBRANCH   8  12
ENDBRANCH   6   8
ENDBRANCH   1   6
BRANCH   4  21
ATOM     21  C   UNL     1       4.780   4.175  15.674  0.00  0.00    +0.000 C 
BRANCH  21  22
ATOM     22  C   UNL     1       6.128   4.921  15.807  0.00  0.00    +0.000 C 
BRANCH  22  23
ATOM     23  C   UNL     1       6.902   4.774  14.506  0.00  0.00    +0.000 C 
ATOM     24  O   UNL     1       7.801   5.519  14.149  0.00  0.00    +0.000 OA
BRANCH  23  25
ATOM     25  O   UNL     1       6.514   3.722  13.751  0.00  0.00    +0.000 OA
ATOM     26  H   UNL     1       6.826   3.729  12.826  0.00  0.00    +0.000 HD
ENDBRANCH  23  25
ENDBRANCH  22  23
BRANCH  22  27
ATOM     27  C   UNL     1       6.980   4.471  17.017  0.00  0.00    +0.000 C 
BRANCH  27  28
ATOM     28  C   UNL     1       7.471   5.637  17.880  0.00  0.00    +0.000 C 
BRANCH  28  29
ATOM     29  C   UNL     1       7.223   5.426  19.355  0.00  0.00    +0.000 C 
ATOM     30  O   UNL     1       6.131   5.235  19.866  0.00  0.00    +0.000 OA
BRANCH  29  31
ATOM     31  O   UNL     1       8.368   5.492  20.067  0.00  0.00    +0.000 OA
ATOM     32  H   UNL     1       8.357   4.974  20.895  0.00  0.00    +0.000 HD
ENDBRANCH  29  31
ENDBRANCH  28  29
ENDBRANCH  27  28
ENDBRANCH  22  27
ENDBRANCH  21  22
ENDBRANCH   4  21
TORSDOF 12
ENDMDL
MODEL 3
REMARK VINA RESULT:      -7.3      1.125      1.277
REMARK  Name = 
REMARK  12 active torsions:
REMARK  status: ('A' for Active; 'I' for Inactive)
REMARK    1  A    between atoms: C_2  and  C_4
REMARK    2  A    between atoms: C_7  and  O_8
REMARK    3  A    between atoms: O_8  and  C_9
REMARK    4  A    between atoms: C_9  and  C_11
REMARK    5  A    between atoms: C_14  and  C_15
REMARK    6  A    between atoms: C_15  and  C_16
REMARK    7  A    between atoms: C_16  and  C_17
REMARK    8  A    between atoms: C_16  and  C_22
REMARK    9  A    between atoms: C_17  and  C_18
REMARK   10  A    between atoms: C_18  and  C_19
REMARK   11  A    between atoms: C_19  and  O_21
REMARK   12  A    between atoms: C_22  and  O_24
REMARK                            x       y       z     vdW  Elec       q    Type
REMARK                         _______ _______ _______ _____ _____    ______ ____
ROOT
ATOM      1  C   UNL     1       2.300   4.205  18.861  0.00  0.00    +0.000 A 
ATOM      2  C   UNL     1       1.708   3.551  17.797  0.00  0.00    +0.000 A 
ATOM      3  C   UNL     1       2.737   3.247  16.876  0.00  0.00    +0.000 A 
ATOM      4  C   UNL     1       3.881   3.828  17.375  0.00  0.00    +0.000 A 
ATOM      5  O   UNL     1       3.633   4.379  18.595  0.00  0.00    +0.000 OA
ENDROOT
BRANCH   1   6
ATOM      6  C   UNL     1       1.747   4.682  20.108  0.00  0.00    +0.000 C 
ATOM      7  O   UNL     1       0.869   4.118  20.749  0.00  0.00    +0.000 OA
BRANCH   6   8
ATOM      8  O   UNL     1       2.414   5.857  20.483  0.00  0.00    +0.000 OA
BRANCH   8  12
ATOM      9  C   UNL     1       1.381   9.607  18.923  0.00  0.00    +0.000 A 
ATOM     10  C   UNL     1       2.053   8.660  18.141  0.00  0.00    +0.000 A 
ATOM     11  C   UNL     1       2.391   7.422  18.692  0.00  0.00    +0.000 A 
ATOM     12  C   UNL     1       2.049   7.137  20.017  0.00  0.00    +0.000 A 
ATOM     13  C   UNL     1       1.339   8.057  20.785  0.00  0.00    +0.000 A 
ATOM     14  C   UNL     1       1.014   9.298  20.240  0.00  0.00    +0.000 A 
BRANCH   9  16
ATOM     15  N   UNL     1       1.995  11.674  17.852  0.00  0.00    +0.000 NA
ATOM     16  C   UNL     1       1.056  10.950  18.368  0.00  0.00    +0.000 C 
ATOM     17  N   UNL     1      -0.227  11.419  18.432  0.00  0.00    +0.000 N 
ATOM     18  H   UNL     1       1.594  12.538  17.480  0.00  0.00    +0.000 HD
ATOM     19  H   UNL     1      -0.330  12.420  18.361  0.00  0.00    +0.000 HD
ATOM     20  H   UNL     1      -0.795  11.033  19.180  0.00  0.00    +0.000 HD
ENDBRANCH   9  16
ENDBRANCH   8  12
ENDBRANCH   6   8
ENDBRANCH   1   6
BRANCH   4  21
ATOM     21  C   UNL     1       5.257   4.001  16.846  0.00  0.00    +0.000 C 
BRANCH  21  22
ATOM     22  C   UNL     1       5.278   4.914  15.599  0.00  0.00    +0.000 C 
BRANCH  22  23
ATOM     23  C   UNL     1       6.481   4.551  14.744  0.00  0.00    +0.000 C 
ATOM     24  O   UNL     1       7.494   5.227  14.653  0.00  0.00    +0.000 OA
BRANCH  23  25
ATOM     25  O   UNL     1       6.348   3.386  14.072  0.00  0.00    +0.000 OA
ATOM     26  H   UNL     1       5.728   3.402  13.318  0.00  0.00    +0.000 HD
ENDBRANCH  23  25
ENDBRANCH  22  23
BRANCH  22  27
ATOM     27  C   UNL     1       5.261   6.426  15.925  0.00  0.00    +0.000 C 
BRANCH  27  28
ATOM     28  C   UNL     1       5.698   6.742  17.358  0.00  0.00    +0.000 C 
BRANCH  28  29
ATOM     29  C   UNL     1       7.190   6.941  17.492  0.00  0.00    +0.000 C 
ATOM     30  O   UNL     1       7.981   6.095  17.875  0.00  0.00    +0.000 OA
BRANCH  29  31
ATOM     31  O   UNL     1       7.558   8.194  17.150  0.00  0.00    +0.000 OA
ATOM     32  H   UNL     1       8.487   8.410  17.357  0.00  0.00    +0.000 HD
ENDBRANCH  29  31
ENDBRANCH  28  29
ENDBRANCH  27  28
ENDBRANCH  22  27
ENDBRANCH  21  22
ENDBRANCH   4  21
TORSDOF 12
ENDMDL
MODEL 4
REMARK VINA RESULT:      -7.2      5.414      7.463
REMARK  Name = 
REMARK  12 active torsions:
REMARK  status: ('A' for Active; 'I' for Inactive)
REMARK    1  A    between atoms: C_2  and  C_4
REMARK    2  A    between atoms: C_7  and  O_8
REMARK    3  A    between atoms: O_8  and  C_9
REMARK    4  A    between atoms: C_9  and  C_11
REMARK    5  A    between atoms: C_14  and  C_15
REMARK    6  A    between atoms: C_15  and  C_16
REMARK    7  A    between atoms: C_16  and  C_17
REMARK    8  A    between atoms: C_16  and  C_22
REMARK    9  A    between atoms: C_17  and  C_18
REMARK   10  A    between atoms: C_18  and  C_19
REMARK   11  A    between atoms: C_19  and  O_21
REMARK   12  A    between atoms: C_22  and  O_24
REMARK                            x       y       z     vdW  Elec       q    Type
REMARK                         _______ _______ _______ _____ _____    ______ ____
ROOT
ATOM      1  C   UNL     1       7.007   7.164  17.448  0.00  0.00    +0.000 A 
ATOM      2  C   UNL     1       7.876   6.696  18.416  0.00  0.00    +0.000 A 
ATOM      3  C   UNL     1       8.589   7.816  18.904  0.00  0.00    +0.000 A 
ATOM      4  C   UNL     1       8.197   8.886  18.133  0.00  0.00    +0.000 A 
ATOM      5  O   UNL     1       7.213   8.508  17.272  0.00  0.00    +0.000 OA
ENDROOT
BRANCH   1   6
ATOM      6  C   UNL     1       5.999   6.482  16.670  0.00  0.00    +0.000 C 
ATOM      7  O   UNL     1       5.421   6.957  15.699  0.00  0.00    +0.000 OA
BRANCH   6   8
ATOM      8  O   UNL     1       5.833   5.184  17.172  0.00  0.00    +0.000 OA
BRANCH   8  12
ATOM      9  C   UNL     1       2.878   3.969  19.884  0.00  0.00    +0.000 A 
ATOM     10  C   UNL     1       3.998   3.169  19.631  0.00  0.00    +0.000 A 
ATOM     11  C   UNL     1       4.962   3.597  18.715  0.00  0.00    +0.000 A 
ATOM     12  C   UNL     1       4.803   4.825  18.065  0.00  0.00    +0.000 A 
ATOM     13  C   UNL     1       3.714   5.647  18.348  0.00  0.00    +0.000 A 
ATOM     14  C   UNL     1       2.746   5.213  19.251  0.00  0.00    +0.000 A 
BRANCH   9  16
ATOM     15  N   UNL     1       2.121   3.223  22.044  0.00  0.00    +0.000 NA
ATOM     16  C   UNL     1       1.816   3.507  20.820  0.00  0.00    +0.000 C 
ATOM     17  N   UNL     1       0.532   3.363  20.373  0.00  0.00    +0.000 N 
ATOM     18  H   UNL     1       1.274   2.970  22.556  0.00  0.00    +0.000 HD
ATOM     19  H   UNL     1      -0.054   2.751  20.920  0.00  0.00    +0.000 HD
ATOM     20  H   UNL     1       0.434   3.190  19.377  0.00  0.00    +0.000 HD
ENDBRANCH   9  16
ENDBRANCH   8  12
ENDBRANCH   6   8
ENDBRANCH   1   6
BRANCH   4  21
ATOM     21  C   UNL     1       8.649  10.297  18.030  0.00  0.00    +0.000 C 
BRANCH  21  22
ATOM     22  C   UNL     1       9.847  10.580  18.964  0.00  0.00    +0.000 C 
BRANCH  22  23
ATOM     23  C   UNL     1       9.342  11.285  20.213  0.00  0.00    +0.000 C 
ATOM     24  O   UNL     1       8.993  12.455  20.253  0.00  0.00    +0.000 OA
BRANCH  23  25
ATOM     25  O   UNL     1       9.301  10.498  21.311  0.00  0.00    +0.000 OA
ATOM     26  H   UNL     1       9.654  10.896  22.129  0.00  0.00    +0.000 HD
ENDBRANCH  23  25
ENDBRANCH  22  23
BRANCH  22  27
ATOM     27  C   UNL     1      10.990  11.380  18.297  0.00  0.00    +0.000 C 
BRANCH  27  28
ATOM     28  C   UNL     1      10.501  12.363  17.230  0.00  0.00    +0.000 C 
BRANCH  28  29
ATOM     29  C   UNL     1      11.505  13.449  16.921  0.00  0.00    +0.000 C 
ATOM     30  O   UNL     1      11.591  14.516  17.506  0.00  0.00    +0.000 OA
BRANCH  29  31
ATOM     31  O   UNL     1      12.304  13.109  15.888  0.00  0.00    +0.000 OA
ATOM     32  H   UNL     1      12.279  13.733  15.138  0.00  0.00    +0.000 HD
ENDBRANCH  29  31
ENDBRANCH  28  29
ENDBRANCH  27  28
ENDBRANCH  22  27
ENDBRANCH  21  22
ENDBRANCH   4  21
TORSDOF 12
ENDMDL
MODEL 5
REMARK VINA RESULT:      -7.0      1.740      2.523
REMARK  Name = 
REMARK  12 active torsions:
REMARK  status: ('A' for Active; 'I' for Inactive)
REMARK    1  A    between atoms: C_2  and  C_4
REMARK    2  A    between atoms: C_7  and  O_8
REMARK    3  A    between atoms: O_8  and  C_9
REMARK    4  A    between atoms: C_9  and  C_11
REMARK    5  A    between atoms: C_14  and  C_15
REMARK    6  A    between atoms: C_15  and  C_16
REMARK    7  A    between atoms: C_16  and  C_17
REMARK    8  A    between atoms: C_16  and  C_22
REMARK    9  A    between atoms: C_17  and  C_18
REMARK   10  A    between atoms: C_18  and  C_19
REMARK   11  A    between atoms: C_19  and  O_21
REMARK   12  A    between atoms: C_22  and  O_24
REMARK                            x       y       z     vdW  Elec       q    Type
REMARK                         _______ _______ _______ _____ _____    ______ ____
ROOT
ATOM      1  C   UNL     1       2.935   6.019  18.067  0.00  0.00    +0.000 A 
ATOM      2  C   UNL     1       2.369   4.820  18.459  0.00  0.00    +0.000 A 
ATOM      3  C   UNL     1       3.136   3.790  17.867  0.00  0.00    +0.000 A 
ATOM      4  C   UNL     1       4.059   4.416  17.059  0.00  0.00    +0.000 A 
ATOM      5  O   UNL     1       3.967   5.766  17.202  0.00  0.00    +0.000 OA
ENDROOT
BRANCH   1   6
ATOM      6  C   UNL     1       2.611   7.381  18.422  0.00  0.00    +0.000 C 
ATOM      7  O   UNL     1       2.713   8.345  17.674  0.00  0.00    +0.000 OA
BRANCH   6   8
ATOM      8  O   UNL     1       2.115   7.407  19.733  0.00  0.00    +0.000 OA
BRANCH   8  12
ATOM      9  C   UNL     1       0.089  10.613  21.517  0.00  0.00    +0.000 A 
ATOM     10  C   UNL     1       0.650   9.593  22.293  0.00  0.00    +0.000 A 
ATOM     11  C   UNL     1       1.312   8.532  21.669  0.00  0.00    +0.000 A 
ATOM     12  C   UNL     1       1.414   8.504  20.275  0.00  0.00    +0.000 A 
ATOM     13  C   UNL     1       0.898   9.541  19.500  0.00  0.00    +0.000 A 
ATOM     14  C   UNL     1       0.226  10.591  20.122  0.00  0.00    +0.000 A 
BRANCH   9  16
ATOM     15  N   UNL     1      -1.237  11.532  23.303  0.00  0.00    +0.000 NA
ATOM     16  C   UNL     1      -0.663  11.725  22.161  0.00  0.00    +0.000 C 
ATOM     17  N   UNL     1      -0.762  12.934  21.529  0.00  0.00    +0.000 N 
ATOM     18  H   UNL     1      -1.665  12.405  23.621  0.00  0.00    +0.000 HD
ATOM     19  H   UNL     1      -1.529  13.519  21.824  0.00  0.00    +0.000 HD
ATOM     20  H   UNL     1      -0.676  12.905  20.518  0.00  0.00    +0.000 HD
ENDBRANCH   9  16
ENDBRANCH   8  12
ENDBRANCH   6   8
ENDBRANCH   1   6
BRANCH   4  21
ATOM     21  C   UNL     1       5.057   3.928  16.074  0.00  0.00    +0.000 C 
BRANCH  21  22
ATOM     22  C   UNL     1       6.274   4.877  15.979  0.00  0.00    +0.000 C 
BRANCH  22  23
ATOM     23  C   UNL     1       6.881   4.760  14.590  0.00  0.00    +0.000 C 
ATOM     24  O   UNL     1       6.473   4.008  13.718  0.00  0.00    +0.000 OA
BRANCH  23  25
ATOM     25  O   UNL     1       7.937   5.577  14.380  0.00  0.00    +0.000 OA
ATOM     26  H   UNL     1       7.852   6.191  13.625  0.00  0.00    +0.000 HD
ENDBRANCH  23  25
ENDBRANCH  22  23
BRANCH  22  27
ATOM     27  C   UNL     1       7.340   4.645  17.075  0.00  0.00    +0.000 C 
BRANCH  27  28
ATOM     28  C   UNL     1       7.446   5.801  18.074  0.00  0.00    +0.000 C 
BRANCH  28  29
ATOM     29  C   UNL     1       7.049   5.408  19.478  0.00  0.00    +0.000 C 
ATOM     30  O   UNL     1       5.940   5.029  19.816  0.00  0.00    +0.000 OA
BRANCH  29  31
ATOM     31  O   UNL     1       8.077   5.545  20.342  0.00  0.00    +0.000 OA
ATOM     32  H   UNL     1       8.694   4.787  20.356  0.00  0.00    +0.000 HD
ENDBRANCH  29  31
ENDBRANCH  28  29
ENDBRANCH  27  28
ENDBRANCH  22  27
ENDBRANCH  21  22
ENDBRANCH   4  21
TORSDOF 12
ENDMDL
MODEL 6
REMARK VINA RESULT:      -7.0      4.605      8.348
REMARK  Name = 
REMARK  12 active torsions:
REMARK  status: ('A' for Active; 'I' for Inactive)
REMARK    1  A    between atoms: C_2  and  C_4
REMARK    2  A    between atoms: C_7  and  O_8
REMARK    3  A    between atoms: O_8  and  C_9
REMARK    4  A    between atoms: C_9  and  C_11
REMARK    5  A    between atoms: C_14  and  C_15
REMARK    6  A    between atoms: C_15  and  C_16
REMARK    7  A    between atoms: C_16  and  C_17
REMARK    8  A    between atoms: C_16  and  C_22
REMARK    9  A    between atoms: C_17  and  C_18
REMARK   10  A    between atoms: C_18  and  C_19
REMARK   11  A    between atoms: C_19  and  O_21
REMARK   12  A    between atoms: C_22  and  O_24
REMARK                            x       y       z     vdW  Elec       q    Type
REMARK                         _______ _______ _______ _____ _____    ______ ____
ROOT
ATOM      1  C   UNL     1       2.450   7.161  19.052  0.00  0.00    +0.000 A 
ATOM      2  C   UNL     1       2.623   7.682  17.783  0.00  0.00    +0.000 A 
ATOM      3  C   UNL     1       2.053   8.976  17.787  0.00  0.00    +0.000 A 
ATOM      4  C   UNL     1       1.467   9.131  19.023  0.00  0.00    +0.000 A 
ATOM      5  O   UNL     1       1.733   8.051  19.808  0.00  0.00    +0.000 OA
ENDROOT
BRANCH   1   6
ATOM      6  C   UNL     1       2.890   5.914  19.634  0.00  0.00    +0.000 C 
ATOM      7  O   UNL     1       2.158   5.093  20.173  0.00  0.00    +0.000 OA
BRANCH   6   8
ATOM      8  O   UNL     1       4.271   5.778  19.433  0.00  0.00    +0.000 OA
BRANCH   8  12
ATOM      9  C   UNL     1       6.123   4.892  15.779  0.00  0.00    +0.000 A 
ATOM     10  C   UNL     1       6.637   5.878  16.629  0.00  0.00    +0.000 A 
ATOM     11  C   UNL     1       5.993   6.157  17.836  0.00  0.00    +0.000 A 
ATOM     12  C   UNL     1       4.844   5.443  18.189  0.00  0.00    +0.000 A 
ATOM     13  C   UNL     1       4.354   4.428  17.370  0.00  0.00    +0.000 A 
ATOM     14  C   UNL     1       4.989   4.160  16.159  0.00  0.00    +0.000 A 
BRANCH   9  16
ATOM     15  N   UNL     1       7.703   5.396  14.035  0.00  0.00    +0.000 NA
ATOM     16  C   UNL     1       6.767   4.615  14.466  0.00  0.00    +0.000 C 
ATOM     17  N   UNL     1       6.348   3.553  13.713  0.00  0.00    +0.000 N 
ATOM     18  H   UNL     1       8.065   5.037  13.149  0.00  0.00    +0.000 HD
ATOM     19  H   UNL     1       6.562   3.604  12.729  0.00  0.00    +0.000 HD
ATOM     20  H   UNL     1       5.391   3.255  13.876  0.00  0.00    +0.000 HD
ENDBRANCH   9  16
ENDBRANCH   8  12
ENDBRANCH   6   8
ENDBRANCH   1   6
BRANCH   4  21
ATOM     21  C   UNL     1       0.602  10.179  19.623  0.00  0.00    +0.000 C 
BRANCH  21  22
ATOM     22  C   UNL     1      -0.268  10.879  18.555  0.00  0.00    +0.000 C 
BRANCH  22  23
ATOM     23  C   UNL     1      -0.103  12.384  18.696  0.00  0.00    +0.000 C 
ATOM     24  O   UNL     1      -0.886  13.114  19.284  0.00  0.00    +0.000 OA
BRANCH  23  25
ATOM     25  O   UNL     1       1.011  12.873  18.108  0.00  0.00    +0.000 OA
ATOM     26  H   UNL     1       1.486  13.563  18.610  0.00  0.00    +0.000 HD
ENDBRANCH  23  25
ENDBRANCH  22  23
BRANCH  22  27
ATOM     27  C   UNL     1      -1.761  10.476  18.596  0.00  0.00    +0.000 C 
BRANCH  27  28
ATOM     28  C   UNL     1      -2.264   9.876  17.280  0.00  0.00    +0.000 C 
BRANCH  28  29
ATOM     29  C   UNL     1      -2.852  10.907  16.346  0.00  0.00    +0.000 C 
ATOM     30  O   UNL     1      -2.823  10.852  15.127  0.00  0.00    +0.000 OA
BRANCH  29  31
ATOM     31  O   UNL     1      -3.411  11.932  17.024  0.00  0.00    +0.000 OA
ATOM     32  H   UNL     1      -3.777  11.685  17.895  0.00  0.00    +0.000 HD
ENDBRANCH  29  31
ENDBRANCH  28  29
ENDBRANCH  27  28
ENDBRANCH  22  27
ENDBRANCH  21  22
ENDBRANCH   4  21
TORSDOF 12
ENDMDL
MODEL 7
REMARK VINA RESULT:      -7.0      4.371      8.196
REMARK  Name = 
REMARK  12 active torsions:
REMARK  status: ('A' for Active; 'I' for Inactive)
REMARK    1  A    between atoms: C_2  and  C_4
REMARK    2  A    between atoms: C_7  and  O_8
REMARK    3  A    between atoms: O_8  and  C_9
REMARK    4  A    between atoms: C_9  and  C_11
REMARK    5  A    between atoms: C_14  and  C_15
REMARK    6  A    between atoms: C_15  and  C_16
REMARK    7  A    between atoms: C_16  and  C_17
REMARK    8  A    between atoms: C_16  and  C_22
REMARK    9  A    between atoms: C_17  and  C_18
REMARK   10  A    between atoms: C_18  and  C_19
REMARK   11  A    between atoms: C_19  and  O_21
REMARK   12  A    between atoms: C_22  and  O_24
REMARK                            x       y       z     vdW  Elec       q    Type
REMARK                         _______ _______ _______ _____ _____    ______ ____
ROOT
ATOM      1  C   UNL     1       2.759   6.423  19.357  0.00  0.00    +0.000 A 
ATOM      2  C   UNL     1       2.647   6.979  18.097  0.00  0.00    +0.000 A 
ATOM      3  C   UNL     1       2.067   8.258  18.260  0.00  0.00    +0.000 A 
ATOM      4  C   UNL     1       1.756   8.369  19.597  0.00  0.00    +0.000 A 
ATOM      5  O   UNL     1       2.204   7.277  20.275  0.00  0.00    +0.000 OA
ENDROOT
BRANCH   1   6
ATOM      6  C   UNL     1       3.336   5.173  19.795  0.00  0.00    +0.000 C 
ATOM      7  O   UNL     1       2.705   4.232  20.260  0.00  0.00    +0.000 OA
BRANCH   6   8
ATOM      8  O   UNL     1       4.717   5.197  19.553  0.00  0.00    +0.000 OA
BRANCH   8  12
ATOM      9  C   UNL     1       6.252   4.797  15.674  0.00  0.00    +0.000 A 
ATOM     10  C   UNL     1       5.254   3.937  16.147  0.00  0.00    +0.000 A 
ATOM     11  C   UNL     1       4.768   4.090  17.448  0.00  0.00    +0.000 A 
ATOM     12  C   UNL     1       5.278   5.106  18.262  0.00  0.00    +0.000 A 
ATOM     13  C   UNL     1       6.237   5.994  17.781  0.00  0.00    +0.000 A 
ATOM     14  C   UNL     1       6.732   5.832  16.488  0.00  0.00    +0.000 A 
BRANCH   9  16
ATOM     15  N   UNL     1       7.719   5.437  13.876  0.00  0.00    +0.000 NA
ATOM     16  C   UNL     1       6.817   4.618  14.307  0.00  0.00    +0.000 C 
ATOM     17  N   UNL     1       6.359   3.606  13.510  0.00  0.00    +0.000 N 
ATOM     18  H   UNL     1       8.028   5.145  12.946  0.00  0.00    +0.000 HD
ATOM     19  H   UNL     1       6.512   3.727  12.520  0.00  0.00    +0.000 HD
ATOM     20  H   UNL     1       5.416   3.286  13.710  0.00  0.00    +0.000 HD
ENDBRANCH   9  16
ENDBRANCH   8  12
ENDBRANCH   6   8
ENDBRANCH   1   6
BRANCH   4  21
ATOM     21  C   UNL     1       1.021   9.380  20.398  0.00  0.00    +0.000 C 
BRANCH  21  22
ATOM     22  C   UNL     1       0.350  10.443  19.497  0.00  0.00    +0.000 C 
BRANCH  22  23
ATOM     23  C   UNL     1       0.563  11.815  20.115  0.00  0.00    +0.000 C 
ATOM     24  O   UNL     1       0.279  12.871  19.569  0.00  0.00    +0.000 OA
BRANCH  23  25
ATOM     25  O   UNL     1       1.103  11.784  21.353  0.00  0.00    +0.000 OA
ATOM     26  H   UNL     1       1.765  11.084  21.508  0.00  0.00    +0.000 HD
ENDBRANCH  23  25
ENDBRANCH  22  23
BRANCH  22  27
ATOM     27  C   UNL     1      -1.149  10.180  19.223  0.00  0.00    +0.000 C 
BRANCH  27  28
ATOM     28  C   UNL     1      -1.516  10.246  17.738  0.00  0.00    +0.000 C 
BRANCH  28  29
ATOM     29  C   UNL     1      -2.232  11.522  17.362  0.00  0.00    +0.000 C 
ATOM     30  O   UNL     1      -3.443  11.651  17.277  0.00  0.00    +0.000 OA
BRANCH  29  31
ATOM     31  O   UNL     1      -1.364  12.524  17.105  0.00  0.00    +0.000 OA
ATOM     32  H   UNL     1      -1.645  13.124  16.388  0.00  0.00    +0.000 HD
ENDBRANCH  29  31
ENDBRANCH  28  29
ENDBRANCH  27  28
ENDBRANCH  22  27
ENDBRANCH  21  22
ENDBRANCH   4  21
TORSDOF 12
ENDMDL
MODEL 8
REMARK VINA RESULT:      -7.0      0.483      1.480
REMARK  Name = 
REMARK  12 active torsions:
REMARK  status: ('A' for Active; 'I' for Inactive)
REMARK    1  A    between atoms: C_2  and  C_4
REMARK    2  A    between atoms: C_7  and  O_8
REMARK    3  A    between atoms: O_8  and  C_9
REMARK    4  A    between atoms: C_9  and  C_11
REMARK    5  A    between atoms: C_14  and  C_15
REMARK    6  A    between atoms: C_15  and  C_16
REMARK    7  A    between atoms: C_16  and  C_17
REMARK    8  A    between atoms: C_16  and  C_22
REMARK    9  A    between atoms: C_17  and  C_18
REMARK   10  A    between atoms: C_18  and  C_19
REMARK   11  A    between atoms: C_19  and  O_21
REMARK   12  A    between atoms: C_22  and  O_24
REMARK                            x       y       z     vdW  Elec       q    Type
REMARK                         _______ _______ _______ _____ _____    ______ ____
ROOT
ATOM      1  C   UNL     1       2.541   3.994  18.880  0.00  0.00    +0.000 A 
ATOM      2  C   UNL     1       2.060   2.823  18.325  0.00  0.00    +0.000 A 
ATOM      3  C   UNL     1       3.069   2.330  17.464  0.00  0.00    +0.000 A 
ATOM      4  C   UNL     1       4.063   3.282  17.457  0.00  0.00    +0.000 A 
ATOM      5  O   UNL     1       3.768   4.276  18.339  0.00  0.00    +0.000 OA
ENDROOT
BRANCH   1   6
ATOM      6  C   UNL     1       1.971   4.878  19.870  0.00  0.00    +0.000 C 
ATOM      7  O   UNL     1       1.018   4.606  20.590  0.00  0.00    +0.000 OA
BRANCH   6   8
ATOM      8  O   UNL     1       2.716   6.065  19.907  0.00  0.00    +0.000 OA
BRANCH   8  12
ATOM      9  C   UNL     1       1.173   9.806  18.817  0.00  0.00    +0.000 A 
ATOM     10  C   UNL     1       1.030   9.319  20.121  0.00  0.00    +0.000 A 
ATOM     11  C   UNL     1       1.548   8.064  20.452  0.00  0.00    +0.000 A 
ATOM     12  C   UNL     1       2.211   7.310  19.479  0.00  0.00    +0.000 A 
ATOM     13  C   UNL     1       2.397   7.810  18.192  0.00  0.00    +0.000 A 
ATOM     14  C   UNL     1       1.868   9.055  17.858  0.00  0.00    +0.000 A 
BRANCH   9  16
ATOM     15  N   UNL     1      -0.667  11.194  18.122  0.00  0.00    +0.000 NA
ATOM     16  C   UNL     1       0.586  11.119  18.433  0.00  0.00    +0.000 C 
ATOM     17  N   UNL     1       1.380  12.232  18.387  0.00  0.00    +0.000 N 
ATOM     18  H   UNL     1      -0.914  12.167  17.931  0.00  0.00    +0.000 HD
ATOM     19  H   UNL     1       1.035  12.991  17.819  0.00  0.00    +0.000 HD
ATOM     20  H   UNL     1       2.367  12.057  18.226  0.00  0.00    +0.000 HD
ENDBRANCH   9  16
ENDBRANCH   8  12
ENDBRANCH   6   8
ENDBRANCH   1   6
BRANCH   4  21
ATOM     21  C   UNL     1       5.315   3.450  16.677  0.00  0.00    +0.000 C 
BRANCH  21  22
ATOM     22  C   UNL     1       5.442   4.880  16.103  0.00  0.00    +0.000 C 
BRANCH  22  23
ATOM     23  C   UNL     1       5.890   4.790  14.653  0.00  0.00    +0.000 C 
ATOM     24  O   UNL     1       5.341   4.109  13.801  0.00  0.00    +0.000 OA
BRANCH  23  25
ATOM     25  O   UNL     1       6.972   5.546  14.363  0.00  0.00    +0.000 OA
ATOM     26  H   UNL     1       7.776   5.052  14.111  0.00  0.00    +0.000 HD
ENDBRANCH  23  25
ENDBRANCH  22  23
BRANCH  22  27
ATOM     27  C   UNL     1       6.375   5.805  16.919  0.00  0.00    +0.000 C 
BRANCH  27  28
ATOM     28  C   UNL     1       7.417   5.043  17.742  0.00  0.00    +0.000 C 
BRANCH  28  29
ATOM     29  C   UNL     1       7.288   5.283  19.228  0.00  0.00    +0.000 C 
ATOM     30  O   UNL     1       6.238   5.291  19.851  0.00  0.00    +0.000 OA
BRANCH  29  31
ATOM     31  O   UNL     1       8.488   5.511  19.802  0.00  0.00    +0.000 OA
ATOM     32  H   UNL     1       8.864   4.739  20.267  0.00  0.00    +0.000 HD
ENDBRANCH  29  31
ENDBRANCH  28  29
ENDBRANCH  27  28
ENDBRANCH  22  27
ENDBRANCH  21  22
ENDBRANCH   4  21
TORSDOF 12
ENDMDL
MODEL 9
REMARK VINA RESULT:      -6.9      1.934      2.599
REMARK  Name = 
REMARK  12 active torsions:
REMARK  status: ('A' for Active; 'I' for Inactive)
REMARK    1  A    between atoms: C_2  and  C_4
REMARK    2  A    between atoms: C_7  and  O_8
REMARK    3  A    between atoms: O_8  and  C_9
REMARK    4  A    between atoms: C_9  and  C_11
REMARK    5  A    between atoms: C_14  and  C_15
REMARK    6  A    between atoms: C_15  and  C_16
REMARK    7  A    between atoms: C_16  and  C_17
REMARK    8  A    between atoms: C_16  and  C_22
REMARK    9  A    between atoms: C_17  and  C_18
REMARK   10  A    between atoms: C_18  and  C_19
REMARK   11  A    between atoms: C_19  and  O_21
REMARK   12  A    between atoms: C_22  and  O_24
REMARK                            x       y       z     vdW  Elec       q    Type
REMARK                         _______ _______ _______ _____ _____    ______ ____
ROOT
ATOM      1  C   UNL     1       2.879   5.994  17.986  0.00  0.00    +0.000 A 
ATOM      2  C   UNL     1       2.019   4.912  17.968  0.00  0.00    +0.000 A 
ATOM      3  C   UNL     1       2.762   3.803  17.500  0.00  0.00    +0.000 A 
ATOM      4  C   UNL     1       4.002   4.292  17.155  0.00  0.00    +0.000 A 
ATOM      5  O   UNL     1       4.094   5.611  17.479  0.00  0.00    +0.000 OA
ENDROOT
BRANCH   1   6
ATOM      6  C   UNL     1       2.683   7.354  18.433  0.00  0.00    +0.000 C 
ATOM      7  O   UNL     1       2.956   8.354  17.780  0.00  0.00    +0.000 OA
BRANCH   6   8
ATOM      8  O   UNL     1       2.087   7.338  19.701  0.00  0.00    +0.000 OA
BRANCH   8  12
ATOM      9  C   UNL     1       0.144  10.576  21.519  0.00  0.00    +0.000 A 
ATOM     10  C   UNL     1       0.708   9.550  22.286  0.00  0.00    +0.000 A 
ATOM     11  C   UNL     1       1.342   8.479  21.651  0.00  0.00    +0.000 A 
ATOM     12  C   UNL     1       1.413   8.446  20.255  0.00  0.00    +0.000 A 
ATOM     13  C   UNL     1       0.894   9.487  19.488  0.00  0.00    +0.000 A 
ATOM     14  C   UNL     1       0.250  10.548  20.121  0.00  0.00    +0.000 A 
BRANCH   9  16
ATOM     15  N   UNL     1      -1.220  11.491  23.279  0.00  0.00    +0.000 NA
ATOM     16  C   UNL     1      -0.579  11.700  22.176  0.00  0.00    +0.000 C 
ATOM     17  N   UNL     1      -0.580  12.938  21.596  0.00  0.00    +0.000 N 
ATOM     18  H   UNL     1      -1.616  12.371  23.615  0.00  0.00    +0.000 HD
ATOM     19  H   UNL     1      -1.328  13.552  21.880  0.00  0.00    +0.000 HD
ATOM     20  H   UNL     1      -0.444  12.948  20.590  0.00  0.00    +0.000 HD
ENDBRANCH   9  16
ENDBRANCH   8  12
ENDBRANCH   6   8
ENDBRANCH   1   6
BRANCH   4  21
ATOM     21  C   UNL     1       5.188   3.698  16.488  0.00  0.00    +0.000 C 
BRANCH  21  22
ATOM     22  C   UNL     1       6.315   4.739  16.297  0.00  0.00    +0.000 C 
BRANCH  22  23
ATOM     23  C   UNL     1       6.859   4.621  14.882  0.00  0.00    +0.000 C 
ATOM     24  O   UNL     1       7.650   5.403  14.378  0.00  0.00    +0.000 OA
BRANCH  23  25
ATOM     25  O   UNL     1       6.392   3.552  14.200  0.00  0.00    +0.000 OA
ATOM     26  H   UNL     1       5.489   3.643  13.839  0.00  0.00    +0.000 HD
ENDBRANCH  23  25
ENDBRANCH  22  23
BRANCH  22  27
ATOM     27  C   UNL     1       7.451   4.635  17.342  0.00  0.00    +0.000 C 
BRANCH  27  28
ATOM     28  C   UNL     1       7.350   5.682  18.454  0.00  0.00    +0.000 C 
BRANCH  28  29
ATOM     29  C   UNL     1       7.798   7.057  18.016  0.00  0.00    +0.000 C 
ATOM     30  O   UNL     1       7.507   7.588  16.957  0.00  0.00    +0.000 OA
BRANCH  29  31
ATOM     31  O   UNL     1       8.593   7.639  18.939  0.00  0.00    +0.000 OA
ATOM     32  H   UNL     1       8.660   8.610  18.856  0.00  0.00    +0.000 HD
ENDBRANCH  29  31
ENDBRANCH  28  29
ENDBRANCH  27  28
ENDBRANCH  22  27
ENDBRANCH  21  22
ENDBRANCH   4  21
TORSDOF 12
ENDMDL
