MODEL 1
REMARK VINA RESULT:      -7.3      0.000      0.000
REMARK  Name = 
REMARK  5 active torsions:
REMARK  status: ('A' for Active; 'I' for Inactive)
REMARK    1  A    between atoms: C_2  and  C_8
REMARK    2  A    between atoms: N_3  and  C_4
REMARK    3  A    between atoms: C_4  and  C_5
REMARK    4  A    between atoms: N_14  and  S_15
REMARK    5  A    between atoms: S_15  and  C_18
REMARK                            x       y       z     vdW  Elec       q    Type
REMARK                         _______ _______ _______ _____ _____    ______ ____
ROOT
ATOM      1  C   UNL     1       7.446   7.632  17.544  0.00  0.00    +0.000 C 
ATOM      2  N   UNL     1       6.610   7.987  16.622  0.00  0.00    +0.000 NA
ATOM      3  O   UNL     1       6.018   6.789  16.138  0.00  0.00    +0.000 OA
ATOM      4  C   UNL     1       6.307   5.730  17.076  0.00  0.00    +0.000 C 
ATOM      5  C   UNL     1       6.477   4.417  16.326  0.00  0.00    +0.000 C 
ATOM      6  C   UNL     1       5.048   3.913  16.178  0.00  0.00    +0.000 C 
ATOM      7  N   UNL     1       4.388   4.264  17.461  0.00  0.00    +0.000 NA
ATOM      8  C   UNL     1       5.086   5.493  17.983  0.00  0.00    +0.000 C 
ATOM      9  C   UNL     1       7.559   6.179  17.801  0.00  0.00    +0.000 C 
ENDROOT
BRANCH   1  11
ATOM     10  O   UNL     1       8.962   8.190  19.259  0.00  0.00    +0.000 OA
ATOM     11  C   UNL     1       8.324   8.600  18.301  0.00  0.00    +0.000 C 
ATOM     12  N   UNL     1       8.323   9.896  17.839  0.00  0.00    +0.000 N 
ATOM     13  H   UNL     1       7.690  10.138  17.082  0.00  0.00    +0.000 HD
BRANCH  12  14
ATOM     14  C   UNL     1       9.094  10.908  18.516  0.00  0.00    +0.000 C 
BRANCH  14  15
ATOM     15  C   UNL     1      10.315  11.276  17.738  0.00  0.00    +0.000 C 
ATOM     16  C   UNL     1      10.816  12.698  17.689  0.00  0.00    +0.000 C 
ATOM     17  C   UNL     1      11.579  11.665  18.470  0.00  0.00    +0.000 C 
ENDBRANCH  14  15
ENDBRANCH  12  14
ENDBRANCH   1  11
BRANCH   7  18
ATOM     18  S   UNL     1       4.257   3.006  18.610  0.00  0.00    +0.000 S 
ATOM     19  O   UNL     1       4.012   1.782  17.876  0.00  0.00    +0.000 OA
ATOM     20  O   UNL     1       5.377   3.113  19.523  0.00  0.00    +0.000 OA
BRANCH  18  21
ATOM     21  C   UNL     1       2.804   3.244  19.608  0.00  0.00    +0.000 A 
ATOM     22  C   UNL     1       1.575   3.816  19.335  0.00  0.00    +0.000 A 
ATOM     23  C   UNL     1       0.677   3.743  20.441  0.00  0.00    +0.000 A 
ATOM     24  C   UNL     1       1.249   3.107  21.519  0.00  0.00    +0.000 A 
ATOM     25  S   UNL     1       2.866   2.631  21.205  0.00  0.00    +0.000 S 
ENDBRANCH  18  21
ENDBRANCH   7  18
TORSDOF 5
ENDMDL
MODEL 2
REMARK VINA RESULT:      -7.3      4.121      6.710
REMARK  Name = 
REMARK  5 active torsions:
REMARK  status: ('A' for Active; 'I' for Inactive)
REMARK    1  A    between atoms: C_2  and  C_8
REMARK    2  A    between atoms: N_3  and  C_4
REMARK    3  A    between atoms: C_4  and  C_5
REMARK    4  A    between atoms: N_14  and  S_15
REMARK    5  A    between atoms: S_15  and  C_18
REMARK                            x       y       z     vdW  Elec       q    Type
REMARK                         _______ _______ _______ _____ _____    ______ ____
ROOT
ATOM      1  C   UNL     1       6.460   4.478  14.939  0.00  0.00    +0.000 C 
ATOM      2  N   UNL     1       7.391   4.015  15.709  0.00  0.00    +0.000 NA
ATOM      3  O   UNL     1       7.126   4.531  17.008  0.00  0.00    +0.000 OA
ATOM      4  C   UNL     1       5.778   5.047  17.023  0.00  0.00    +0.000 C 
ATOM      5  C   UNL     1       5.707   6.259  17.943  0.00  0.00    +0.000 C 
ATOM      6  C   UNL     1       5.499   5.639  19.317  0.00  0.00    +0.000 C 
ATOM      7  N   UNL     1       4.581   4.495  19.082  0.00  0.00    +0.000 NA
ATOM      8  C   UNL     1       4.836   4.020  17.675  0.00  0.00    +0.000 C 
ATOM      9  C   UNL     1       5.464   5.368  15.576  0.00  0.00    +0.000 C 
ENDROOT
BRANCH   1  11
ATOM     10  O   UNL     1       7.307   4.566  12.742  0.00  0.00    +0.000 OA
ATOM     11  C   UNL     1       6.383   4.205  13.455  0.00  0.00    +0.000 C 
ATOM     12  N   UNL     1       5.245   3.564  13.023  0.00  0.00    +0.000 N 
ATOM     13  H   UNL     1       4.507   3.385  13.697  0.00  0.00    +0.000 HD
BRANCH  12  14
ATOM     14  C   UNL     1       5.053   3.295  11.620  0.00  0.00    +0.000 C 
BRANCH  14  15
ATOM     15  C   UNL     1       3.652   3.590  11.194  0.00  0.00    +0.000 C 
ATOM     16  C   UNL     1       3.343   4.096   9.808  0.00  0.00    +0.000 C 
ATOM     17  C   UNL     1       2.971   2.691  10.188  0.00  0.00    +0.000 C 
ENDBRANCH  14  15
ENDBRANCH  12  14
ENDBRANCH   1  11
BRANCH   7  18
ATOM     18  S   UNL     1       2.931   4.769  19.429  0.00  0.00    +0.000 S 
ATOM     19  O   UNL     1       2.161   3.946  18.519  0.00  0.00    +0.000 OA
ATOM     20  O   UNL     1       2.749   4.663  20.862  0.00  0.00    +0.000 OA
BRANCH  18  21
ATOM     21  C   UNL     1       2.494   6.444  19.016  0.00  0.00    +0.000 A 
ATOM     22  C   UNL     1       2.479   7.129  17.815  0.00  0.00    +0.000 A 
ATOM     23  C   UNL     1       2.001   8.466  17.951  0.00  0.00    +0.000 A 
ATOM     24  C   UNL     1       1.657   8.753  19.252  0.00  0.00    +0.000 A 
ATOM     25  S   UNL     1       1.938   7.427  20.301  0.00  0.00    +0.000 S 
ENDBRANCH  18  21
ENDBRANCH   7  18
TORSDOF 5
ENDMDL
MODEL 3
REMARK VINA RESULT:      -7.2      3.995      5.950
REMARK  Name = 
REMARK  5 active torsions:
REMARK  status: ('A' for Active; 'I' for Inactive)
REMARK    1  A    between atoms: C_2  and  C_8
REMARK    2  A    between atoms: N_3  and  C_4
REMARK    3  A    between atoms: C_4  and  C_5
REMARK    4  A    between atoms: N_14  and  S_15
REMARK    5  A    between atoms: S_15  and  C_18
REMARK                            x       y       z     vdW  Elec       q    Type
REMARK                         _______ _______ _______ _____ _____    ______ ____
ROOT
ATOM      1  C   UNL     1       6.454   5.058  15.258  0.00  0.00    +0.000 C 
ATOM      2  N   UNL     1       7.168   5.830  16.011  0.00  0.00    +0.000 NA
ATOM      3  O   UNL     1       6.479   5.923  17.252  0.00  0.00    +0.000 OA
ATOM      4  C   UNL     1       5.488   4.874  17.299  0.00  0.00    +0.000 C 
ATOM      5  C   UNL     1       4.266   5.361  18.065  0.00  0.00    +0.000 C 
ATOM      6  C   UNL     1       4.637   5.093  19.516  0.00  0.00    +0.000 C 
ATOM      7  N   UNL     1       5.360   3.797  19.490  0.00  0.00    +0.000 NA
ATOM      8  C   UNL     1       6.018   3.697  18.138  0.00  0.00    +0.000 C 
ATOM      9  C   UNL     1       5.200   4.542  15.849  0.00  0.00    +0.000 C 
ENDROOT
BRANCH   1  11
ATOM     10  O   UNL     1       7.640   5.401  13.251  0.00  0.00    +0.000 OA
ATOM     11  C   UNL     1       6.806   4.720  13.828  0.00  0.00    +0.000 C 
ATOM     12  N   UNL     1       6.133   3.651  13.283  0.00  0.00    +0.000 N 
ATOM     13  H   UNL     1       5.401   3.210  13.833  0.00  0.00    +0.000 HD
BRANCH  12  14
ATOM     14  C   UNL     1       6.363   3.272  11.911  0.00  0.00    +0.000 C 
BRANCH  14  15
ATOM     15  C   UNL     1       5.128   2.709  11.286  0.00  0.00    +0.000 C 
ATOM     16  C   UNL     1       3.755   3.155  11.722  0.00  0.00    +0.000 C 
ATOM     17  C   UNL     1       4.286   3.578  10.381  0.00  0.00    +0.000 C 
ENDBRANCH  14  15
ENDBRANCH  12  14
ENDBRANCH   1  11
BRANCH   7  18
ATOM     18  S   UNL     1       4.449   2.416  19.915  0.00  0.00    +0.000 S 
ATOM     19  O   UNL     1       4.589   1.462  18.834  0.00  0.00    +0.000 OA
ATOM     20  O   UNL     1       4.791   2.053  21.275  0.00  0.00    +0.000 OA
BRANCH  18  21
ATOM     21  C   UNL     1       2.716   2.819  19.952  0.00  0.00    +0.000 A 
ATOM     22  C   UNL     1       1.928   3.441  20.903  0.00  0.00    +0.000 A 
ATOM     23  C   UNL     1       0.576   3.601  20.477  0.00  0.00    +0.000 A 
ATOM     24  C   UNL     1       0.381   3.105  19.208  0.00  0.00    +0.000 A 
ATOM     25  S   UNL     1       1.812   2.426  18.553  0.00  0.00    +0.000 S 
ENDBRANCH  18  21
ENDBRANCH   7  18
TORSDOF 5
ENDMDL
MODEL 4
REMARK VINA RESULT:      -7.1      4.362      6.000
REMARK  Name = 
REMARK  5 active torsions:
REMARK  status: ('A' for Active; 'I' for Inactive)
REMARK    1  A    between atoms: C_2  and  C_8
REMARK    2  A    between atoms: N_3  and  C_4
REMARK    3  A    between atoms: C_4  and  C_5
REMARK    4  A    between atoms: N_14  and  S_15
REMARK    5  A    between atoms: S_15  and  C_18
REMARK                            x       y       z     vdW  Elec       q    Type
REMARK                         _______ _______ _______ _____ _____    ______ ____
ROOT
ATOM      1  C   UNL     1       2.438   7.973  18.555  0.00  0.00    +0.000 C 
ATOM      2  N   UNL     1       3.233   8.169  17.553  0.00  0.00    +0.000 NA
ATOM      3  O   UNL     1       4.113   7.052  17.520  0.00  0.00    +0.000 OA
ATOM      4  C   UNL     1       3.559   6.015  18.358  0.00  0.00    +0.000 C 
ATOM      5  C   UNL     1       4.689   5.240  19.022  0.00  0.00    +0.000 C 
ATOM      6  C   UNL     1       5.066   4.206  17.969  0.00  0.00    +0.000 C 
ATOM      7  N   UNL     1       3.774   3.790  17.367  0.00  0.00    +0.000 NA
ATOM      8  C   UNL     1       2.843   4.969  17.484  0.00  0.00    +0.000 C 
ATOM      9  C   UNL     1       2.665   6.741  19.341  0.00  0.00    +0.000 C 
ENDROOT
BRANCH   1  11
ATOM     10  O   UNL     1       0.930   9.739  18.153  0.00  0.00    +0.000 OA
ATOM     11  C   UNL     1       1.361   8.946  18.976  0.00  0.00    +0.000 C 
ATOM     12  N   UNL     1       0.956   8.858  20.288  0.00  0.00    +0.000 N 
ATOM     13  H   UNL     1       1.445   8.213  20.902  0.00  0.00    +0.000 HD
BRANCH  12  14
ATOM     14  C   UNL     1      -0.035   9.770  20.803  0.00  0.00    +0.000 C 
BRANCH  14  15
ATOM     15  C   UNL     1      -0.554   9.318  22.129  0.00  0.00    +0.000 C 
ATOM     16  C   UNL     1       0.271   9.458  23.384  0.00  0.00    +0.000 C 
ATOM     17  C   UNL     1      -0.926  10.343  23.176  0.00  0.00    +0.000 C 
ENDBRANCH  14  15
ENDBRANCH  12  14
ENDBRANCH   1  11
BRANCH   7  18
ATOM     18  S   UNL     1       3.109   2.327  17.947  0.00  0.00    +0.000 S 
ATOM     19  O   UNL     1       1.971   2.013  17.107  0.00  0.00    +0.000 OA
ATOM     20  O   UNL     1       4.190   1.378  18.119  0.00  0.00    +0.000 OA
BRANCH  18  21
ATOM     21  C   UNL     1       2.427   2.572  19.572  0.00  0.00    +0.000 A 
ATOM     22  C   UNL     1       1.154   2.891  20.005  0.00  0.00    +0.000 A 
ATOM     23  C   UNL     1       1.052   2.938  21.427  0.00  0.00    +0.000 A 
ATOM     24  C   UNL     1       2.252   2.642  22.032  0.00  0.00    +0.000 A 
ATOM     25  S   UNL     1       3.494   2.340  20.890  0.00  0.00    +0.000 S 
ENDBRANCH  18  21
ENDBRANCH   7  18
TORSDOF 5
ENDMDL
MODEL 5
REMARK VINA RESULT:      -7.1      3.640      6.870
REMARK  Name = 
REMARK  5 active torsions:
REMARK  status: ('A' for Active; 'I' for Inactive)
REMARK    1  A    between atoms: C_2  and  C_8
REMARK    2  A    between atoms: N_3  and  C_4
REMARK    3  A    between atoms: C_4  and  C_5
REMARK    4  A    between atoms: N_14  and  S_15
REMARK    5  A    between atoms: S_15  and  C_18
REMARK                            x       y       z     vdW  Elec       q    Type
REMARK                         _______ _______ _______ _____ _____    ______ ____
ROOT
ATOM      1  C   UNL     1       6.458   4.471  13.726  0.00  0.00    +0.000 C 
ATOM      2  N   UNL     1       7.635   4.952  13.965  0.00  0.00    +0.000 NA
ATOM      3  O   UNL     1       7.505   5.767  15.123  0.00  0.00    +0.000 OA
ATOM      4  C   UNL     1       6.245   5.456  15.755  0.00  0.00    +0.000 C 
ATOM      5  C   UNL     1       5.672   6.715  16.392  0.00  0.00    +0.000 C 
ATOM      6  C   UNL     1       6.357   6.759  17.751  0.00  0.00    +0.000 C 
ATOM      7  N   UNL     1       6.417   5.342  18.191  0.00  0.00    +0.000 NA
ATOM      8  C   UNL     1       6.480   4.504  16.941  0.00  0.00    +0.000 C 
ATOM      9  C   UNL     1       5.379   4.891  14.648  0.00  0.00    +0.000 C 
ENDROOT
BRANCH   1  11
ATOM     10  O   UNL     1       7.057   3.049  11.946  0.00  0.00    +0.000 OA
ATOM     11  C   UNL     1       6.137   3.576  12.552  0.00  0.00    +0.000 C 
ATOM     12  N   UNL     1       4.802   3.436  12.255  0.00  0.00    +0.000 N 
ATOM     13  H   UNL     1       4.129   3.988  12.779  0.00  0.00    +0.000 HD
BRANCH  12  14
ATOM     14  C   UNL     1       4.390   2.638  11.127  0.00  0.00    +0.000 C 
BRANCH  14  15
ATOM     15  C   UNL     1       3.114   3.144  10.537  0.00  0.00    +0.000 C 
ATOM     16  C   UNL     1       3.005   4.542   9.982  0.00  0.00    +0.000 C 
ATOM     17  C   UNL     1       3.015   3.367   9.046  0.00  0.00    +0.000 C 
ENDBRANCH  14  15
ENDBRANCH  12  14
ENDBRANCH   1  11
BRANCH   7  18
ATOM     18  S   UNL     1       5.211   4.844  19.295  0.00  0.00    +0.000 S 
ATOM     19  O   UNL     1       5.811   3.852  20.163  0.00  0.00    +0.000 OA
ATOM     20  O   UNL     1       4.586   6.030  19.843  0.00  0.00    +0.000 OA
BRANCH  18  21
ATOM     21  C   UNL     1       3.919   3.979  18.431  0.00  0.00    +0.000 A 
ATOM     22  C   UNL     1       2.968   4.401  17.521  0.00  0.00    +0.000 A 
ATOM     23  C   UNL     1       2.152   3.333  17.043  0.00  0.00    +0.000 A 
ATOM     24  C   UNL     1       2.515   2.127  17.600  0.00  0.00    +0.000 A 
ATOM     25  S   UNL     1       3.811   2.293  18.710  0.00  0.00    +0.000 S 
ENDBRANCH  18  21
ENDBRANCH   7  18
TORSDOF 5
ENDMDL
MODEL 6
REMARK VINA RESULT:      -7.0      3.763      6.614
REMARK  Name = 
REMARK  5 active torsions:
REMARK  status: ('A' for Active; 'I' for Inactive)
REMARK    1  A    between atoms: C_2  and  C_8
REMARK    2  A    between atoms: N_3  and  C_4
REMARK    3  A    between atoms: C_4  and  C_5
REMARK    4  A    between atoms: N_14  and  S_15
REMARK    5  A    between atoms: S_15  and  C_18
REMARK                            x       y       z     vdW  Elec       q    Type
REMARK                         _______ _______ _______ _____ _____    ______ ____
ROOT
ATOM      1  C   UNL     1       6.466   4.540  14.501  0.00  0.00    +0.000 C 
ATOM      2  N   UNL     1       7.396   4.149  15.311  0.00  0.00    +0.000 NA
ATOM      3  O   UNL     1       7.193   4.862  16.525  0.00  0.00    +0.000 OA
ATOM      4  C   UNL     1       5.872   5.443  16.493  0.00  0.00    +0.000 C 
ATOM      5  C   UNL     1       5.884   6.778  17.224  0.00  0.00    +0.000 C 
ATOM      6  C   UNL     1       5.687   6.377  18.680  0.00  0.00    +0.000 C 
ATOM      7  N   UNL     1       4.711   5.259  18.636  0.00  0.00    +0.000 NA
ATOM      8  C   UNL     1       4.901   4.571  17.310  0.00  0.00    +0.000 C 
ATOM      9  C   UNL     1       5.531   5.563  15.021  0.00  0.00    +0.000 C 
ENDROOT
BRANCH   1  11
ATOM     10  O   UNL     1       7.298   4.146  12.333  0.00  0.00    +0.000 OA
ATOM     11  C   UNL     1       6.333   4.057  13.076  0.00  0.00    +0.000 C 
ATOM     12  N   UNL     1       5.102   3.553  12.727  0.00  0.00    +0.000 N 
ATOM     13  H   UNL     1       4.349   3.604  13.408  0.00  0.00    +0.000 HD
BRANCH  12  14
ATOM     14  C   UNL     1       4.857   3.105  11.379  0.00  0.00    +0.000 C 
BRANCH  14  15
ATOM     15  C   UNL     1       3.447   3.370  10.964  0.00  0.00    +0.000 C 
ATOM     16  C   UNL     1       3.130   4.226   9.764  0.00  0.00    +0.000 C 
ATOM     17  C   UNL     1       2.909   2.742   9.699  0.00  0.00    +0.000 C 
ENDBRANCH  14  15
ENDBRANCH  12  14
ENDBRANCH   1  11
BRANCH   7  18
ATOM     18  S   UNL     1       3.085   5.664  18.974  0.00  0.00    +0.000 S 
ATOM     19  O   UNL     1       3.102   6.624  20.059  0.00  0.00    +0.000 OA
ATOM     20  O   UNL     1       2.428   5.972  17.720  0.00  0.00    +0.000 OA
BRANCH  18  21
ATOM     21  C   UNL     1       2.229   4.247  19.627  0.00  0.00    +0.000 A 
ATOM     22  C   UNL     1       1.574   3.196  19.013  0.00  0.00    +0.000 A 
ATOM     23  C   UNL     1       1.068   2.244  19.946  0.00  0.00    +0.000 A 
ATOM     24  C   UNL     1       1.364   2.596  21.243  0.00  0.00    +0.000 A 
ATOM     25  S   UNL     1       2.219   4.079  21.330  0.00  0.00    +0.000 S 
ENDBRANCH  18  21
ENDBRANCH   7  18
TORSDOF 5
ENDMDL
MODEL 7
REMARK VINA RESULT:      -7.0      4.052      6.340
REMARK  Name = 
REMARK  5 active torsions:
REMARK  status: ('A' for Active; 'I' for Inactive)
REMARK    1  A    between atoms: C_2  and  C_8
REMARK    2  A    between atoms: N_3  and  C_4
REMARK    3  A    between atoms: C_4  and  C_5
REMARK    4  A    between atoms: N_14  and  S_15
REMARK    5  A    between atoms: S_15  and  C_18
REMARK                            x       y       z     vdW  Elec       q    Type
REMARK                         _______ _______ _______ _____ _____    ______ ____
ROOT
ATOM      1  C   UNL     1       6.824   4.741  15.238  0.00  0.00    +0.000 C 
ATOM      2  N   UNL     1       7.688   4.333  16.110  0.00  0.00    +0.000 NA
ATOM      3  O   UNL     1       7.196   4.740  17.380  0.00  0.00    +0.000 OA
ATOM      4  C   UNL     1       5.809   5.111  17.230  0.00  0.00    +0.000 C 
ATOM      5  C   UNL     1       5.481   6.252  18.183  0.00  0.00    +0.000 C 
ATOM      6  C   UNL     1       5.161   5.533  19.487  0.00  0.00    +0.000 C 
ATOM      7  N   UNL     1       4.416   4.316  19.075  0.00  0.00    +0.000 NA
ATOM      8  C   UNL     1       4.908   3.954  17.698  0.00  0.00    +0.000 C 
ATOM      9  C   UNL     1       5.658   5.483  15.769  0.00  0.00    +0.000 C 
ENDROOT
BRANCH   1  11
ATOM     10  O   UNL     1       7.706   5.310  13.129  0.00  0.00    +0.000 OA
ATOM     11  C   UNL     1       6.978   4.549  13.747  0.00  0.00    +0.000 C 
ATOM     12  N   UNL     1       6.257   3.513  13.200  0.00  0.00    +0.000 N 
ATOM     13  H   UNL     1       5.620   2.997  13.801  0.00  0.00    +0.000 HD
BRANCH  12  14
ATOM     14  C   UNL     1       6.300   3.272  11.780  0.00  0.00    +0.000 C 
BRANCH  14  15
ATOM     15  C   UNL     1       4.999   2.735  11.278  0.00  0.00    +0.000 C 
ATOM     16  C   UNL     1       3.683   3.252  11.802  0.00  0.00    +0.000 C 
ATOM     17  C   UNL     1       4.119   3.601  10.407  0.00  0.00    +0.000 C 
ENDBRANCH  14  15
ENDBRANCH  12  14
ENDBRANCH   1  11
BRANCH   7  18
ATOM     18  S   UNL     1       2.714   4.395  19.199  0.00  0.00    +0.000 S 
ATOM     19  O   UNL     1       2.177   4.126  17.881  0.00  0.00    +0.000 OA
ATOM     20  O   UNL     1       2.309   3.603  20.343  0.00  0.00    +0.000 OA
BRANCH  18  21
ATOM     21  C   UNL     1       2.209   6.060  19.571  0.00  0.00    +0.000 A 
ATOM     22  C   UNL     1       1.824   6.671  20.750  0.00  0.00    +0.000 A 
ATOM     23  C   UNL     1       1.548   8.061  20.584  0.00  0.00    +0.000 A 
ATOM     24  C   UNL     1       1.743   8.466  19.283  0.00  0.00    +0.000 A 
ATOM     25  S   UNL     1       2.226   7.171  18.269  0.00  0.00    +0.000 S 
ENDBRANCH  18  21
ENDBRANCH   7  18
TORSDOF 5
ENDMDL
MODEL 8
REMARK VINA RESULT:      -6.9      4.291      5.769
REMARK  Name = 
REMARK  5 active torsions:
REMARK  status: ('A' for Active; 'I' for Inactive)
REMARK    1  A    between atoms: C_2  and  C_8
REMARK    2  A    between atoms: N_3  and  C_4
REMARK    3  A    between atoms: C_4  and  C_5
REMARK    4  A    between atoms: N_14  and  S_15
REMARK    5  A    between atoms: S_15  and  C_18
REMARK                            x       y       z     vdW  Elec       q    Type
REMARK                         _______ _______ _______ _____ _____    ______ ____
ROOT
ATOM      1  C   UNL     1       2.899   7.829  18.159  0.00  0.00    +0.000 C 
ATOM      2  N   UNL     1       3.844   7.904  17.279  0.00  0.00    +0.000 NA
ATOM      3  O   UNL     1       4.643   6.740  17.452  0.00  0.00    +0.000 OA
ATOM      4  C   UNL     1       3.904   5.801  18.262  0.00  0.00    +0.000 C 
ATOM      5  C   UNL     1       4.869   5.015  19.140  0.00  0.00    +0.000 C 
ATOM      6  C   UNL     1       5.328   3.887  18.226  0.00  0.00    +0.000 C 
ATOM      7  N   UNL     1       4.114   3.500  17.463  0.00  0.00    +0.000 NA
ATOM      8  C   UNL     1       3.257   4.735  17.360  0.00  0.00    +0.000 C 
ATOM      9  C   UNL     1       2.924   6.647  19.049  0.00  0.00    +0.000 C 
ENDROOT
BRANCH   1  11
ATOM     10  O   UNL     1       1.429   9.491  17.367  0.00  0.00    +0.000 OA
ATOM     11  C   UNL     1       1.839   8.889  18.347  0.00  0.00    +0.000 C 
ATOM     12  N   UNL     1       1.425   9.096  19.642  0.00  0.00    +0.000 N 
ATOM     13  H   UNL     1       1.897   8.592  20.387  0.00  0.00    +0.000 HD
BRANCH  12  14
ATOM     14  C   UNL     1       0.448  10.115  19.937  0.00  0.00    +0.000 C 
BRANCH  14  15
ATOM     15  C   UNL     1      -0.555   9.638  20.935  0.00  0.00    +0.000 C 
ATOM     16  C   UNL     1      -0.201   8.596  21.967  0.00  0.00    +0.000 C 
ATOM     17  C   UNL     1      -0.406  10.023  22.389  0.00  0.00    +0.000 C 
ENDBRANCH  14  15
ENDBRANCH  12  14
ENDBRANCH   1  11
BRANCH   7  18
ATOM     18  S   UNL     1       3.274   2.124  18.030  0.00  0.00    +0.000 S 
ATOM     19  O   UNL     1       2.109   1.957  17.185  0.00  0.00    +0.000 OA
ATOM     20  O   UNL     1       4.231   1.050  18.196  0.00  0.00    +0.000 OA
BRANCH  18  21
ATOM     21  C   UNL     1       2.622   2.437  19.655  0.00  0.00    +0.000 A 
ATOM     22  C   UNL     1       3.203   2.405  20.909  0.00  0.00    +0.000 A 
ATOM     23  C   UNL     1       2.296   2.781  21.945  0.00  0.00    +0.000 A 
ATOM     24  C   UNL     1       1.055   3.099  21.443  0.00  0.00    +0.000 A 
ATOM     25  S   UNL     1       0.981   2.915  19.740  0.00  0.00    +0.000 S 
ENDBRANCH  18  21
ENDBRANCH   7  18
TORSDOF 5
ENDMDL
MODEL 9
REMARK VINA RESULT:      -6.8      4.426      6.521
REMARK  Name = 
REMARK  5 active torsions:
REMARK  status: ('A' for Active; 'I' for Inactive)
REMARK    1  A    between atoms: C_2  and  C_8
REMARK    2  A    between atoms: N_3  and  C_4
REMARK    3  A    between atoms: C_4  and  C_5
REMARK    4  A    between atoms: N_14  and  S_15
REMARK    5  A    between atoms: S_15  and  C_18
REMARK                            x       y       z     vdW  Elec       q    Type
REMARK                         _______ _______ _______ _____ _____    ______ ____
ROOT
ATOM      1  C   UNL     1       2.068   8.432  18.542  0.00  0.00    +0.000 C 
ATOM      2  N   UNL     1       2.910   8.698  17.596  0.00  0.00    +0.000 NA
ATOM      3  O   UNL     1       3.844   7.627  17.581  0.00  0.00    +0.000 OA
ATOM      4  C   UNL     1       3.295   6.537  18.352  0.00  0.00    +0.000 C 
ATOM      5  C   UNL     1       4.420   5.794  19.058  0.00  0.00    +0.000 C 
ATOM      6  C   UNL     1       4.909   4.816  18.000  0.00  0.00    +0.000 C 
ATOM      7  N   UNL     1       3.676   4.359  17.309  0.00  0.00    +0.000 NA
ATOM      8  C   UNL     1       2.683   5.488  17.406  0.00  0.00    +0.000 C 
ATOM      9  C   UNL     1       2.309   7.186  19.302  0.00  0.00    +0.000 C 
ENDROOT
BRANCH   1  11
ATOM     10  O   UNL     1       0.747   9.594  20.109  0.00  0.00    +0.000 OA
ATOM     11  C   UNL     1       0.922   9.339  18.927  0.00  0.00    +0.000 C 
ATOM     12  N   UNL     1       0.151   9.803  17.887  0.00  0.00    +0.000 N 
ATOM     13  H   UNL     1       0.343   9.457  16.951  0.00  0.00    +0.000 HD
BRANCH  12  14
ATOM     14  C   UNL     1      -0.993  10.639  18.151  0.00  0.00    +0.000 C 
BRANCH  14  15
ATOM     15  C   UNL     1      -2.225  10.099  17.501  0.00  0.00    +0.000 C 
ATOM     16  C   UNL     1      -3.595  10.620  17.860  0.00  0.00    +0.000 C 
ATOM     17  C   UNL     1      -2.994  10.959  16.525  0.00  0.00    +0.000 C 
ENDBRANCH  14  15
ENDBRANCH  12  14
ENDBRANCH   1  11
BRANCH   7  18
ATOM     18  S   UNL     1       3.051   2.848  17.803  0.00  0.00    +0.000 S 
ATOM     19  O   UNL     1       1.878   2.586  16.994  0.00  0.00    +0.000 OA
ATOM     20  O   UNL     1       4.147   1.902  17.851  0.00  0.00    +0.000 OA
BRANCH  18  21
ATOM     21  C   UNL     1       2.443   2.958  19.472  0.00  0.00    +0.000 A 
ATOM     22  C   UNL     1       1.207   3.299  19.987  0.00  0.00    +0.000 A 
ATOM     23  C   UNL     1       1.159   3.202  21.410  0.00  0.00    +0.000 A 
ATOM     24  C   UNL     1       2.361   2.779  21.931  0.00  0.00    +0.000 A 
ATOM     25  S   UNL     1       3.542   2.532  20.713  0.00  0.00    +0.000 S 
ENDBRANCH  18  21
ENDBRANCH   7  18
TORSDOF 5
ENDMDL
