MODEL 1
REMARK VINA RESULT:      -9.0      0.000      0.000
REMARK  Name = 
REMARK  6 active torsions:
REMARK  status: ('A' for Active; 'I' for Inactive)
REMARK    1  A    between atoms: C_1  and  C_2
REMARK    2  A    between atoms: N_4  and  C_5
REMARK    3  A    between atoms: C_8  and  C_9
REMARK    4  A    between atoms: C_9  and  C_10
REMARK    5  A    between atoms: C_10  and  C_11
REMARK    6  A    between atoms: C_29  and  C_30
REMARK                            x       y       z     vdW  Elec       q    Type
REMARK                         _______ _______ _______ _____ _____    ______ ____
ROOT
ATOM      1  C   UNL     1       2.567   7.163  18.914  0.00  0.00    +0.000 A 
ATOM      2  N   UNL     1       3.351   7.423  17.843  0.00  0.00    +0.000 NA
ATOM      3  N   UNL     1       3.988   6.432  17.139  0.00  0.00    +0.000 NA
ATOM      4  C   UNL     1       3.883   5.146  17.523  0.00  0.00    +0.000 A 
ATOM      5  C   UNL     1       3.119   4.786  18.650  0.00  0.00    +0.000 A 
ATOM      6  C   UNL     1       3.015   3.454  19.133  0.00  0.00    +0.000 A 
ATOM      7  C   UNL     1       2.194   3.108  20.207  0.00  0.00    +0.000 A 
ATOM      8  C   UNL     1       1.423   4.082  20.809  0.00  0.00    +0.000 A 
ATOM      9  C   UNL     1       1.499   5.393  20.344  0.00  0.00    +0.000 A 
ATOM     10  C   UNL     1       2.396   5.810  19.322  0.00  0.00    +0.000 A 
ENDROOT
BRANCH   1  14
ATOM     11  C   UNL     1      -0.413   9.457  17.816  0.00  0.00    +0.000 C 
ATOM     12  C   UNL     1       0.400  10.108  18.934  0.00  0.00    +0.000 C 
ATOM     13  C   UNL     1       1.851   9.583  18.952  0.00  0.00    +0.000 C 
ATOM     14  N   UNL     1       1.991   8.252  19.545  0.00  0.00    +0.000 N 
ATOM     15  C   UNL     1       1.334   8.076  20.855  0.00  0.00    +0.000 C 
ATOM     16  C   UNL     1      -0.119   8.598  20.869  0.00  0.00    +0.000 C 
ATOM     17  N   UNL     1      -0.268   9.915  20.226  0.00  0.00    +0.000 N 
ATOM     18  C   UNL     1      -0.752  10.991  20.936  0.00  0.00    +0.000 A 
ATOM     19  C   UNL     1      -1.376  12.057  20.280  0.00  0.00    +0.000 A 
ATOM     20  C   UNL     1      -1.889  13.135  21.001  0.00  0.00    +0.000 A 
ATOM     21  C   UNL     1      -1.768  13.142  22.380  0.00  0.00    +0.000 A 
ATOM     22  C   UNL     1      -1.135  12.058  22.971  0.00  0.00    +0.000 A 
ATOM     23  N   UNL     1      -0.643  10.996  22.282  0.00  0.00    +0.000 NA
BRANCH  21  24
ATOM     24  C   UNL     1      -2.275  14.214  23.171  0.00  0.00    +0.000 C 
ATOM     25  N   UNL     1      -2.697  15.094  23.800  0.00  0.00    +0.000 NA
ENDBRANCH  21  24
ENDBRANCH   1  14
BRANCH   4  26
ATOM     26  C   UNL     1       4.582   4.164  16.601  0.00  0.00    +0.000 C 
BRANCH  26  27
ATOM     27  C   UNL     1       5.887   4.732  16.019  0.00  0.00    +0.000 C 
BRANCH  27  28
ATOM     28  C   UNL     1       6.218   4.462  14.566  0.00  0.00    +0.000 A 
ATOM     29  C   UNL     1       5.489   3.613  13.726  0.00  0.00    +0.000 A 
ATOM     30  C   UNL     1       5.882   3.425  12.394  0.00  0.00    +0.000 A 
ATOM     31  C   UNL     1       7.002   4.084  11.886  0.00  0.00    +0.000 A 
ATOM     32  C   UNL     1       7.732   4.936  12.708  0.00  0.00    +0.000 A 
ATOM     33  C   UNL     1       7.342   5.121  14.035  0.00  0.00    +0.000 A 
ENDBRANCH  27  28
ENDBRANCH  26  27
ENDBRANCH   4  26
TORSDOF 5
ENDMDL
MODEL 2
REMARK VINA RESULT:      -8.9      1.465      2.499
REMARK  Name = 
REMARK  6 active torsions:
REMARK  status: ('A' for Active; 'I' for Inactive)
REMARK    1  A    between atoms: C_1  and  C_2
REMARK    2  A    between atoms: N_4  and  C_5
REMARK    3  A    between atoms: C_8  and  C_9
REMARK    4  A    between atoms: C_9  and  C_10
REMARK    5  A    between atoms: C_10  and  C_11
REMARK    6  A    between atoms: C_29  and  C_30
REMARK                            x       y       z     vdW  Elec       q    Type
REMARK                         _______ _______ _______ _____ _____    ______ ____
ROOT
ATOM      1  C   UNL     1       2.466   7.378  18.975  0.00  0.00    +0.000 A 
ATOM      2  N   UNL     1       3.066   7.629  17.790  0.00  0.00    +0.000 NA
ATOM      3  N   UNL     1       3.698   6.651  17.063  0.00  0.00    +0.000 NA
ATOM      4  C   UNL     1       3.778   5.393  17.535  0.00  0.00    +0.000 A 
ATOM      5  C   UNL     1       3.217   5.049  18.780  0.00  0.00    +0.000 A 
ATOM      6  C   UNL     1       3.316   3.752  19.353  0.00  0.00    +0.000 A 
ATOM      7  C   UNL     1       2.689   3.414  20.553  0.00  0.00    +0.000 A 
ATOM      8  C   UNL     1       1.912   4.354  21.198  0.00  0.00    +0.000 A 
ATOM      9  C   UNL     1       1.790   5.628  20.649  0.00  0.00    +0.000 A 
ATOM     10  C   UNL     1       2.492   6.049  19.485  0.00  0.00    +0.000 A 
ENDROOT
BRANCH   1  14
ATOM     11  C   UNL     1      -0.577   9.606  17.918  0.00  0.00    +0.000 C 
ATOM     12  C   UNL     1       0.235  10.274  19.027  0.00  0.00    +0.000 C 
ATOM     13  C   UNL     1       1.697   9.781  19.027  0.00  0.00    +0.000 C 
ATOM     14  N   UNL     1       1.874   8.453  19.616  0.00  0.00    +0.000 N 
ATOM     15  C   UNL     1       1.236   8.260  20.933  0.00  0.00    +0.000 C 
ATOM     16  C   UNL     1      -0.227   8.750  20.965  0.00  0.00    +0.000 C 
ATOM     17  N   UNL     1      -0.413  10.064  20.326  0.00  0.00    +0.000 N 
ATOM     18  C   UNL     1      -0.912  11.128  21.045  0.00  0.00    +0.000 A 
ATOM     19  C   UNL     1      -1.568  12.181  20.397  0.00  0.00    +0.000 A 
ATOM     20  C   UNL     1      -2.096  13.246  21.127  0.00  0.00    +0.000 A 
ATOM     21  C   UNL     1      -1.958  13.254  22.504  0.00  0.00    +0.000 A 
ATOM     22  C   UNL     1      -1.295  12.183  23.085  0.00  0.00    +0.000 A 
ATOM     23  N   UNL     1      -0.787  11.134  22.389  0.00  0.00    +0.000 NA
BRANCH  21  24
ATOM     24  C   UNL     1      -2.479  14.313  23.303  0.00  0.00    +0.000 C 
ATOM     25  N   UNL     1      -2.921  15.168  23.953  0.00  0.00    +0.000 NA
ENDBRANCH  21  24
ENDBRANCH   1  14
BRANCH   4  26
ATOM     26  C   UNL     1       4.442   4.414  16.584  0.00  0.00    +0.000 C 
BRANCH  26  27
ATOM     27  C   UNL     1       5.818   4.903  16.104  0.00  0.00    +0.000 C 
BRANCH  27  28
ATOM     28  C   UNL     1       6.682   5.705  17.056  0.00  0.00    +0.000 A 
ATOM     29  C   UNL     1       7.041   7.044  16.873  0.00  0.00    +0.000 A 
ATOM     30  C   UNL     1       7.851   7.697  17.811  0.00  0.00    +0.000 A 
ATOM     31  C   UNL     1       8.307   7.021  18.943  0.00  0.00    +0.000 A 
ATOM     32  C   UNL     1       7.952   5.692  19.142  0.00  0.00    +0.000 A 
ATOM     33  C   UNL     1       7.148   5.041  18.206  0.00  0.00    +0.000 A 
ENDBRANCH  27  28
ENDBRANCH  26  27
ENDBRANCH   4  26
TORSDOF 5
ENDMDL
MODEL 3
REMARK VINA RESULT:      -8.9      1.109      1.984
REMARK  Name = 
REMARK  6 active torsions:
REMARK  status: ('A' for Active; 'I' for Inactive)
REMARK    1  A    between atoms: C_1  and  C_2
REMARK    2  A    between atoms: N_4  and  C_5
REMARK    3  A    between atoms: C_8  and  C_9
REMARK    4  A    between atoms: C_9  and  C_10
REMARK    5  A    between atoms: C_10  and  C_11
REMARK    6  A    between atoms: C_29  and  C_30
REMARK                            x       y       z     vdW  Elec       q    Type
REMARK                         _______ _______ _______ _____ _____    ______ ____
ROOT
ATOM      1  C   UNL     1       2.247   7.519  18.980  0.00  0.00    +0.000 A 
ATOM      2  N   UNL     1       2.995   8.035  17.979  0.00  0.00    +0.000 NA
ATOM      3  N   UNL     1       4.036   7.346  17.409  0.00  0.00    +0.000 NA
ATOM      4  C   UNL     1       4.377   6.125  17.862  0.00  0.00    +0.000 A 
ATOM      5  C   UNL     1       3.678   5.526  18.927  0.00  0.00    +0.000 A 
ATOM      6  C   UNL     1       4.026   4.265  19.482  0.00  0.00    +0.000 A 
ATOM      7  C   UNL     1       3.274   3.657  20.488  0.00  0.00    +0.000 A 
ATOM      8  C   UNL     1       2.129   4.276  20.945  0.00  0.00    +0.000 A 
ATOM      9  C   UNL     1       1.761   5.507  20.407  0.00  0.00    +0.000 A 
ATOM     10  C   UNL     1       2.550   6.212  19.455  0.00  0.00    +0.000 A 
ENDROOT
BRANCH   1  14
ATOM     11  C   UNL     1       1.832   9.203  22.493  0.00  0.00    +0.000 C 
ATOM     12  C   UNL     1       0.507   9.183  21.733  0.00  0.00    +0.000 C 
ATOM     13  C   UNL     1       0.471   8.040  20.696  0.00  0.00    +0.000 C 
ATOM     14  N   UNL     1       1.234   8.321  19.479  0.00  0.00    +0.000 N 
ATOM     15  C   UNL     1       0.959   9.629  18.854  0.00  0.00    +0.000 C 
ATOM     16  C   UNL     1       0.983  10.792  19.868  0.00  0.00    +0.000 C 
ATOM     17  N   UNL     1       0.259  10.491  21.114  0.00  0.00    +0.000 N 
ATOM     18  C   UNL     1      -0.810  11.265  21.508  0.00  0.00    +0.000 A 
ATOM     19  C   UNL     1      -1.173  11.346  22.857  0.00  0.00    +0.000 A 
ATOM     20  C   UNL     1      -2.240  12.150  23.260  0.00  0.00    +0.000 A 
ATOM     21  C   UNL     1      -2.943  12.864  22.305  0.00  0.00    +0.000 A 
ATOM     22  C   UNL     1      -2.537  12.737  20.985  0.00  0.00    +0.000 A 
ATOM     23  N   UNL     1      -1.493  11.970  20.581  0.00  0.00    +0.000 NA
BRANCH  21  24
ATOM     24  C   UNL     1      -4.040  13.704  22.656  0.00  0.00    +0.000 C 
ATOM     25  N   UNL     1      -4.921  14.402  22.948  0.00  0.00    +0.000 NA
ENDBRANCH  21  24
ENDBRANCH   1  14
BRANCH   4  26
ATOM     26  C   UNL     1       5.497   5.464  17.081  0.00  0.00    +0.000 C 
BRANCH  26  27
ATOM     27  C   UNL     1       4.973   4.575  15.941  0.00  0.00    +0.000 C 
BRANCH  27  28
ATOM     28  C   UNL     1       5.779   4.474  14.662  0.00  0.00    +0.000 A 
ATOM     29  C   UNL     1       7.011   5.099  14.444  0.00  0.00    +0.000 A 
ATOM     30  C   UNL     1       7.677   4.947  13.220  0.00  0.00    +0.000 A 
ATOM     31  C   UNL     1       7.122   4.167  12.205  0.00  0.00    +0.000 A 
ATOM     32  C   UNL     1       5.901   3.535  12.411  0.00  0.00    +0.000 A 
ATOM     33  C   UNL     1       5.237   3.688  13.628  0.00  0.00    +0.000 A 
ENDBRANCH  27  28
ENDBRANCH  26  27
ENDBRANCH   4  26
TORSDOF 5
ENDMDL
MODEL 4
REMARK VINA RESULT:      -8.2      1.575      2.126
REMARK  Name = 
REMARK  6 active torsions:
REMARK  status: ('A' for Active; 'I' for Inactive)
REMARK    1  A    between atoms: C_1  and  C_2
REMARK    2  A    between atoms: N_4  and  C_5
REMARK    3  A    between atoms: C_8  and  C_9
REMARK    4  A    between atoms: C_9  and  C_10
REMARK    5  A    between atoms: C_10  and  C_11
REMARK    6  A    between atoms: C_29  and  C_30
REMARK                            x       y       z     vdW  Elec       q    Type
REMARK                         _______ _______ _______ _____ _____    ______ ____
ROOT
ATOM      1  C   UNL     1       2.911   6.917  18.164  0.00  0.00    +0.000 A 
ATOM      2  N   UNL     1       4.130   7.473  17.988  0.00  0.00    +0.000 NA
ATOM      3  N   UNL     1       5.239   6.729  17.669  0.00  0.00    +0.000 NA
ATOM      4  C   UNL     1       5.155   5.391  17.557  0.00  0.00    +0.000 A 
ATOM      5  C   UNL     1       3.933   4.722  17.762  0.00  0.00    +0.000 A 
ATOM      6  C   UNL     1       3.795   3.309  17.709  0.00  0.00    +0.000 A 
ATOM      7  C   UNL     1       2.561   2.671  17.841  0.00  0.00    +0.000 A 
ATOM      8  C   UNL     1       1.420   3.433  17.995  0.00  0.00    +0.000 A 
ATOM      9  C   UNL     1       1.529   4.820  18.036  0.00  0.00    +0.000 A 
ATOM     10  C   UNL     1       2.774   5.508  18.009  0.00  0.00    +0.000 A 
ENDROOT
BRANCH   1  14
ATOM     11  C   UNL     1       2.197   8.880  21.478  0.00  0.00    +0.000 C 
ATOM     12  C   UNL     1       0.954   8.825  20.593  0.00  0.00    +0.000 C 
ATOM     13  C   UNL     1       0.989   7.605  19.649  0.00  0.00    +0.000 C 
ATOM     14  N   UNL     1       1.875   7.774  18.496  0.00  0.00    +0.000 N 
ATOM     15  C   UNL     1       1.699   9.033  17.747  0.00  0.00    +0.000 C 
ATOM     16  C   UNL     1       1.653  10.272  18.666  0.00  0.00    +0.000 C 
ATOM     17  N   UNL     1       0.802  10.084  19.853  0.00  0.00    +0.000 N 
ATOM     18  C   UNL     1      -0.280  10.907  20.078  0.00  0.00    +0.000 A 
ATOM     19  C   UNL     1      -0.771  11.102  21.374  0.00  0.00    +0.000 A 
ATOM     20  C   UNL     1      -1.850  11.954  21.605  0.00  0.00    +0.000 A 
ATOM     21  C   UNL     1      -2.437  12.604  20.533  0.00  0.00    +0.000 A 
ATOM     22  C   UNL     1      -1.906  12.366  19.273  0.00  0.00    +0.000 A 
ATOM     23  N   UNL     1      -0.849  11.549  19.036  0.00  0.00    +0.000 NA
BRANCH  21  24
ATOM     24  C   UNL     1      -3.541  13.490  20.706  0.00  0.00    +0.000 C 
ATOM     25  N   UNL     1      -4.434  14.222  20.831  0.00  0.00    +0.000 NA
ENDBRANCH  21  24
ENDBRANCH   1  14
BRANCH   4  26
ATOM     26  C   UNL     1       6.447   4.721  17.128  0.00  0.00    +0.000 C 
BRANCH  26  27
ATOM     27  C   UNL     1       7.080   5.399  15.901  0.00  0.00    +0.000 C 
BRANCH  27  28
ATOM     28  C   UNL     1       6.839   4.801  14.530  0.00  0.00    +0.000 A 
ATOM     29  C   UNL     1       5.826   3.886  14.225  0.00  0.00    +0.000 A 
ATOM     30  C   UNL     1       5.689   3.387  12.922  0.00  0.00    +0.000 A 
ATOM     31  C   UNL     1       6.559   3.798  11.912  0.00  0.00    +0.000 A 
ATOM     32  C   UNL     1       7.567   4.712  12.200  0.00  0.00    +0.000 A 
ATOM     33  C   UNL     1       7.704   5.208  13.497  0.00  0.00    +0.000 A 
ENDBRANCH  27  28
ENDBRANCH  26  27
ENDBRANCH   4  26
TORSDOF 5
ENDMDL
MODEL 5
REMARK VINA RESULT:      -8.1      1.173      1.863
REMARK  Name = 
REMARK  6 active torsions:
REMARK  status: ('A' for Active; 'I' for Inactive)
REMARK    1  A    between atoms: C_1  and  C_2
REMARK    2  A    between atoms: N_4  and  C_5
REMARK    3  A    between atoms: C_8  and  C_9
REMARK    4  A    between atoms: C_9  and  C_10
REMARK    5  A    between atoms: C_10  and  C_11
REMARK    6  A    between atoms: C_29  and  C_30
REMARK                            x       y       z     vdW  Elec       q    Type
REMARK                         _______ _______ _______ _____ _____    ______ ____
ROOT
ATOM      1  C   UNL     1       2.393   6.856  19.443  0.00  0.00    +0.000 A 
ATOM      2  N   UNL     1       3.349   7.331  18.614  0.00  0.00    +0.000 NA
ATOM      3  N   UNL     1       4.397   6.558  18.180  0.00  0.00    +0.000 NA
ATOM      4  C   UNL     1       4.531   5.288  18.606  0.00  0.00    +0.000 A 
ATOM      5  C   UNL     1       3.604   4.723  19.502  0.00  0.00    +0.000 A 
ATOM      6  C   UNL     1       3.723   3.407  20.027  0.00  0.00    +0.000 A 
ATOM      7  C   UNL     1       2.754   2.840  20.855  0.00  0.00    +0.000 A 
ATOM      8  C   UNL     1       1.615   3.561  21.155  0.00  0.00    +0.000 A 
ATOM      9  C   UNL     1       1.471   4.848  20.642  0.00  0.00    +0.000 A 
ATOM     10  C   UNL     1       2.477   5.504  19.879  0.00  0.00    +0.000 A 
ENDROOT
BRANCH   1  14
ATOM     11  C   UNL     1       2.053   9.104  22.634  0.00  0.00    +0.000 C 
ATOM     12  C   UNL     1       0.715   8.974  21.908  0.00  0.00    +0.000 C 
ATOM     13  C   UNL     1       0.651   7.675  21.076  0.00  0.00    +0.000 C 
ATOM     14  N   UNL     1       1.396   7.741  19.818  0.00  0.00    +0.000 N 
ATOM     15  C   UNL     1       1.122   8.930  18.988  0.00  0.00    +0.000 C 
ATOM     16  C   UNL     1       1.173  10.245  19.794  0.00  0.00    +0.000 C 
ATOM     17  N   UNL     1       0.468  10.163  21.084  0.00  0.00    +0.000 N 
ATOM     18  C   UNL     1      -0.588  11.004  21.360  0.00  0.00    +0.000 A 
ATOM     19  C   UNL     1      -0.927  11.313  22.682  0.00  0.00    +0.000 A 
ATOM     20  C   UNL     1      -1.979  12.184  22.962  0.00  0.00    +0.000 A 
ATOM     21  C   UNL     1      -2.692  12.738  21.914  0.00  0.00    +0.000 A 
ATOM     22  C   UNL     1      -2.310  12.389  20.627  0.00  0.00    +0.000 A 
ATOM     23  N   UNL     1      -1.280  11.553  20.339  0.00  0.00    +0.000 NA
BRANCH  21  24
ATOM     24  C   UNL     1      -3.776  13.637  22.137  0.00  0.00    +0.000 C 
ATOM     25  N   UNL     1      -4.646  14.383  22.325  0.00  0.00    +0.000 NA
ENDBRANCH  21  24
ENDBRANCH   1  14
BRANCH   4  26
ATOM     26  C   UNL     1       5.696   4.543  17.980  0.00  0.00    +0.000 C 
BRANCH  26  27
ATOM     27  C   UNL     1       6.397   5.363  16.886  0.00  0.00    +0.000 C 
BRANCH  27  28
ATOM     28  C   UNL     1       6.344   4.870  15.454  0.00  0.00    +0.000 A 
ATOM     29  C   UNL     1       5.310   4.098  14.914  0.00  0.00    +0.000 A 
ATOM     30  C   UNL     1       5.356   3.686  13.576  0.00  0.00    +0.000 A 
ATOM     31  C   UNL     1       6.432   4.044  12.762  0.00  0.00    +0.000 A 
ATOM     32  C   UNL     1       7.463   4.817  13.284  0.00  0.00    +0.000 A 
ATOM     33  C   UNL     1       7.418   5.225  14.617  0.00  0.00    +0.000 A 
ENDBRANCH  27  28
ENDBRANCH  26  27
ENDBRANCH   4  26
TORSDOF 5
ENDMDL
MODEL 6
REMARK VINA RESULT:      -8.0      1.296      2.072
REMARK  Name = 
REMARK  6 active torsions:
REMARK  status: ('A' for Active; 'I' for Inactive)
REMARK    1  A    between atoms: C_1  and  C_2
REMARK    2  A    between atoms: N_4  and  C_5
REMARK    3  A    between atoms: C_8  and  C_9
REMARK    4  A    between atoms: C_9  and  C_10
REMARK    5  A    between atoms: C_10  and  C_11
REMARK    6  A    between atoms: C_29  and  C_30
REMARK                            x       y       z     vdW  Elec       q    Type
REMARK                         _______ _______ _______ _____ _____    ______ ____
ROOT
ATOM      1  C   UNL     1       2.801   7.055  18.598  0.00  0.00    +0.000 A 
ATOM      2  N   UNL     1       3.750   7.527  17.758  0.00  0.00    +0.000 NA
ATOM      3  N   UNL     1       4.844   6.784  17.392  0.00  0.00    +0.000 NA
ATOM      4  C   UNL     1       5.033   5.551  17.897  0.00  0.00    +0.000 A 
ATOM      5  C   UNL     1       4.117   4.994  18.810  0.00  0.00    +0.000 A 
ATOM      6  C   UNL     1       4.292   3.721  19.416  0.00  0.00    +0.000 A 
ATOM      7  C   UNL     1       3.335   3.156  20.261  0.00  0.00    +0.000 A 
ATOM      8  C   UNL     1       2.156   3.834  20.495  0.00  0.00    +0.000 A 
ATOM      9  C   UNL     1       1.957   5.078  19.901  0.00  0.00    +0.000 A 
ATOM     10  C   UNL     1       2.945   5.737  19.118  0.00  0.00    +0.000 A 
ENDROOT
BRANCH   1  14
ATOM     11  C   UNL     1       2.056   9.122  21.842  0.00  0.00    +0.000 C 
ATOM     12  C   UNL     1       0.814   9.018  20.958  0.00  0.00    +0.000 C 
ATOM     13  C   UNL     1       0.868   7.766  20.057  0.00  0.00    +0.000 C 
ATOM     14  N   UNL     1       1.753   7.908  18.900  0.00  0.00    +0.000 N 
ATOM     15  C   UNL     1       1.559   9.138  18.108  0.00  0.00    +0.000 C 
ATOM     16  C   UNL     1       1.494  10.407  18.983  0.00  0.00    +0.000 C 
ATOM     17  N   UNL     1       0.645  10.248  20.175  0.00  0.00    +0.000 N 
ATOM     18  C   UNL     1      -0.449  11.062  20.371  0.00  0.00    +0.000 A 
ATOM     19  C   UNL     1      -0.944  11.295  21.658  0.00  0.00    +0.000 A 
ATOM     20  C   UNL     1      -2.036  12.139  21.859  0.00  0.00    +0.000 A 
ATOM     21  C   UNL     1      -2.631  12.743  20.765  0.00  0.00    +0.000 A 
ATOM     22  C   UNL     1      -2.096  12.468  19.515  0.00  0.00    +0.000 A 
ATOM     23  N   UNL     1      -1.026  11.659  19.306  0.00  0.00    +0.000 NA
BRANCH  21  24
ATOM     24  C   UNL     1      -3.748  13.618  20.907  0.00  0.00    +0.000 C 
ATOM     25  N   UNL     1      -4.645  14.345  21.026  0.00  0.00    +0.000 NA
ENDBRANCH  21  24
ENDBRANCH   1  14
BRANCH   4  26
ATOM     26  C   UNL     1       6.247   4.831  17.339  0.00  0.00    +0.000 C 
BRANCH  26  27
ATOM     27  C   UNL     1       6.895   5.591  16.171  0.00  0.00    +0.000 C 
BRANCH  27  28
ATOM     28  C   UNL     1       6.808   5.003  14.777  0.00  0.00    +0.000 A 
ATOM     29  C   UNL     1       7.684   5.302  13.729  0.00  0.00    +0.000 A 
ATOM     30  C   UNL     1       7.516   4.706  12.472  0.00  0.00    +0.000 A 
ATOM     31  C   UNL     1       6.475   3.804  12.250  0.00  0.00    +0.000 A 
ATOM     32  C   UNL     1       5.601   3.491  13.285  0.00  0.00    +0.000 A 
ATOM     33  C   UNL     1       5.767   4.087  14.536  0.00  0.00    +0.000 A 
ENDBRANCH  27  28
ENDBRANCH  26  27
ENDBRANCH   4  26
TORSDOF 5
ENDMDL
MODEL 7
REMARK VINA RESULT:      -8.0      3.017     11.886
REMARK  Name = 
REMARK  6 active torsions:
REMARK  status: ('A' for Active; 'I' for Inactive)
REMARK    1  A    between atoms: C_1  and  C_2
REMARK    2  A    between atoms: N_4  and  C_5
REMARK    3  A    between atoms: C_8  and  C_9
REMARK    4  A    between atoms: C_9  and  C_10
REMARK    5  A    between atoms: C_10  and  C_11
REMARK    6  A    between atoms: C_29  and  C_30
REMARK                            x       y       z     vdW  Elec       q    Type
REMARK                         _______ _______ _______ _____ _____    ______ ____
ROOT
ATOM      1  C   UNL     1      -1.817  12.374  20.728  0.00  0.00    +0.000 A 
ATOM      2  N   UNL     1      -1.141  13.212  21.546  0.00  0.00    +0.000 NA
ATOM      3  N   UNL     1      -1.698  14.364  22.041  0.00  0.00    +0.000 NA
ATOM      4  C   UNL     1      -2.946  14.726  21.691  0.00  0.00    +0.000 A 
ATOM      5  C   UNL     1      -3.710  13.934  20.812  0.00  0.00    +0.000 A 
ATOM      6  C   UNL     1      -5.011  14.292  20.366  0.00  0.00    +0.000 A 
ATOM      7  C   UNL     1      -5.780  13.457  19.554  0.00  0.00    +0.000 A 
ATOM      8  C   UNL     1      -5.283  12.220  19.194  0.00  0.00    +0.000 A 
ATOM      9  C   UNL     1      -4.016  11.843  19.630  0.00  0.00    +0.000 A 
ATOM     10  C   UNL     1      -3.156  12.701  20.372  0.00  0.00    +0.000 A 
ENDROOT
BRANCH   1  14
ATOM     11  C   UNL     1       1.449  12.050  18.590  0.00  0.00    +0.000 C 
ATOM     12  C   UNL     1       0.680  10.731  18.621  0.00  0.00    +0.000 C 
ATOM     13  C   UNL     1      -0.823  10.963  18.887  0.00  0.00    +0.000 C 
ATOM     14  N   UNL     1      -1.139  11.250  20.286  0.00  0.00    +0.000 N 
ATOM     15  C   UNL     1      -0.554  10.315  21.267  0.00  0.00    +0.000 C 
ATOM     16  C   UNL     1       0.948  10.059  21.024  0.00  0.00    +0.000 C 
ATOM     17  N   UNL     1       1.275   9.821  19.607  0.00  0.00    +0.000 N 
ATOM     18  C   UNL     1       1.857   8.637  19.212  0.00  0.00    +0.000 A 
ATOM     19  C   UNL     1       2.625   8.575  18.044  0.00  0.00    +0.000 A 
ATOM     20  C   UNL     1       3.236   7.382  17.656  0.00  0.00    +0.000 A 
ATOM     21  C   UNL     1       3.068   6.254  18.439  0.00  0.00    +0.000 A 
ATOM     22  C   UNL     1       2.291   6.379  19.582  0.00  0.00    +0.000 A 
ATOM     23  N   UNL     1       1.702   7.536  19.978  0.00  0.00    +0.000 NA
BRANCH  21  24
ATOM     24  C   UNL     1       3.669   5.007  18.096  0.00  0.00    +0.000 C 
ATOM     25  N   UNL     1       4.141   3.984  17.815  0.00  0.00    +0.000 NA
ENDBRANCH  21  24
ENDBRANCH   1  14
BRANCH   4  26
ATOM     26  C   UNL     1      -3.444  15.984  22.378  0.00  0.00    +0.000 C 
BRANCH  26  27
ATOM     27  C   UNL     1      -4.061  15.694  23.756  0.00  0.00    +0.000 C 
BRANCH  27  28
ATOM     28  C   UNL     1      -5.276  14.793  23.839  0.00  0.00    +0.000 A 
ATOM     29  C   UNL     1      -5.230  13.407  24.027  0.00  0.00    +0.000 A 
ATOM     30  C   UNL     1      -6.414  12.660  24.085  0.00  0.00    +0.000 A 
ATOM     31  C   UNL     1      -7.654  13.288  23.961  0.00  0.00    +0.000 A 
ATOM     32  C   UNL     1      -7.714  14.665  23.782  0.00  0.00    +0.000 A 
ATOM     33  C   UNL     1      -6.536  15.409  23.721  0.00  0.00    +0.000 A 
ENDBRANCH  27  28
ENDBRANCH  26  27
ENDBRANCH   4  26
TORSDOF 5
ENDMDL
MODEL 8
REMARK VINA RESULT:      -7.9      2.786     11.435
REMARK  Name = 
REMARK  6 active torsions:
REMARK  status: ('A' for Active; 'I' for Inactive)
REMARK    1  A    between atoms: C_1  and  C_2
REMARK    2  A    between atoms: N_4  and  C_5
REMARK    3  A    between atoms: C_8  and  C_9
REMARK    4  A    between atoms: C_9  and  C_10
REMARK    5  A    between atoms: C_10  and  C_11
REMARK    6  A    between atoms: C_29  and  C_30
REMARK                            x       y       z     vdW  Elec       q    Type
REMARK                         _______ _______ _______ _____ _____    ______ ____
ROOT
ATOM      1  C   UNL     1      -0.330  10.577  19.422  0.00  0.00    +0.000 A 
ATOM      2  N   UNL     1      -0.440  11.293  20.564  0.00  0.00    +0.000 NA
ATOM      3  N   UNL     1      -1.537  12.069  20.843  0.00  0.00    +0.000 NA
ATOM      4  C   UNL     1      -2.542  12.176  19.954  0.00  0.00    +0.000 A 
ATOM      5  C   UNL     1      -2.494  11.497  18.721  0.00  0.00    +0.000 A 
ATOM      6  C   UNL     1      -3.499  11.614  17.723  0.00  0.00    +0.000 A 
ATOM      7  C   UNL     1      -3.469  10.875  16.540  0.00  0.00    +0.000 A 
ATOM      8  C   UNL     1      -2.449   9.968  16.335  0.00  0.00    +0.000 A 
ATOM      9  C   UNL     1      -1.460   9.827  17.306  0.00  0.00    +0.000 A 
ATOM     10  C   UNL     1      -1.393  10.631  18.478  0.00  0.00    +0.000 A 
ENDROOT
BRANCH   1  14
ATOM     11  C   UNL     1       0.602   6.970  20.631  0.00  0.00    +0.000 C 
ATOM     12  C   UNL     1       1.849   7.751  20.220  0.00  0.00    +0.000 C 
ATOM     13  C   UNL     1       1.624   9.273  20.344  0.00  0.00    +0.000 C 
ATOM     14  N   UNL     1       0.833   9.845  19.254  0.00  0.00    +0.000 N 
ATOM     15  C   UNL     1       1.273   9.471  17.895  0.00  0.00    +0.000 C 
ATOM     16  C   UNL     1       1.512   7.954  17.742  0.00  0.00    +0.000 C 
ATOM     17  N   UNL     1       2.263   7.368  18.865  0.00  0.00    +0.000 N 
ATOM     18  C   UNL     1       3.470   6.739  18.649  0.00  0.00    +0.000 A 
ATOM     19  C   UNL     1       3.935   5.764  19.538  0.00  0.00    +0.000 A 
ATOM     20  C   UNL     1       5.145   5.109  19.307  0.00  0.00    +0.000 A 
ATOM     21  C   UNL     1       5.886   5.440  18.186  0.00  0.00    +0.000 A 
ATOM     22  C   UNL     1       5.372   6.417  17.346  0.00  0.00    +0.000 A 
ATOM     23  N   UNL     1       4.191   7.053  17.552  0.00  0.00    +0.000 NA
BRANCH  21  24
ATOM     24  C   UNL     1       7.128   4.803  17.894  0.00  0.00    +0.000 C 
ATOM     25  N   UNL     1       8.131   4.267  17.660  0.00  0.00    +0.000 NA
ENDBRANCH  21  24
ENDBRANCH   1  14
BRANCH   4  26
ATOM     26  C   UNL     1      -3.714  13.008  20.439  0.00  0.00    +0.000 C 
BRANCH  26  27
ATOM     27  C   UNL     1      -3.843  13.004  21.971  0.00  0.00    +0.000 C 
BRANCH  27  28
ATOM     28  C   UNL     1      -5.080  13.609  22.603  0.00  0.00    +0.000 A 
ATOM     29  C   UNL     1      -5.583  14.882  22.313  0.00  0.00    +0.000 A 
ATOM     30  C   UNL     1      -6.734  15.354  22.957  0.00  0.00    +0.000 A 
ATOM     31  C   UNL     1      -7.396  14.560  23.894  0.00  0.00    +0.000 A 
ATOM     32  C   UNL     1      -6.912  13.290  24.187  0.00  0.00    +0.000 A 
ATOM     33  C   UNL     1      -5.764  12.821  23.547  0.00  0.00    +0.000 A 
ENDBRANCH  27  28
ENDBRANCH  26  27
ENDBRANCH   4  26
TORSDOF 5
ENDMDL
MODEL 9
REMARK VINA RESULT:      -7.8      3.044     11.315
REMARK  Name = 
REMARK  6 active torsions:
REMARK  status: ('A' for Active; 'I' for Inactive)
REMARK    1  A    between atoms: C_1  and  C_2
REMARK    2  A    between atoms: N_4  and  C_5
REMARK    3  A    between atoms: C_8  and  C_9
REMARK    4  A    between atoms: C_9  and  C_10
REMARK    5  A    between atoms: C_10  and  C_11
REMARK    6  A    between atoms: C_29  and  C_30
REMARK                            x       y       z     vdW  Elec       q    Type
REMARK                         _______ _______ _______ _____ _____    ______ ____
ROOT
ATOM      1  C   UNL     1      -1.058  11.762  20.154  0.00  0.00    +0.000 A 
ATOM      2  N   UNL     1      -2.396  11.891  20.006  0.00  0.00    +0.000 NA
ATOM      3  N   UNL     1      -3.057  13.062  20.280  0.00  0.00    +0.000 NA
ATOM      4  C   UNL     1      -2.387  14.131  20.751  0.00  0.00    +0.000 A 
ATOM      5  C   UNL     1      -0.998  14.075  20.973  0.00  0.00    +0.000 A 
ATOM      6  C   UNL     1      -0.248  15.152  21.519  0.00  0.00    +0.000 A 
ATOM      7  C   UNL     1       1.139  15.102  21.662  0.00  0.00    +0.000 A 
ATOM      8  C   UNL     1       1.823  13.984  21.229  0.00  0.00    +0.000 A 
ATOM      9  C   UNL     1       1.110  12.921  20.679  0.00  0.00    +0.000 A 
ATOM     10  C   UNL     1      -0.310  12.885  20.608  0.00  0.00    +0.000 A 
ENDROOT
BRANCH   1  14
ATOM     11  C   UNL     1       2.174  10.820  18.150  0.00  0.00    +0.000 C 
ATOM     12  C   UNL     1       1.252   9.611  18.308  0.00  0.00    +0.000 C 
ATOM     13  C   UNL     1      -0.215  10.045  18.507  0.00  0.00    +0.000 C 
ATOM     14  N   UNL     1      -0.513  10.524  19.858  0.00  0.00    +0.000 N 
ATOM     15  C   UNL     1      -0.055   9.645  20.951  0.00  0.00    +0.000 C 
ATOM     16  C   UNL     1       1.409   9.188  20.776  0.00  0.00    +0.000 C 
ATOM     17  N   UNL     1       1.723   8.755  19.403  0.00  0.00    +0.000 N 
ATOM     18  C   UNL     1       2.165   7.475  19.156  0.00  0.00    +0.000 A 
ATOM     19  C   UNL     1       2.935   7.192  18.023  0.00  0.00    +0.000 A 
ATOM     20  C   UNL     1       3.404   5.900  17.786  0.00  0.00    +0.000 A 
ATOM     21  C   UNL     1       3.094   4.894  18.684  0.00  0.00    +0.000 A 
ATOM     22  C   UNL     1       2.323   5.238  19.786  0.00  0.00    +0.000 A 
ATOM     23  N   UNL     1       1.871   6.493  20.036  0.00  0.00    +0.000 NA
BRANCH  21  24
ATOM     24  C   UNL     1       3.547   3.556  18.498  0.00  0.00    +0.000 C 
ATOM     25  N   UNL     1       3.905   2.460  18.361  0.00  0.00    +0.000 NA
ENDBRANCH  21  24
ENDBRANCH   1  14
BRANCH   4  26
ATOM     26  C   UNL     1      -3.245  15.369  20.933  0.00  0.00    +0.000 C 
BRANCH  26  27
ATOM     27  C   UNL     1      -3.662  15.585  22.397  0.00  0.00    +0.000 C 
BRANCH  27  28
ATOM     28  C   UNL     1      -4.290  14.434  23.155  0.00  0.00    +0.000 A 
ATOM     29  C   UNL     1      -3.632  13.656  24.114  0.00  0.00    +0.000 A 
ATOM     30  C   UNL     1      -4.301  12.608  24.759  0.00  0.00    +0.000 A 
ATOM     31  C   UNL     1      -5.634  12.327  24.456  0.00  0.00    +0.000 A 
ATOM     32  C   UNL     1      -6.302  13.096  23.510  0.00  0.00    +0.000 A 
ATOM     33  C   UNL     1      -5.635  14.138  22.866  0.00  0.00    +0.000 A 
ENDBRANCH  27  28
ENDBRANCH  26  27
ENDBRANCH   4  26
TORSDOF 5
ENDMDL
