MODEL 1
REMARK VINA RESULT:      -7.6      0.000      0.000
REMARK  Name = 
REMARK  9 active torsions:
REMARK  status: ('A' for Active; 'I' for Inactive)
REMARK    1  A    between atoms: C_1  and  C_2
REMARK    2  A    between atoms: C_2  and  C_3
REMARK    3  A    between atoms: C_3  and  C_4
REMARK    4  A    between atoms: C_4  and  C_6
REMARK    5  A    between atoms: C_10  and  C_11
REMARK    6  A    between atoms: C_11  and  O_13
REMARK    7  A    between atoms: C_18  and  N_19
REMARK    8  A    between atoms: N_19  and  C_20
REMARK    9  A    between atoms: C_25  and  C_26
REMARK                            x       y       z     vdW  Elec       q    Type
REMARK                         _______ _______ _______ _____ _____    ______ ____
ROOT
ATOM      1  C   UNL     1       3.314   7.485  17.933  0.00  0.00    +0.000 A 
ATOM      2  C   UNL     1       2.844   8.619  17.295  0.00  0.00    +0.000 A 
ATOM      3  N   UNL     1       1.877   9.433  17.775  0.00  0.00    +0.000 NA
ATOM      4  C   UNL     1       1.337   9.172  18.984  0.00  0.00    +0.000 A 
ATOM      5  C   UNL     1       0.313   9.996  19.479  0.00  0.00    +0.000 A 
ATOM      6  C   UNL     1      -0.275   9.755  20.731  0.00  0.00    +0.000 A 
ATOM      7  C   UNL     1       0.201   8.735  21.532  0.00  0.00    +0.000 A 
ATOM      8  C   UNL     1       1.243   7.938  21.069  0.00  0.00    +0.000 A 
ATOM      9  C   UNL     1       1.784   8.077  19.767  0.00  0.00    +0.000 A 
ATOM     10  C   UNL     1       2.767   7.188  19.204  0.00  0.00    +0.000 A 
ENDROOT
BRANCH   1  11
ATOM     11  C   UNL     1       4.352   6.626  17.269  0.00  0.00    +0.000 C 
ATOM     12  O   UNL     1       4.043   5.498  16.888  0.00  0.00    +0.000 OA
BRANCH  11  13
ATOM     13  C   UNL     1       5.780   7.146  17.135  0.00  0.00    +0.000 C 
BRANCH  13  15
ATOM     14  C   UNL     1       7.654   6.233  18.537  0.00  0.00    +0.000 C 
ATOM     15  C   UNL     1       6.830   6.046  17.270  0.00  0.00    +0.000 C 
ENDBRANCH  13  15
ENDBRANCH  11  13
ENDBRANCH   1  11
BRANCH   5  16
ATOM     16  C   UNL     1      -0.215  11.174  18.720  0.00  0.00    +0.000 C 
ATOM     17  O   UNL     1      -0.052  12.320  19.112  0.00  0.00    +0.000 OA
BRANCH  16  18
ATOM     18  O   UNL     1      -0.861  10.902  17.569  0.00  0.00    +0.000 OA
ATOM     19  H   UNL     1      -1.575  11.551  17.378  0.00  0.00    +0.000 HD
ENDBRANCH  16  18
ENDBRANCH   5  16
BRANCH  10  20
ATOM     20  N   UNL     1       3.201   6.015  19.901  0.00  0.00    +0.000 N 
ATOM     21  H   UNL     1       4.229   5.939  19.891  0.00  0.00    +0.000 HD
BRANCH  20  22
ATOM     22  C   UNL     1       2.649   4.705  19.939  0.00  0.00    +0.000 A 
ATOM     23  C   UNL     1       1.297   4.473  20.233  0.00  0.00    +0.000 A 
ATOM     24  C   UNL     1       0.790   3.177  20.349  0.00  0.00    +0.000 A 
ATOM     25  C   UNL     1       1.624   2.085  20.141  0.00  0.00    +0.000 A 
ATOM     26  C   UNL     1       2.965   2.291  19.823  0.00  0.00    +0.000 A 
ATOM     27  C   UNL     1       3.492   3.590  19.725  0.00  0.00    +0.000 A 
ATOM     28  C   UNL     1       4.958   3.756  19.425  0.00  0.00    +0.000 C 
ENDBRANCH  20  22
ENDBRANCH  10  20
TORSDOF 7
ENDMDL
MODEL 2
REMARK VINA RESULT:      -7.4      3.970      7.070
REMARK  Name = 
REMARK  9 active torsions:
REMARK  status: ('A' for Active; 'I' for Inactive)
REMARK    1  A    between atoms: C_1  and  C_2
REMARK    2  A    between atoms: C_2  and  C_3
REMARK    3  A    between atoms: C_3  and  C_4
REMARK    4  A    between atoms: C_4  and  C_6
REMARK    5  A    between atoms: C_10  and  C_11
REMARK    6  A    between atoms: C_11  and  O_13
REMARK    7  A    between atoms: C_18  and  N_19
REMARK    8  A    between atoms: N_19  and  C_20
REMARK    9  A    between atoms: C_25  and  C_26
REMARK                            x       y       z     vdW  Elec       q    Type
REMARK                         _______ _______ _______ _____ _____    ______ ____
ROOT
ATOM      1  C   UNL     1       6.204   5.071  17.266  0.00  0.00    +0.000 A 
ATOM      2  C   UNL     1       7.025   6.004  16.658  0.00  0.00    +0.000 A 
ATOM      3  N   UNL     1       7.399   5.974  15.359  0.00  0.00    +0.000 NA
ATOM      4  C   UNL     1       6.922   4.999  14.557  0.00  0.00    +0.000 A 
ATOM      5  C   UNL     1       7.328   4.944  13.214  0.00  0.00    +0.000 A 
ATOM      6  C   UNL     1       6.854   3.943  12.351  0.00  0.00    +0.000 A 
ATOM      7  C   UNL     1       5.918   3.032  12.799  0.00  0.00    +0.000 A 
ATOM      8  C   UNL     1       5.478   3.102  14.117  0.00  0.00    +0.000 A 
ATOM      9  C   UNL     1       6.017   4.024  15.048  0.00  0.00    +0.000 A 
ATOM     10  C   UNL     1       5.686   4.039  16.449  0.00  0.00    +0.000 A 
ENDROOT
BRANCH   1  11
ATOM     11  C   UNL     1       5.906   5.179  18.735  0.00  0.00    +0.000 C 
ATOM     12  O   UNL     1       6.646   4.615  19.539  0.00  0.00    +0.000 OA
BRANCH  11  13
ATOM     13  C   UNL     1       4.662   5.933  19.193  0.00  0.00    +0.000 C 
BRANCH  13  15
ATOM     14  C   UNL     1       2.632   7.224  18.470  0.00  0.00    +0.000 C 
ATOM     15  C   UNL     1       4.037   6.781  18.088  0.00  0.00    +0.000 C 
ENDBRANCH  13  15
ENDBRANCH  11  13
ENDBRANCH   1  11
BRANCH   5  16
ATOM     16  C   UNL     1       8.276   5.935  12.615  0.00  0.00    +0.000 C 
ATOM     17  O   UNL     1       8.024   6.523  11.573  0.00  0.00    +0.000 OA
BRANCH  16  18
ATOM     18  O   UNL     1       9.416   6.161  13.299  0.00  0.00    +0.000 OA
ATOM     19  H   UNL     1      10.216   5.907  12.787  0.00  0.00    +0.000 HD
ENDBRANCH  16  18
ENDBRANCH   5  16
BRANCH  10  20
ATOM     20  N   UNL     1       4.847   3.034  17.030  0.00  0.00    +0.000 N 
ATOM     21  H   UNL     1       4.886   2.160  16.485  0.00  0.00    +0.000 HD
BRANCH  20  22
ATOM     22  C   UNL     1       3.563   3.136  17.631  0.00  0.00    +0.000 A 
ATOM     23  C   UNL     1       2.494   3.792  17.001  0.00  0.00    +0.000 A 
ATOM     24  C   UNL     1       1.264   3.958  17.641  0.00  0.00    +0.000 A 
ATOM     25  C   UNL     1       1.070   3.441  18.916  0.00  0.00    +0.000 A 
ATOM     26  C   UNL     1       2.109   2.763  19.552  0.00  0.00    +0.000 A 
ATOM     27  C   UNL     1       3.358   2.609  18.927  0.00  0.00    +0.000 A 
ATOM     28  C   UNL     1       4.461   1.909  19.677  0.00  0.00    +0.000 C 
ENDBRANCH  20  22
ENDBRANCH  10  20
TORSDOF 7
ENDMDL
MODEL 3
REMARK VINA RESULT:      -7.4      1.840      4.538
REMARK  Name = 
REMARK  9 active torsions:
REMARK  status: ('A' for Active; 'I' for Inactive)
REMARK    1  A    between atoms: C_1  and  C_2
REMARK    2  A    between atoms: C_2  and  C_3
REMARK    3  A    between atoms: C_3  and  C_4
REMARK    4  A    between atoms: C_4  and  C_6
REMARK    5  A    between atoms: C_10  and  C_11
REMARK    6  A    between atoms: C_11  and  O_13
REMARK    7  A    between atoms: C_18  and  N_19
REMARK    8  A    between atoms: N_19  and  C_20
REMARK    9  A    between atoms: C_25  and  C_26
REMARK                            x       y       z     vdW  Elec       q    Type
REMARK                         _______ _______ _______ _____ _____    ______ ____
ROOT
ATOM      1  C   UNL     1       2.459   5.638  19.720  0.00  0.00    +0.000 A 
ATOM      2  C   UNL     1       1.780   6.111  20.828  0.00  0.00    +0.000 A 
ATOM      3  N   UNL     1       1.337   7.379  20.981  0.00  0.00    +0.000 NA
ATOM      4  C   UNL     1       1.518   8.266  19.980  0.00  0.00    +0.000 A 
ATOM      5  C   UNL     1       1.086   9.592  20.142  0.00  0.00    +0.000 A 
ATOM      6  C   UNL     1       1.260  10.544  19.124  0.00  0.00    +0.000 A 
ATOM      7  C   UNL     1       1.799  10.165  17.910  0.00  0.00    +0.000 A 
ATOM      8  C   UNL     1       2.193   8.844  17.725  0.00  0.00    +0.000 A 
ATOM      9  C   UNL     1       2.140   7.883  18.765  0.00  0.00    +0.000 A 
ATOM     10  C   UNL     1       2.661   6.546  18.653  0.00  0.00    +0.000 A 
ENDROOT
BRANCH   1  11
ATOM     11  C   UNL     1       2.954   4.220  19.691  0.00  0.00    +0.000 C 
ATOM     12  O   UNL     1       4.134   3.992  19.951  0.00  0.00    +0.000 OA
BRANCH  11  13
ATOM     13  C   UNL     1       1.999   3.103  19.284  0.00  0.00    +0.000 C 
BRANCH  13  15
ATOM     14  C   UNL     1       1.534   2.545  21.688  0.00  0.00    +0.000 C 
ATOM     15  C   UNL     1       0.917   2.832  20.327  0.00  0.00    +0.000 C 
ENDBRANCH  13  15
ENDBRANCH  11  13
ENDBRANCH   1  11
BRANCH   5  16
ATOM     16  C   UNL     1       0.418  10.079  21.390  0.00  0.00    +0.000 C 
ATOM     17  O   UNL     1      -0.684  10.608  21.369  0.00  0.00    +0.000 OA
BRANCH  16  18
ATOM     18  O   UNL     1       1.088   9.881  22.543  0.00  0.00    +0.000 OA
ATOM     19  H   UNL     1       1.990  10.273  22.523  0.00  0.00    +0.000 HD
ENDBRANCH  16  18
ENDBRANCH   5  16
BRANCH  10  20
ATOM     20  N   UNL     1       3.377   6.117  17.489  0.00  0.00    +0.000 N 
ATOM     21  H   UNL     1       2.893   5.333  17.027  0.00  0.00    +0.000 HD
BRANCH  20  22
ATOM     22  C   UNL     1       4.774   5.988  17.258  0.00  0.00    +0.000 A 
ATOM     23  C   UNL     1       5.670   7.040  17.497  0.00  0.00    +0.000 A 
ATOM     24  C   UNL     1       7.026   6.925  17.185  0.00  0.00    +0.000 A 
ATOM     25  C   UNL     1       7.518   5.738  16.656  0.00  0.00    +0.000 A 
ATOM     26  C   UNL     1       6.651   4.669  16.434  0.00  0.00    +0.000 A 
ATOM     27  C   UNL     1       5.281   4.781  16.723  0.00  0.00    +0.000 A 
ATOM     28  C   UNL     1       4.380   3.613  16.420  0.00  0.00    +0.000 C 
ENDBRANCH  20  22
ENDBRANCH  10  20
TORSDOF 7
ENDMDL
MODEL 4
REMARK VINA RESULT:      -7.3      1.892      4.428
REMARK  Name = 
REMARK  9 active torsions:
REMARK  status: ('A' for Active; 'I' for Inactive)
REMARK    1  A    between atoms: C_1  and  C_2
REMARK    2  A    between atoms: C_2  and  C_3
REMARK    3  A    between atoms: C_3  and  C_4
REMARK    4  A    between atoms: C_4  and  C_6
REMARK    5  A    between atoms: C_10  and  C_11
REMARK    6  A    between atoms: C_11  and  O_13
REMARK    7  A    between atoms: C_18  and  N_19
REMARK    8  A    between atoms: N_19  and  C_20
REMARK    9  A    between atoms: C_25  and  C_26
REMARK                            x       y       z     vdW  Elec       q    Type
REMARK                         _______ _______ _______ _____ _____    ______ ____
ROOT
ATOM      1  C   UNL     1       2.261   5.185  20.099  0.00  0.00    +0.000 A 
ATOM      2  C   UNL     1       1.450   5.843  21.007  0.00  0.00    +0.000 A 
ATOM      3  N   UNL     1       1.119   7.153  20.942  0.00  0.00    +0.000 NA
ATOM      4  C   UNL     1       1.562   7.894  19.904  0.00  0.00    +0.000 A 
ATOM      5  C   UNL     1       1.247   9.260  19.844  0.00  0.00    +0.000 A 
ATOM      6  C   UNL     1       1.691  10.064  18.782  0.00  0.00    +0.000 A 
ATOM      7  C   UNL     1       2.393   9.498  17.735  0.00  0.00    +0.000 A 
ATOM      8  C   UNL     1       2.676   8.136  17.765  0.00  0.00    +0.000 A 
ATOM      9  C   UNL     1       2.344   7.316  18.872  0.00  0.00    +0.000 A 
ATOM     10  C   UNL     1       2.738   5.937  18.999  0.00  0.00    +0.000 A 
ENDROOT
BRANCH   1  11
ATOM     11  C   UNL     1       2.605   3.739  20.311  0.00  0.00    +0.000 C 
ATOM     12  O   UNL     1       3.764   3.433  20.589  0.00  0.00    +0.000 OA
BRANCH  11  13
ATOM     13  C   UNL     1       1.527   2.677  20.120  0.00  0.00    +0.000 C 
BRANCH  13  15
ATOM     14  C   UNL     1       2.312   2.164  17.789  0.00  0.00    +0.000 C 
ATOM     15  C   UNL     1       1.111   2.506  18.661  0.00  0.00    +0.000 C 
ENDBRANCH  13  15
ENDBRANCH  11  13
ENDBRANCH   1  11
BRANCH   5  16
ATOM     16  C   UNL     1       0.424   9.948  20.888  0.00  0.00    +0.000 C 
ATOM     17  O   UNL     1      -0.691  10.388  20.647  0.00  0.00    +0.000 OA
BRANCH  16  18
ATOM     18  O   UNL     1       0.970  10.035  22.118  0.00  0.00    +0.000 OA
ATOM     19  H   UNL     1       0.920   9.185  22.611  0.00  0.00    +0.000 HD
ENDBRANCH  16  18
ENDBRANCH   5  16
BRANCH  10  20
ATOM     20  N   UNL     1       3.598   5.313  18.039  0.00  0.00    +0.000 N 
ATOM     21  H   UNL     1       3.171   4.453  17.665  0.00  0.00    +0.000 HD
BRANCH  20  22
ATOM     22  C   UNL     1       5.012   5.160  18.026  0.00  0.00    +0.000 A 
ATOM     23  C   UNL     1       5.815   5.557  19.107  0.00  0.00    +0.000 A 
ATOM     24  C   UNL     1       7.207   5.478  19.044  0.00  0.00    +0.000 A 
ATOM     25  C   UNL     1       7.823   4.969  17.907  0.00  0.00    +0.000 A 
ATOM     26  C   UNL     1       7.045   4.544  16.832  0.00  0.00    +0.000 A 
ATOM     27  C   UNL     1       5.644   4.639  16.874  0.00  0.00    +0.000 A 
ATOM     28  C   UNL     1       4.852   4.211  15.666  0.00  0.00    +0.000 C 
ENDBRANCH  20  22
ENDBRANCH  10  20
TORSDOF 7
ENDMDL
MODEL 5
REMARK VINA RESULT:      -7.3      0.919      1.221
REMARK  Name = 
REMARK  9 active torsions:
REMARK  status: ('A' for Active; 'I' for Inactive)
REMARK    1  A    between atoms: C_1  and  C_2
REMARK    2  A    between atoms: C_2  and  C_3
REMARK    3  A    between atoms: C_3  and  C_4
REMARK    4  A    between atoms: C_4  and  C_6
REMARK    5  A    between atoms: C_10  and  C_11
REMARK    6  A    between atoms: C_11  and  O_13
REMARK    7  A    between atoms: C_18  and  N_19
REMARK    8  A    between atoms: N_19  and  C_20
REMARK    9  A    between atoms: C_25  and  C_26
REMARK                            x       y       z     vdW  Elec       q    Type
REMARK                         _______ _______ _______ _____ _____    ______ ____
ROOT
ATOM      1  C   UNL     1       3.478   7.257  17.805  0.00  0.00    +0.000 A 
ATOM      2  C   UNL     1       3.049   8.427  17.206  0.00  0.00    +0.000 A 
ATOM      3  N   UNL     1       2.103   9.252  17.708  0.00  0.00    +0.000 NA
ATOM      4  C   UNL     1       1.544   8.964  18.903  0.00  0.00    +0.000 A 
ATOM      5  C   UNL     1       0.542   9.801  19.419  0.00  0.00    +0.000 A 
ATOM      6  C   UNL     1      -0.064   9.532  20.657  0.00  0.00    +0.000 A 
ATOM      7  C   UNL     1       0.373   8.470  21.423  0.00  0.00    +0.000 A 
ATOM      8  C   UNL     1       1.394   7.658  20.939  0.00  0.00    +0.000 A 
ATOM      9  C   UNL     1       1.951   7.829  19.648  0.00  0.00    +0.000 A 
ATOM     10  C   UNL     1       2.911   6.931  19.060  0.00  0.00    +0.000 A 
ENDROOT
BRANCH   1  11
ATOM     11  C   UNL     1       4.496   6.391  17.118  0.00  0.00    +0.000 C 
ATOM     12  O   UNL     1       4.281   5.185  17.009  0.00  0.00    +0.000 OA
BRANCH  11  13
ATOM     13  C   UNL     1       5.798   7.014  16.626  0.00  0.00    +0.000 C 
BRANCH  13  15
ATOM     14  C   UNL     1       7.829   8.061  17.671  0.00  0.00    +0.000 C 
ATOM     15  C   UNL     1       6.960   6.813  17.596  0.00  0.00    +0.000 C 
ENDBRANCH  13  15
ENDBRANCH  11  13
ENDBRANCH   1  11
BRANCH   5  16
ATOM     16  C   UNL     1       0.057  11.021  18.701  0.00  0.00    +0.000 C 
ATOM     17  O   UNL     1       0.349  12.148  19.072  0.00  0.00    +0.000 OA
BRANCH  16  18
ATOM     18  O   UNL     1      -0.701  10.809  17.606  0.00  0.00    +0.000 OA
ATOM     19  H   UNL     1      -1.464  10.214  17.789  0.00  0.00    +0.000 HD
ENDBRANCH  16  18
ENDBRANCH   5  16
BRANCH  10  20
ATOM     20  N   UNL     1       3.303   5.720  19.717  0.00  0.00    +0.000 N 
ATOM     21  H   UNL     1       4.174   5.346  19.313  0.00  0.00    +0.000 HD
BRANCH  20  22
ATOM     22  C   UNL     1       2.521   4.632  20.193  0.00  0.00    +0.000 A 
ATOM     23  C   UNL     1       2.632   4.152  21.507  0.00  0.00    +0.000 A 
ATOM     24  C   UNL     1       1.919   3.030  21.934  0.00  0.00    +0.000 A 
ATOM     25  C   UNL     1       1.054   2.384  21.059  0.00  0.00    +0.000 A 
ATOM     26  C   UNL     1       0.907   2.858  19.757  0.00  0.00    +0.000 A 
ATOM     27  C   UNL     1       1.636   3.973  19.309  0.00  0.00    +0.000 A 
ATOM     28  C   UNL     1       1.476   4.416  17.879  0.00  0.00    +0.000 C 
ENDBRANCH  20  22
ENDBRANCH  10  20
TORSDOF 7
ENDMDL
MODEL 6
REMARK VINA RESULT:      -7.2      2.044      4.723
REMARK  Name = 
REMARK  9 active torsions:
REMARK  status: ('A' for Active; 'I' for Inactive)
REMARK    1  A    between atoms: C_1  and  C_2
REMARK    2  A    between atoms: C_2  and  C_3
REMARK    3  A    between atoms: C_3  and  C_4
REMARK    4  A    between atoms: C_4  and  C_6
REMARK    5  A    between atoms: C_10  and  C_11
REMARK    6  A    between atoms: C_11  and  O_13
REMARK    7  A    between atoms: C_18  and  N_19
REMARK    8  A    between atoms: N_19  and  C_20
REMARK    9  A    between atoms: C_25  and  C_26
REMARK                            x       y       z     vdW  Elec       q    Type
REMARK                         _______ _______ _______ _____ _____    ______ ____
ROOT
ATOM      1  C   UNL     1       3.029   4.923  19.709  0.00  0.00    +0.000 A 
ATOM      2  C   UNL     1       2.355   5.220  20.880  0.00  0.00    +0.000 A 
ATOM      3  N   UNL     1       1.734   6.392  21.140  0.00  0.00    +0.000 NA
ATOM      4  C   UNL     1       1.717   7.353  20.192  0.00  0.00    +0.000 A 
ATOM      5  C   UNL     1       1.099   8.584  20.463  0.00  0.00    +0.000 A 
ATOM      6  C   UNL     1       1.063   9.608  19.503  0.00  0.00    +0.000 A 
ATOM      7  C   UNL     1       1.579   9.389  18.241  0.00  0.00    +0.000 A 
ATOM      8  C   UNL     1       2.158   8.158  17.948  0.00  0.00    +0.000 A 
ATOM      9  C   UNL     1       2.314   7.142  18.923  0.00  0.00    +0.000 A 
ATOM     10  C   UNL     1       3.026   5.911  18.696  0.00  0.00    +0.000 A 
ENDROOT
BRANCH   1  11
ATOM     11  C   UNL     1       3.731   3.603  19.562  0.00  0.00    +0.000 C 
ATOM     12  O   UNL     1       4.961   3.571  19.602  0.00  0.00    +0.000 OA
BRANCH  11  13
ATOM     13  C   UNL     1       2.911   2.344  19.306  0.00  0.00    +0.000 C 
BRANCH  13  15
ATOM     14  C   UNL     1       0.461   2.511  18.775  0.00  0.00    +0.000 C 
ATOM     15  C   UNL     1       1.871   2.523  18.202  0.00  0.00    +0.000 C 
ENDBRANCH  13  15
ENDBRANCH  11  13
ENDBRANCH   1  11
BRANCH   5  16
ATOM     16  C   UNL     1       0.441   8.888  21.773  0.00  0.00    +0.000 C 
ATOM     17  O   UNL     1       0.925   9.677  22.571  0.00  0.00    +0.000 OA
BRANCH  16  18
ATOM     18  O   UNL     1      -0.728   8.262  22.014  0.00  0.00    +0.000 OA
ATOM     19  H   UNL     1      -1.238   8.686  22.741  0.00  0.00    +0.000 HD
ENDBRANCH  16  18
ENDBRANCH   5  16
BRANCH  10  20
ATOM     20  N   UNL     1       3.726   5.667  17.471  0.00  0.00    +0.000 N 
ATOM     21  H   UNL     1       3.356   4.832  16.995  0.00  0.00    +0.000 HD
BRANCH  20  22
ATOM     22  C   UNL     1       5.106   5.795  17.154  0.00  0.00    +0.000 A 
ATOM     23  C   UNL     1       5.849   6.934  17.502  0.00  0.00    +0.000 A 
ATOM     24  C   UNL     1       7.181   7.080  17.109  0.00  0.00    +0.000 A 
ATOM     25  C   UNL     1       7.806   6.072  16.386  0.00  0.00    +0.000 A 
ATOM     26  C   UNL     1       7.096   4.920  16.051  0.00  0.00    +0.000 A 
ATOM     27  C   UNL     1       5.749   4.771  16.421  0.00  0.00    +0.000 A 
ATOM     28  C   UNL     1       5.014   3.528  15.994  0.00  0.00    +0.000 C 
ENDBRANCH  20  22
ENDBRANCH  10  20
TORSDOF 7
ENDMDL
MODEL 7
REMARK VINA RESULT:      -7.2      1.212      1.520
REMARK  Name = 
REMARK  9 active torsions:
REMARK  status: ('A' for Active; 'I' for Inactive)
REMARK    1  A    between atoms: C_1  and  C_2
REMARK    2  A    between atoms: C_2  and  C_3
REMARK    3  A    between atoms: C_3  and  C_4
REMARK    4  A    between atoms: C_4  and  C_6
REMARK    5  A    between atoms: C_10  and  C_11
REMARK    6  A    between atoms: C_11  and  O_13
REMARK    7  A    between atoms: C_18  and  N_19
REMARK    8  A    between atoms: N_19  and  C_20
REMARK    9  A    between atoms: C_25  and  C_26
REMARK                            x       y       z     vdW  Elec       q    Type
REMARK                         _______ _______ _______ _____ _____    ______ ____
ROOT
ATOM      1  C   UNL     1       3.499   7.381  18.055  0.00  0.00    +0.000 A 
ATOM      2  C   UNL     1       3.091   8.541  17.420  0.00  0.00    +0.000 A 
ATOM      3  N   UNL     1       2.097   9.350  17.851  0.00  0.00    +0.000 NA
ATOM      4  C   UNL     1       1.463   9.057  19.006  0.00  0.00    +0.000 A 
ATOM      5  C   UNL     1       0.411   9.876  19.447  0.00  0.00    +0.000 A 
ATOM      6  C   UNL     1      -0.274   9.602  20.641  0.00  0.00    +0.000 A 
ATOM      7  C   UNL     1       0.129   8.552  21.442  0.00  0.00    +0.000 A 
ATOM      8  C   UNL     1       1.196   7.757  21.035  0.00  0.00    +0.000 A 
ATOM      9  C   UNL     1       1.838   7.933  19.784  0.00  0.00    +0.000 A 
ATOM     10  C   UNL     1       2.853   7.050  19.269  0.00  0.00    +0.000 A 
ENDROOT
BRANCH   1  11
ATOM     11  C   UNL     1       4.578   6.532  17.445  0.00  0.00    +0.000 C 
ATOM     12  O   UNL     1       5.284   5.842  18.179  0.00  0.00    +0.000 OA
BRANCH  11  13
ATOM     13  C   UNL     1       4.815   6.590  15.940  0.00  0.00    +0.000 C 
BRANCH  13  15
ATOM     14  C   UNL     1       5.342   4.358  14.913  0.00  0.00    +0.000 C 
ATOM     15  C   UNL     1       5.923   5.649  15.473  0.00  0.00    +0.000 C 
ENDBRANCH  13  15
ENDBRANCH  11  13
ENDBRANCH   1  11
BRANCH   5  16
ATOM     16  C   UNL     1      -0.045  11.084  18.689  0.00  0.00    +0.000 C 
ATOM     17  O   UNL     1       0.204  12.218  19.070  0.00  0.00    +0.000 OA
BRANCH  16  18
ATOM     18  O   UNL     1      -0.728  10.852  17.550  0.00  0.00    +0.000 OA
ATOM     19  H   UNL     1      -1.277  10.037  17.602  0.00  0.00    +0.000 HD
ENDBRANCH  16  18
ENDBRANCH   5  16
BRANCH  10  20
ATOM     20  N   UNL     1       3.221   5.850  19.959  0.00  0.00    +0.000 N 
ATOM     21  H   UNL     1       4.188   5.576  19.733  0.00  0.00    +0.000 HD
BRANCH  20  22
ATOM     22  C   UNL     1       2.469   4.675  20.234  0.00  0.00    +0.000 A 
ATOM     23  C   UNL     1       2.412   4.110  21.517  0.00  0.00    +0.000 A 
ATOM     24  C   UNL     1       1.739   2.909  21.753  0.00  0.00    +0.000 A 
ATOM     25  C   UNL     1       1.081   2.267  20.711  0.00  0.00    +0.000 A 
ATOM     26  C   UNL     1       1.102   2.823  19.433  0.00  0.00    +0.000 A 
ATOM     27  C   UNL     1       1.794   4.019  19.179  0.00  0.00    +0.000 A 
ATOM     28  C   UNL     1       1.826   4.553  17.771  0.00  0.00    +0.000 C 
ENDBRANCH  20  22
ENDBRANCH  10  20
TORSDOF 7
ENDMDL
MODEL 8
REMARK VINA RESULT:      -7.2      1.851      4.376
REMARK  Name = 
REMARK  9 active torsions:
REMARK  status: ('A' for Active; 'I' for Inactive)
REMARK    1  A    between atoms: C_1  and  C_2
REMARK    2  A    between atoms: C_2  and  C_3
REMARK    3  A    between atoms: C_3  and  C_4
REMARK    4  A    between atoms: C_4  and  C_6
REMARK    5  A    between atoms: C_10  and  C_11
REMARK    6  A    between atoms: C_11  and  O_13
REMARK    7  A    between atoms: C_18  and  N_19
REMARK    8  A    between atoms: N_19  and  C_20
REMARK    9  A    between atoms: C_25  and  C_26
REMARK                            x       y       z     vdW  Elec       q    Type
REMARK                         _______ _______ _______ _____ _____    ______ ____
ROOT
ATOM      1  C   UNL     1       1.978   6.225  20.233  0.00  0.00    +0.000 A 
ATOM      2  C   UNL     1       1.405   6.959  21.256  0.00  0.00    +0.000 A 
ATOM      3  N   UNL     1       1.117   8.278  21.194  0.00  0.00    +0.000 NA
ATOM      4  C   UNL     1       1.356   8.952  20.049  0.00  0.00    +0.000 A 
ATOM      5  C   UNL     1       1.085  10.328  19.984  0.00  0.00    +0.000 A 
ATOM      6  C   UNL     1       1.323  11.063  18.811  0.00  0.00    +0.000 A 
ATOM      7  C   UNL     1       1.764  10.419  17.672  0.00  0.00    +0.000 A 
ATOM      8  C   UNL     1       1.996   9.048  17.712  0.00  0.00    +0.000 A 
ATOM      9  C   UNL     1       1.877   8.294  18.906  0.00  0.00    +0.000 A 
ATOM     10  C   UNL     1       2.237   6.905  19.019  0.00  0.00    +0.000 A 
ENDROOT
BRANCH   1  11
ATOM     11  C   UNL     1       2.305   4.774  20.443  0.00  0.00    +0.000 C 
ATOM     12  O   UNL     1       3.481   4.414  20.409  0.00  0.00    +0.000 OA
BRANCH  11  13
ATOM     13  C   UNL     1       1.173   3.771  20.635  0.00  0.00    +0.000 C 
BRANCH  13  15
ATOM     14  C   UNL     1       0.734   2.265  18.672  0.00  0.00    +0.000 C 
ATOM     15  C   UNL     1       1.464   2.413  20.000  0.00  0.00    +0.000 C 
ENDBRANCH  13  15
ENDBRANCH  11  13
ENDBRANCH   1  11
BRANCH   5  16
ATOM     16  C   UNL     1       0.530  11.099  21.141  0.00  0.00    +0.000 C 
ATOM     17  O   UNL     1       1.019  12.158  21.506  0.00  0.00    +0.000 OA
BRANCH  16  18
ATOM     18  O   UNL     1      -0.554  10.572  21.745  0.00  0.00    +0.000 OA
ATOM     19  H   UNL     1      -0.315   9.897  22.420  0.00  0.00    +0.000 HD
ENDBRANCH  16  18
ENDBRANCH   5  16
BRANCH  10  20
ATOM     20  N   UNL     1       2.849   6.199  17.933  0.00  0.00    +0.000 N 
ATOM     21  H   UNL     1       2.348   5.320  17.736  0.00  0.00    +0.000 HD
BRANCH  20  22
ATOM     22  C   UNL     1       4.220   6.025  17.600  0.00  0.00    +0.000 A 
ATOM     23  C   UNL     1       5.140   7.083  17.650  0.00  0.00    +0.000 A 
ATOM     24  C   UNL     1       6.464   6.916  17.239  0.00  0.00    +0.000 A 
ATOM     25  C   UNL     1       6.901   5.672  16.798  0.00  0.00    +0.000 A 
ATOM     26  C   UNL     1       6.012   4.600  16.764  0.00  0.00    +0.000 A 
ATOM     27  C   UNL     1       4.672   4.762  17.155  0.00  0.00    +0.000 A 
ATOM     28  C   UNL     1       3.741   3.582  17.054  0.00  0.00    +0.000 C 
ENDBRANCH  20  22
ENDBRANCH  10  20
TORSDOF 7
ENDMDL
MODEL 9
REMARK VINA RESULT:      -7.0      1.043      1.356
REMARK  Name = 
REMARK  9 active torsions:
REMARK  status: ('A' for Active; 'I' for Inactive)
REMARK    1  A    between atoms: C_1  and  C_2
REMARK    2  A    between atoms: C_2  and  C_3
REMARK    3  A    between atoms: C_3  and  C_4
REMARK    4  A    between atoms: C_4  and  C_6
REMARK    5  A    between atoms: C_10  and  C_11
REMARK    6  A    between atoms: C_11  and  O_13
REMARK    7  A    between atoms: C_18  and  N_19
REMARK    8  A    between atoms: N_19  and  C_20
REMARK    9  A    between atoms: C_25  and  C_26
REMARK                            x       y       z     vdW  Elec       q    Type
REMARK                         _______ _______ _______ _____ _____    ______ ____
ROOT
ATOM      1  C   UNL     1       3.426   7.349  18.059  0.00  0.00    +0.000 A 
ATOM      2  C   UNL     1       3.042   8.516  17.422  0.00  0.00    +0.000 A 
ATOM      3  N   UNL     1       2.076   9.355  17.859  0.00  0.00    +0.000 NA
ATOM      4  C   UNL     1       1.446   9.085  19.022  0.00  0.00    +0.000 A 
ATOM      5  C   UNL     1       0.423   9.936  19.470  0.00  0.00    +0.000 A 
ATOM      6  C   UNL     1      -0.257   9.687  20.673  0.00  0.00    +0.000 A 
ATOM      7  C   UNL     1       0.126   8.630  21.476  0.00  0.00    +0.000 A 
ATOM      8  C   UNL     1       1.167   7.805  21.062  0.00  0.00    +0.000 A 
ATOM      9  C   UNL     1       1.799   7.956  19.803  0.00  0.00    +0.000 A 
ATOM     10  C   UNL     1       2.784   7.043  19.283  0.00  0.00    +0.000 A 
ENDROOT
BRANCH   1  11
ATOM     11  C   UNL     1       4.474   6.467  17.443  0.00  0.00    +0.000 C 
ATOM     12  O   UNL     1       5.662   6.743  17.607  0.00  0.00    +0.000 OA
BRANCH  11  13
ATOM     13  C   UNL     1       4.045   5.287  16.578  0.00  0.00    +0.000 C 
BRANCH  13  15
ATOM     14  C   UNL     1       5.630   4.753  14.703  0.00  0.00    +0.000 C 
ATOM     15  C   UNL     1       5.218   4.418  16.130  0.00  0.00    +0.000 C 
ENDBRANCH  13  15
ENDBRANCH  11  13
ENDBRANCH   1  11
BRANCH   5  16
ATOM     16  C   UNL     1      -0.009  11.152  18.710  0.00  0.00    +0.000 C 
ATOM     17  O   UNL     1      -1.187  11.393  18.493  0.00  0.00    +0.000 OA
BRANCH  16  18
ATOM     18  O   UNL     1       0.973  11.979  18.300  0.00  0.00    +0.000 OA
ATOM     19  H   UNL     1       0.877  12.886  18.670  0.00  0.00    +0.000 HD
ENDBRANCH  16  18
ENDBRANCH   5  16
BRANCH  10  20
ATOM     20  N   UNL     1       3.126   5.837  19.975  0.00  0.00    +0.000 N 
ATOM     21  H   UNL     1       4.144   5.770  20.118  0.00  0.00    +0.000 HD
BRANCH  20  22
ATOM     22  C   UNL     1       2.597   4.522  19.859  0.00  0.00    +0.000 A 
ATOM     23  C   UNL     1       1.221   4.261  19.952  0.00  0.00    +0.000 A 
ATOM     24  C   UNL     1       0.726   2.956  19.921  0.00  0.00    +0.000 A 
ATOM     25  C   UNL     1       1.599   1.886  19.763  0.00  0.00    +0.000 A 
ATOM     26  C   UNL     1       2.967   2.123  19.642  0.00  0.00    +0.000 A 
ATOM     27  C   UNL     1       3.479   3.430  19.694  0.00  0.00    +0.000 A 
ATOM     28  C   UNL     1       4.970   3.628  19.607  0.00  0.00    +0.000 C 
ENDBRANCH  20  22
ENDBRANCH  10  20
TORSDOF 7
ENDMDL
