MODEL 1
REMARK VINA RESULT:      -7.0      0.000      0.000
REMARK  Name = 
REMARK  8 active torsions:
REMARK  status: ('A' for Active; 'I' for Inactive)
REMARK    1  A    between atoms: C_1  and  O_2
REMARK    2  A    between atoms: O_2  and  C_3
REMARK    3  A    between atoms: C_3  and  C_4
REMARK    4  A    between atoms: C_4  and  N_5
REMARK    5  A    between atoms: C_7  and  C_8
REMARK    6  A    between atoms: C_11  and  C_12
REMARK    7  A    between atoms: N_14  and  C_15
REMARK    8  A    between atoms: N_18  and  C_19
REMARK                            x       y       z     vdW  Elec       q    Type
REMARK                         _______ _______ _______ _____ _____    ______ ____
ROOT
ATOM      1  C   UNL     1       1.411   8.013  20.372  0.00  0.00    +0.000 A 
ATOM      2  C   UNL     1       1.899   8.358  19.105  0.00  0.00    +0.000 A 
ATOM      3  C   UNL     1       2.551   7.410  18.311  0.00  0.00    +0.000 A 
ATOM      4  C   UNL     1       2.727   6.097  18.770  0.00  0.00    +0.000 A 
ATOM      5  C   UNL     1       2.224   5.757  20.027  0.00  0.00    +0.000 A 
ATOM      6  F   UNL     1       2.371   4.516  20.518  0.00  0.00    +0.000 F 
ATOM      7  C   UNL     1       1.570   6.698  20.822  0.00  0.00    +0.000 A 
ENDROOT
BRANCH   1  10
ATOM      8  N   UNL     1      -0.413  10.714  21.913  0.00  0.00    +0.000 N 
ATOM      9  C   UNL     1      -0.039  10.030  20.791  0.00  0.00    +0.000 A 
ATOM     10  C   UNL     1       0.806   9.025  21.217  0.00  0.00    +0.000 A 
ATOM     11  C   UNL     1       0.892   9.216  22.614  0.00  0.00    +0.000 A 
ATOM     12  N   UNL     1       0.152  10.241  23.040  0.00  0.00    +0.000 NA
BRANCH   8  13
ATOM     13  C   UNL     1      -1.326  11.835  21.990  0.00  0.00    +0.000 C 
BRANCH  13  14
ATOM     14  C   UNL     1      -0.594  13.148  22.222  0.00  0.00    +0.000 C 
BRANCH  14  16
ATOM     15  C   UNL     1      -2.015  14.205  23.771  0.00  0.00    +0.000 C 
ATOM     16  O   UNL     1      -0.766  13.548  23.584  0.00  0.00    +0.000 OA
ENDBRANCH  14  16
ENDBRANCH  13  14
ENDBRANCH   8  13
ENDBRANCH   1  10
BRANCH   4  17
ATOM     17  C   UNL     1       3.451   5.139  17.893  0.00  0.00    +0.000 C 
ATOM     18  O   UNL     1       2.967   4.033  17.675  0.00  0.00    +0.000 OA
ATOM     19  N   UNL     1       4.649   5.546  17.349  0.00  0.00    +0.000 N 
ATOM     20  H   UNL     1       4.998   6.475  17.563  0.00  0.00    +0.000 HD
BRANCH  19  21
ATOM     21  C   UNL     1       5.449   4.712  16.471  0.00  0.00    +0.000 C 
ATOM     22  C   UNL     1       6.921   5.118  16.374  0.00  0.00    +0.000 C 
ATOM     23  C   UNL     1       7.341   4.822  14.935  0.00  0.00    +0.000 C 
ATOM     24  N   UNL     1       6.180   4.147  14.304  0.00  0.00    +0.000 N 
ATOM     25  C   UNL     1       4.973   4.629  15.017  0.00  0.00    +0.000 C 
BRANCH  24  26
ATOM     26  C   UNL     1       6.177   3.640  13.068  0.00  0.00    +0.000 C 
ATOM     27  N   UNL     1       6.199   3.195  11.998  0.00  0.00    +0.000 NA
ENDBRANCH  24  26
ENDBRANCH  19  21
ENDBRANCH   4  17
TORSDOF 7
ENDMDL
MODEL 2
REMARK VINA RESULT:      -6.9      1.394      1.705
REMARK  Name = 
REMARK  8 active torsions:
REMARK  status: ('A' for Active; 'I' for Inactive)
REMARK    1  A    between atoms: C_1  and  O_2
REMARK    2  A    between atoms: O_2  and  C_3
REMARK    3  A    between atoms: C_3  and  C_4
REMARK    4  A    between atoms: C_4  and  N_5
REMARK    5  A    between atoms: C_7  and  C_8
REMARK    6  A    between atoms: C_11  and  C_12
REMARK    7  A    between atoms: N_14  and  C_15
REMARK    8  A    between atoms: N_18  and  C_19
REMARK                            x       y       z     vdW  Elec       q    Type
REMARK                         _______ _______ _______ _____ _____    ______ ____
ROOT
ATOM      1  C   UNL     1       1.190   8.785  20.624  0.00  0.00    +0.000 A 
ATOM      2  C   UNL     1       1.461   7.483  21.065  0.00  0.00    +0.000 A 
ATOM      3  C   UNL     1       2.049   6.549  20.207  0.00  0.00    +0.000 A 
ATOM      4  C   UNL     1       2.377   6.900  18.890  0.00  0.00    +0.000 A 
ATOM      5  C   UNL     1       2.118   8.203  18.463  0.00  0.00    +0.000 A 
ATOM      6  F   UNL     1       2.407   8.591  17.210  0.00  0.00    +0.000 F 
ATOM      7  C   UNL     1       1.535   9.140  19.316  0.00  0.00    +0.000 A 
ENDROOT
BRANCH   1  10
ATOM      8  N   UNL     1      -0.552  11.491  22.249  0.00  0.00    +0.000 N 
ATOM      9  C   UNL     1       0.082  10.985  21.149  0.00  0.00    +0.000 A 
ATOM     10  C   UNL     1       0.510   9.720  21.499  0.00  0.00    +0.000 A 
ATOM     11  C   UNL     1       0.102   9.579  22.844  0.00  0.00    +0.000 A 
ATOM     12  N   UNL     1      -0.543  10.653  23.302  0.00  0.00    +0.000 NA
BRANCH   8  13
ATOM     13  C   UNL     1      -1.208  12.776  22.366  0.00  0.00    +0.000 C 
BRANCH  13  14
ATOM     14  C   UNL     1      -0.220  13.928  22.263  0.00  0.00    +0.000 C 
BRANCH  14  16
ATOM     15  C   UNL     1      -1.579  14.475  24.104  0.00  0.00    +0.000 C 
ATOM     16  O   UNL     1      -0.394  14.798  23.386  0.00  0.00    +0.000 OA
ENDBRANCH  14  16
ENDBRANCH  13  14
ENDBRANCH   8  13
ENDBRANCH   1  10
BRANCH   4  17
ATOM     17  C   UNL     1       2.975   5.856  18.015  0.00  0.00    +0.000 C 
ATOM     18  O   UNL     1       2.337   4.838  17.763  0.00  0.00    +0.000 OA
ATOM     19  N   UNL     1       4.236   6.086  17.512  0.00  0.00    +0.000 N 
ATOM     20  H   UNL     1       4.714   6.948  17.753  0.00  0.00    +0.000 HD
BRANCH  19  21
ATOM     21  C   UNL     1       4.928   5.153  16.641  0.00  0.00    +0.000 C 
ATOM     22  C   UNL     1       6.214   4.570  17.228  0.00  0.00    +0.000 C 
ATOM     23  C   UNL     1       7.172   4.401  16.049  0.00  0.00    +0.000 C 
ATOM     24  N   UNL     1       6.388   4.749  14.838  0.00  0.00    +0.000 N 
ATOM     25  C   UNL     1       5.341   5.703  15.272  0.00  0.00    +0.000 C 
BRANCH  24  26
ATOM     26  C   UNL     1       6.839   4.638  13.585  0.00  0.00    +0.000 C 
ATOM     27  N   UNL     1       7.207   4.546  12.490  0.00  0.00    +0.000 NA
ENDBRANCH  24  26
ENDBRANCH  19  21
ENDBRANCH   4  17
TORSDOF 7
ENDMDL
MODEL 3
REMARK VINA RESULT:      -6.9      2.639     10.401
REMARK  Name = 
REMARK  8 active torsions:
REMARK  status: ('A' for Active; 'I' for Inactive)
REMARK    1  A    between atoms: C_1  and  O_2
REMARK    2  A    between atoms: O_2  and  C_3
REMARK    3  A    between atoms: C_3  and  C_4
REMARK    4  A    between atoms: C_4  and  N_5
REMARK    5  A    between atoms: C_7  and  C_8
REMARK    6  A    between atoms: C_11  and  C_12
REMARK    7  A    between atoms: N_14  and  C_15
REMARK    8  A    between atoms: N_18  and  C_19
REMARK                            x       y       z     vdW  Elec       q    Type
REMARK                         _______ _______ _______ _____ _____    ______ ____
ROOT
ATOM      1  C   UNL     1       2.263   7.434  18.742  0.00  0.00    +0.000 A 
ATOM      2  C   UNL     1       2.002   7.372  20.118  0.00  0.00    +0.000 A 
ATOM      3  C   UNL     1       1.448   8.467  20.787  0.00  0.00    +0.000 A 
ATOM      4  C   UNL     1       1.145   9.647  20.093  0.00  0.00    +0.000 A 
ATOM      5  C   UNL     1       1.394   9.695  18.720  0.00  0.00    +0.000 A 
ATOM      6  F   UNL     1       1.128  10.802  18.008  0.00  0.00    +0.000 F 
ATOM      7  C   UNL     1       1.943   8.604  18.046  0.00  0.00    +0.000 A 
ENDROOT
BRANCH   1  10
ATOM      8  N   UNL     1       4.372   5.097  16.984  0.00  0.00    +0.000 N 
ATOM      9  C   UNL     1       4.116   6.371  17.406  0.00  0.00    +0.000 A 
ATOM     10  C   UNL     1       2.909   6.320  18.076  0.00  0.00    +0.000 A 
ATOM     11  C   UNL     1       2.515   4.967  17.970  0.00  0.00    +0.000 A 
ATOM     12  N   UNL     1       3.401   4.222  17.308  0.00  0.00    +0.000 NA
BRANCH   8  13
ATOM     13  C   UNL     1       5.541   4.632  16.268  0.00  0.00    +0.000 C 
BRANCH  13  14
ATOM     14  C   UNL     1       6.723   5.572  16.440  0.00  0.00    +0.000 C 
BRANCH  14  16
ATOM     15  C   UNL     1       7.660   5.402  18.591  0.00  0.00    +0.000 C 
ATOM     16  O   UNL     1       7.717   4.935  17.248  0.00  0.00    +0.000 OA
ENDBRANCH  14  16
ENDBRANCH  13  14
ENDBRANCH   8  13
ENDBRANCH   1  10
BRANCH   4  17
ATOM     17  C   UNL     1       0.583  10.788  20.862  0.00  0.00    +0.000 C 
ATOM     18  O   UNL     1       1.342  11.586  21.404  0.00  0.00    +0.000 OA
ATOM     19  N   UNL     1      -0.787  10.905  20.928  0.00  0.00    +0.000 N 
ATOM     20  H   UNL     1      -1.364  10.216  20.457  0.00  0.00    +0.000 HD
BRANCH  19  21
ATOM     21  C   UNL     1      -1.461  11.976  21.639  0.00  0.00    +0.000 C 
ATOM     22  C   UNL     1      -1.872  11.629  23.071  0.00  0.00    +0.000 C 
ATOM     23  C   UNL     1      -3.191  12.360  23.316  0.00  0.00    +0.000 C 
ATOM     24  N   UNL     1      -3.424  13.191  22.108  0.00  0.00    +0.000 N 
ATOM     25  C   UNL     1      -2.743  12.504  20.986  0.00  0.00    +0.000 C 
BRANCH  24  26
ATOM     26  C   UNL     1      -4.431  14.058  21.967  0.00  0.00    +0.000 C 
ATOM     27  N   UNL     1      -5.295  14.823  21.862  0.00  0.00    +0.000 NA
ENDBRANCH  24  26
ENDBRANCH  19  21
ENDBRANCH   4  17
TORSDOF 7
ENDMDL
MODEL 4
REMARK VINA RESULT:      -6.8      0.895      1.152
REMARK  Name = 
REMARK  8 active torsions:
REMARK  status: ('A' for Active; 'I' for Inactive)
REMARK    1  A    between atoms: C_1  and  O_2
REMARK    2  A    between atoms: O_2  and  C_3
REMARK    3  A    between atoms: C_3  and  C_4
REMARK    4  A    between atoms: C_4  and  N_5
REMARK    5  A    between atoms: C_7  and  C_8
REMARK    6  A    between atoms: C_11  and  C_12
REMARK    7  A    between atoms: N_14  and  C_15
REMARK    8  A    between atoms: N_18  and  C_19
REMARK                            x       y       z     vdW  Elec       q    Type
REMARK                         _______ _______ _______ _____ _____    ______ ____
ROOT
ATOM      1  C   UNL     1       1.382   8.295  20.395  0.00  0.00    +0.000 A 
ATOM      2  C   UNL     1       1.794   8.613  19.094  0.00  0.00    +0.000 A 
ATOM      3  C   UNL     1       2.424   7.655  18.294  0.00  0.00    +0.000 A 
ATOM      4  C   UNL     1       2.655   6.361  18.780  0.00  0.00    +0.000 A 
ATOM      5  C   UNL     1       2.227   6.048  20.071  0.00  0.00    +0.000 A 
ATOM      6  F   UNL     1       2.428   4.825  20.589  0.00  0.00    +0.000 F 
ATOM      7  C   UNL     1       1.594   6.998  20.873  0.00  0.00    +0.000 A 
ENDROOT
BRANCH   1  10
ATOM      8  N   UNL     1      -0.220  11.141  21.922  0.00  0.00    +0.000 N 
ATOM      9  C   UNL     1       0.258  10.512  20.808  0.00  0.00    +0.000 A 
ATOM     10  C   UNL     1       0.800   9.319  21.242  0.00  0.00    +0.000 A 
ATOM     11  C   UNL     1       0.617   9.348  22.643  0.00  0.00    +0.000 A 
ATOM     12  N   UNL     1      -0.002  10.453  23.058  0.00  0.00    +0.000 NA
BRANCH   8  13
ATOM     13  C   UNL     1      -0.914  12.411  21.979  0.00  0.00    +0.000 C 
BRANCH  13  14
ATOM     14  C   UNL     1       0.040  13.586  21.833  0.00  0.00    +0.000 C 
BRANCH  14  16
ATOM     15  C   UNL     1       0.228  14.267  19.589  0.00  0.00    +0.000 C 
ATOM     16  O   UNL     1      -0.454  14.469  20.821  0.00  0.00    +0.000 OA
ENDBRANCH  14  16
ENDBRANCH  13  14
ENDBRANCH   8  13
ENDBRANCH   1  10
BRANCH   4  17
ATOM     17  C   UNL     1       3.353   5.393  17.893  0.00  0.00    +0.000 C 
ATOM     18  O   UNL     1       2.758   4.395  17.499  0.00  0.00    +0.000 OA
ATOM     19  N   UNL     1       4.655   5.668  17.541  0.00  0.00    +0.000 N 
ATOM     20  H   UNL     1       5.094   6.512  17.896  0.00  0.00    +0.000 HD
BRANCH  19  21
ATOM     21  C   UNL     1       5.444   4.811  16.676  0.00  0.00    +0.000 C 
ATOM     22  C   UNL     1       6.936   5.148  16.635  0.00  0.00    +0.000 C 
ATOM     23  C   UNL     1       7.391   4.856  15.206  0.00  0.00    +0.000 C 
ATOM     24  N   UNL     1       6.221   4.247  14.525  0.00  0.00    +0.000 N 
ATOM     25  C   UNL     1       5.015   4.775  15.206  0.00  0.00    +0.000 C 
BRANCH  24  26
ATOM     26  C   UNL     1       6.237   3.761  13.281  0.00  0.00    +0.000 C 
ATOM     27  N   UNL     1       6.226   3.333  12.204  0.00  0.00    +0.000 NA
ENDBRANCH  24  26
ENDBRANCH  19  21
ENDBRANCH   4  17
TORSDOF 7
ENDMDL
MODEL 5
REMARK VINA RESULT:      -6.7      2.779     10.301
REMARK  Name = 
REMARK  8 active torsions:
REMARK  status: ('A' for Active; 'I' for Inactive)
REMARK    1  A    between atoms: C_1  and  O_2
REMARK    2  A    between atoms: O_2  and  C_3
REMARK    3  A    between atoms: C_3  and  C_4
REMARK    4  A    between atoms: C_4  and  N_5
REMARK    5  A    between atoms: C_7  and  C_8
REMARK    6  A    between atoms: C_11  and  C_12
REMARK    7  A    between atoms: N_14  and  C_15
REMARK    8  A    between atoms: N_18  and  C_19
REMARK                            x       y       z     vdW  Elec       q    Type
REMARK                         _______ _______ _______ _____ _____    ______ ____
ROOT
ATOM      1  C   UNL     1       2.306   7.716  18.872  0.00  0.00    +0.000 A 
ATOM      2  C   UNL     1       1.941   8.740  17.989  0.00  0.00    +0.000 A 
ATOM      3  C   UNL     1       1.124   9.791  18.416  0.00  0.00    +0.000 A 
ATOM      4  C   UNL     1       0.656   9.837  19.737  0.00  0.00    +0.000 A 
ATOM      5  C   UNL     1       1.036   8.821  20.615  0.00  0.00    +0.000 A 
ATOM      6  F   UNL     1       0.611   8.813  21.889  0.00  0.00    +0.000 F 
ATOM      7  C   UNL     1       1.855   7.772  20.195  0.00  0.00    +0.000 A 
ENDROOT
BRANCH   1  10
ATOM      8  N   UNL     1       3.870   4.560  18.103  0.00  0.00    +0.000 N 
ATOM      9  C   UNL     1       3.002   5.295  18.860  0.00  0.00    +0.000 A 
ATOM     10  C   UNL     1       3.089   6.592  18.396  0.00  0.00    +0.000 A 
ATOM     11  C   UNL     1       4.063   6.527  17.375  0.00  0.00    +0.000 A 
ATOM     12  N   UNL     1       4.538   5.294  17.194  0.00  0.00    +0.000 NA
BRANCH   8  13
ATOM     13  C   UNL     1       4.108   3.134  18.182  0.00  0.00    +0.000 C 
BRANCH  13  14
ATOM     14  C   UNL     1       2.903   2.330  17.717  0.00  0.00    +0.000 C 
BRANCH  14  16
ATOM     15  C   UNL     1       0.828   2.352  18.825  0.00  0.00    +0.000 C 
ATOM     16  O   UNL     1       2.170   1.879  18.859  0.00  0.00    +0.000 OA
ENDBRANCH  14  16
ENDBRANCH  13  14
ENDBRANCH   8  13
ENDBRANCH   1  10
BRANCH   4  17
ATOM     17  C   UNL     1      -0.232  10.964  20.127  0.00  0.00    +0.000 C 
ATOM     18  O   UNL     1      -1.317  11.101  19.569  0.00  0.00    +0.000 OA
ATOM     19  N   UNL     1       0.207  11.814  21.117  0.00  0.00    +0.000 N 
ATOM     20  H   UNL     1       1.113  11.649  21.543  0.00  0.00    +0.000 HD
BRANCH  19  21
ATOM     21  C   UNL     1      -0.567  12.946  21.595  0.00  0.00    +0.000 C 
ATOM     22  C   UNL     1       0.193  14.274  21.610  0.00  0.00    +0.000 C 
ATOM     23  C   UNL     1      -0.326  15.037  22.829  0.00  0.00    +0.000 C 
ATOM     24  N   UNL     1      -1.431  14.215  23.381  0.00  0.00    +0.000 N 
ATOM     25  C   UNL     1      -1.139  12.810  23.010  0.00  0.00    +0.000 C 
BRANCH  24  26
ATOM     26  C   UNL     1      -2.212  14.582  24.401  0.00  0.00    +0.000 C 
ATOM     27  N   UNL     1      -2.900  14.878  25.285  0.00  0.00    +0.000 NA
ENDBRANCH  24  26
ENDBRANCH  19  21
ENDBRANCH   4  17
TORSDOF 7
ENDMDL
MODEL 6
REMARK VINA RESULT:      -6.7      2.473     10.180
REMARK  Name = 
REMARK  8 active torsions:
REMARK  status: ('A' for Active; 'I' for Inactive)
REMARK    1  A    between atoms: C_1  and  O_2
REMARK    2  A    between atoms: O_2  and  C_3
REMARK    3  A    between atoms: C_3  and  C_4
REMARK    4  A    between atoms: C_4  and  N_5
REMARK    5  A    between atoms: C_7  and  C_8
REMARK    6  A    between atoms: C_11  and  C_12
REMARK    7  A    between atoms: N_14  and  C_15
REMARK    8  A    between atoms: N_18  and  C_19
REMARK                            x       y       z     vdW  Elec       q    Type
REMARK                         _______ _______ _______ _____ _____    ______ ____
ROOT
ATOM      1  C   UNL     1       2.666   7.086  18.509  0.00  0.00    +0.000 A 
ATOM      2  C   UNL     1       2.464   8.180  17.657  0.00  0.00    +0.000 A 
ATOM      3  C   UNL     1       1.784   9.315  18.107  0.00  0.00    +0.000 A 
ATOM      4  C   UNL     1       1.292   9.378  19.418  0.00  0.00    +0.000 A 
ATOM      5  C   UNL     1       1.511   8.291  20.265  0.00  0.00    +0.000 A 
ATOM      6  F   UNL     1       1.057   8.296  21.528  0.00  0.00    +0.000 F 
ATOM      7  C   UNL     1       2.193   7.157  19.823  0.00  0.00    +0.000 A 
ENDROOT
BRANCH   1  10
ATOM      8  N   UNL     1       4.663   4.523  16.945  0.00  0.00    +0.000 N 
ATOM      9  C   UNL     1       4.333   5.842  17.088  0.00  0.00    +0.000 A 
ATOM     10  C   UNL     1       3.304   5.884  18.007  0.00  0.00    +0.000 A 
ATOM     11  C   UNL     1       3.077   4.528  18.332  0.00  0.00    +0.000 A 
ATOM     12  N   UNL     1       3.901   3.699  17.688  0.00  0.00    +0.000 NA
BRANCH   8  13
ATOM     13  C   UNL     1       5.714   3.970  16.117  0.00  0.00    +0.000 C 
BRANCH  13  14
ATOM     14  C   UNL     1       7.068   4.584  16.433  0.00  0.00    +0.000 C 
BRANCH  14  16
ATOM     15  C   UNL     1       7.007   4.848  14.096  0.00  0.00    +0.000 C 
ATOM     16  O   UNL     1       7.493   5.380  15.323  0.00  0.00    +0.000 OA
ENDBRANCH  14  16
ENDBRANCH  13  14
ENDBRANCH   8  13
ENDBRANCH   1  10
BRANCH   4  17
ATOM     17  C   UNL     1       0.553  10.601  19.831  0.00  0.00    +0.000 C 
ATOM     18  O   UNL     1       0.987  11.289  20.750  0.00  0.00    +0.000 OA
ATOM     19  N   UNL     1      -0.600  10.916  19.148  0.00  0.00    +0.000 N 
ATOM     20  H   UNL     1      -0.908  10.310  18.395  0.00  0.00    +0.000 HD
BRANCH  19  21
ATOM     21  C   UNL     1      -1.407  12.085  19.447  0.00  0.00    +0.000 C 
ATOM     22  C   UNL     1      -0.712  13.422  19.186  0.00  0.00    +0.000 C 
ATOM     23  C   UNL     1      -1.220  14.375  20.267  0.00  0.00    +0.000 C 
ATOM     24  N   UNL     1      -2.263  13.625  21.011  0.00  0.00    +0.000 N 
ATOM     25  C   UNL     1      -1.918  12.189  20.888  0.00  0.00    +0.000 C 
BRANCH  24  26
ATOM     26  C   UNL     1      -3.021  14.142  21.982  0.00  0.00    +0.000 C 
ATOM     27  N   UNL     1      -3.684  14.567  22.831  0.00  0.00    +0.000 NA
ENDBRANCH  24  26
ENDBRANCH  19  21
ENDBRANCH   4  17
TORSDOF 7
ENDMDL
MODEL 7
REMARK VINA RESULT:      -6.7      2.735     10.216
REMARK  Name = 
REMARK  8 active torsions:
REMARK  status: ('A' for Active; 'I' for Inactive)
REMARK    1  A    between atoms: C_1  and  O_2
REMARK    2  A    between atoms: O_2  and  C_3
REMARK    3  A    between atoms: C_3  and  C_4
REMARK    4  A    between atoms: C_4  and  N_5
REMARK    5  A    between atoms: C_7  and  C_8
REMARK    6  A    between atoms: C_11  and  C_12
REMARK    7  A    between atoms: N_14  and  C_15
REMARK    8  A    between atoms: N_18  and  C_19
REMARK                            x       y       z     vdW  Elec       q    Type
REMARK                         _______ _______ _______ _____ _____    ______ ____
ROOT
ATOM      1  C   UNL     1       2.325   7.661  18.644  0.00  0.00    +0.000 A 
ATOM      2  C   UNL     1       2.122   8.785  17.832  0.00  0.00    +0.000 A 
ATOM      3  C   UNL     1       1.485   9.922  18.338  0.00  0.00    +0.000 A 
ATOM      4  C   UNL     1       1.038   9.956  19.667  0.00  0.00    +0.000 A 
ATOM      5  C   UNL     1       1.258   8.838  20.473  0.00  0.00    +0.000 A 
ATOM      6  F   UNL     1       0.846   8.815  21.751  0.00  0.00    +0.000 F 
ATOM      7  C   UNL     1       1.897   7.703  19.975  0.00  0.00    +0.000 A 
ENDROOT
BRANCH   1  10
ATOM      8  N   UNL     1       4.335   5.063  17.158  0.00  0.00    +0.000 N 
ATOM      9  C   UNL     1       4.157   6.378  17.485  0.00  0.00    +0.000 A 
ATOM     10  C   UNL     1       2.917   6.461  18.086  0.00  0.00    +0.000 A 
ATOM     11  C   UNL     1       2.424   5.137  18.041  0.00  0.00    +0.000 A 
ATOM     12  N   UNL     1       3.284   4.286  17.479  0.00  0.00    +0.000 NA
BRANCH   8  13
ATOM     13  C   UNL     1       5.501   4.466  16.541  0.00  0.00    +0.000 C 
BRANCH  13  14
ATOM     14  C   UNL     1       6.764   4.718  17.350  0.00  0.00    +0.000 C 
BRANCH  14  16
ATOM     15  C   UNL     1       7.696   6.839  17.760  0.00  0.00    +0.000 C 
ATOM     16  O   UNL     1       7.470   5.826  16.785  0.00  0.00    +0.000 OA
ENDBRANCH  14  16
ENDBRANCH  13  14
ENDBRANCH   8  13
ENDBRANCH   1  10
BRANCH   4  17
ATOM     17  C   UNL     1       0.344  11.182  20.141  0.00  0.00    +0.000 C 
ATOM     18  O   UNL     1       0.989  12.209  20.330  0.00  0.00    +0.000 OA
ATOM     19  N   UNL     1      -1.016  11.113  20.343  0.00  0.00    +0.000 N 
ATOM     20  H   UNL     1      -1.497  10.236  20.167  0.00  0.00    +0.000 HD
BRANCH  19  21
ATOM     21  C   UNL     1      -1.812  12.239  20.795  0.00  0.00    +0.000 C 
ATOM     22  C   UNL     1      -2.278  12.145  22.250  0.00  0.00    +0.000 C 
ATOM     23  C   UNL     1      -3.662  12.791  22.287  0.00  0.00    +0.000 C 
ATOM     24  N   UNL     1      -3.889  13.344  20.929  0.00  0.00    +0.000 N 
ATOM     25  C   UNL     1      -3.091  12.512  19.997  0.00  0.00    +0.000 C 
BRANCH  24  26
ATOM     26  C   UNL     1      -4.950  14.073  20.574  0.00  0.00    +0.000 C 
ATOM     27  N   UNL     1      -5.875  14.690  20.248  0.00  0.00    +0.000 NA
ENDBRANCH  24  26
ENDBRANCH  19  21
ENDBRANCH   4  17
TORSDOF 7
ENDMDL
MODEL 8
REMARK VINA RESULT:      -6.7      1.495      1.828
REMARK  Name = 
REMARK  8 active torsions:
REMARK  status: ('A' for Active; 'I' for Inactive)
REMARK    1  A    between atoms: C_1  and  O_2
REMARK    2  A    between atoms: O_2  and  C_3
REMARK    3  A    between atoms: C_3  and  C_4
REMARK    4  A    between atoms: C_4  and  N_5
REMARK    5  A    between atoms: C_7  and  C_8
REMARK    6  A    between atoms: C_11  and  C_12
REMARK    7  A    between atoms: N_14  and  C_15
REMARK    8  A    between atoms: N_18  and  C_19
REMARK                            x       y       z     vdW  Elec       q    Type
REMARK                         _______ _______ _______ _____ _____    ______ ____
ROOT
ATOM      1  C   UNL     1       1.107   9.659  20.134  0.00  0.00    +0.000 A 
ATOM      2  C   UNL     1       1.470   9.713  18.782  0.00  0.00    +0.000 A 
ATOM      3  C   UNL     1       1.998   8.588  18.142  0.00  0.00    +0.000 A 
ATOM      4  C   UNL     1       2.174   7.386  18.842  0.00  0.00    +0.000 A 
ATOM      5  C   UNL     1       1.795   7.336  20.184  0.00  0.00    +0.000 A 
ATOM      6  F   UNL     1       1.947   6.212  20.904  0.00  0.00    +0.000 F 
ATOM      7  C   UNL     1       1.264   8.454  20.828  0.00  0.00    +0.000 A 
ENDROOT
BRANCH   1  10
ATOM      8  N   UNL     1      -0.468  12.205  22.142  0.00  0.00    +0.000 N 
ATOM      9  C   UNL     1      -0.397  10.907  21.723  0.00  0.00    +0.000 A 
ATOM     10  C   UNL     1       0.634  10.853  20.807  0.00  0.00    +0.000 A 
ATOM     11  C   UNL     1       1.096  12.186  20.731  0.00  0.00    +0.000 A 
ATOM     12  N   UNL     1       0.429  13.009  21.541  0.00  0.00    +0.000 NA
BRANCH   8  13
ATOM     13  C   UNL     1      -1.369  12.757  23.132  0.00  0.00    +0.000 C 
BRANCH  13  14
ATOM     14  C   UNL     1      -2.605  11.891  23.320  0.00  0.00    +0.000 C 
BRANCH  14  16
ATOM     15  C   UNL     1      -3.899  13.597  24.295  0.00  0.00    +0.000 C 
ATOM     16  O   UNL     1      -3.774  12.706  23.192  0.00  0.00    +0.000 OA
ENDBRANCH  14  16
ENDBRANCH  13  14
ENDBRANCH   8  13
ENDBRANCH   1  10
BRANCH   4  17
ATOM     17  C   UNL     1       2.765   6.232  18.115  0.00  0.00    +0.000 C 
ATOM     18  O   UNL     1       2.095   5.217  17.944  0.00  0.00    +0.000 OA
ATOM     19  N   UNL     1       4.056   6.356  17.653  0.00  0.00    +0.000 N 
ATOM     20  H   UNL     1       4.559   7.221  17.823  0.00  0.00    +0.000 HD
BRANCH  19  21
ATOM     21  C   UNL     1       4.744   5.308  16.923  0.00  0.00    +0.000 C 
ATOM     22  C   UNL     1       6.071   4.866  17.543  0.00  0.00    +0.000 C 
ATOM     23  C   UNL     1       6.988   4.525  16.369  0.00  0.00    +0.000 C 
ATOM     24  N   UNL     1       6.147   4.642  15.151  0.00  0.00    +0.000 N 
ATOM     25  C   UNL     1       5.086   5.628  15.464  0.00  0.00    +0.000 C 
BRANCH  24  26
ATOM     26  C   UNL     1       6.553   4.332  13.917  0.00  0.00    +0.000 C 
ATOM     27  N   UNL     1       6.927   4.075  12.851  0.00  0.00    +0.000 NA
ENDBRANCH  24  26
ENDBRANCH  19  21
ENDBRANCH   4  17
TORSDOF 7
ENDMDL
MODEL 9
REMARK VINA RESULT:      -6.7      1.843      2.441
REMARK  Name = 
REMARK  8 active torsions:
REMARK  status: ('A' for Active; 'I' for Inactive)
REMARK    1  A    between atoms: C_1  and  O_2
REMARK    2  A    between atoms: O_2  and  C_3
REMARK    3  A    between atoms: C_3  and  C_4
REMARK    4  A    between atoms: C_4  and  N_5
REMARK    5  A    between atoms: C_7  and  C_8
REMARK    6  A    between atoms: C_11  and  C_12
REMARK    7  A    between atoms: N_14  and  C_15
REMARK    8  A    between atoms: N_18  and  C_19
REMARK                            x       y       z     vdW  Elec       q    Type
REMARK                         _______ _______ _______ _____ _____    ______ ____
ROOT
ATOM      1  C   UNL     1       0.773   9.634  20.874  0.00  0.00    +0.000 A 
ATOM      2  C   UNL     1       1.177   8.413  21.429  0.00  0.00    +0.000 A 
ATOM      3  C   UNL     1       1.789   7.438  20.635  0.00  0.00    +0.000 A 
ATOM      4  C   UNL     1       2.009   7.667  19.270  0.00  0.00    +0.000 A 
ATOM      5  C   UNL     1       1.618   8.892  18.728  0.00  0.00    +0.000 A 
ATOM      6  F   UNL     1       1.799   9.161  17.424  0.00  0.00    +0.000 F 
ATOM      7  C   UNL     1       1.010   9.870  19.515  0.00  0.00    +0.000 A 
ENDROOT
BRANCH   1  10
ATOM      8  N   UNL     1      -0.817  12.480  22.414  0.00  0.00    +0.000 N 
ATOM      9  C   UNL     1      -0.025  11.958  21.430  0.00  0.00    +0.000 A 
ATOM     10  C   UNL     1       0.070  10.605  21.690  0.00  0.00    +0.000 A 
ATOM     11  C   UNL     1      -0.683  10.428  22.872  0.00  0.00    +0.000 A 
ATOM     12  N   UNL     1      -1.222  11.565  23.314  0.00  0.00    +0.000 NA
BRANCH   8  13
ATOM     13  C   UNL     1      -1.243  13.856  22.555  0.00  0.00    +0.000 C 
BRANCH  13  14
ATOM     14  C   UNL     1      -1.684  14.171  23.976  0.00  0.00    +0.000 C 
BRANCH  14  16
ATOM     15  C   UNL     1      -1.061  16.349  24.613  0.00  0.00    +0.000 C 
ATOM     16  O   UNL     1      -0.685  14.976  24.610  0.00  0.00    +0.000 OA
ENDBRANCH  14  16
ENDBRANCH  13  14
ENDBRANCH   8  13
ENDBRANCH   1  10
BRANCH   4  17
ATOM     17  C   UNL     1       2.640   6.583  18.471  0.00  0.00    +0.000 C 
ATOM     18  O   UNL     1       1.985   5.587  18.178  0.00  0.00    +0.000 OA
ATOM     19  N   UNL     1       3.950   6.750  18.082  0.00  0.00    +0.000 N 
ATOM     20  H   UNL     1       4.440   7.597  18.353  0.00  0.00    +0.000 HD
BRANCH  19  21
ATOM     21  C   UNL     1       4.678   5.773  17.294  0.00  0.00    +0.000 C 
ATOM     22  C   UNL     1       5.697   4.950  18.084  0.00  0.00    +0.000 C 
ATOM     23  C   UNL     1       6.863   4.700  17.128  0.00  0.00    +0.000 C 
ATOM     24  N   UNL     1       6.436   5.248  15.817  0.00  0.00    +0.000 N 
ATOM     25  C   UNL     1       5.469   6.333  16.107  0.00  0.00    +0.000 C 
BRANCH  24  26
ATOM     26  C   UNL     1       7.140   5.143  14.686  0.00  0.00    +0.000 C 
ATOM     27  N   UNL     1       7.730   5.045  13.694  0.00  0.00    +0.000 NA
ENDBRANCH  24  26
ENDBRANCH  19  21
ENDBRANCH   4  17
TORSDOF 7
ENDMDL
