MODEL 1
REMARK VINA RESULT:      -8.1      0.000      0.000
REMARK  Name = 
REMARK  8 active torsions:
REMARK  status: ('A' for Active; 'I' for Inactive)
REMARK    1  A    between atoms: C_1  and  C_2
REMARK    2  A    between atoms: C_5  and  C_6
REMARK    3  A    between atoms: C_7  and  C_8
REMARK    4  A    between atoms: C_13  and  C_14
REMARK    5  A    between atoms: C_14  and  N_15
REMARK    6  A    between atoms: N_15  and  C_16
REMARK    7  A    between atoms: N_15  and  C_26
REMARK    8  A    between atoms: C_19  and  C_20
REMARK                            x       y       z     vdW  Elec       q    Type
REMARK                         _______ _______ _______ _____ _____    ______ ____
ROOT
ATOM      1  N   UNL     1       2.347   5.525  18.631  0.00  0.00    +0.000 N 
ENDROOT
BRANCH   1   2
ATOM      2  C   UNL     1       3.382   5.336  17.674  0.00  0.00    +0.000 A 
ATOM      3  C   UNL     1       4.128   6.389  17.122  0.00  0.00    +0.000 A 
ATOM      4  C   UNL     1       5.169   6.153  16.207  0.00  0.00    +0.000 A 
ATOM      5  C   UNL     1       5.506   4.852  15.820  0.00  0.00    +0.000 A 
ATOM      6  C   UNL     1       4.763   3.793  16.345  0.00  0.00    +0.000 A 
ATOM      7  C   UNL     1       3.714   4.038  17.239  0.00  0.00    +0.000 A 
BRANCH   5   8
ATOM      8  C   UNL     1       6.655   4.571  14.883  0.00  0.00    +0.000 C 
ATOM      9  F   UNL     1       6.843   5.538  13.943  0.00  0.00    +0.000 F 
ATOM     10  F   UNL     1       7.843   4.454  15.539  0.00  0.00    +0.000 F 
ATOM     11  F   UNL     1       6.496   3.407  14.192  0.00  0.00    +0.000 F 
ENDBRANCH   5   8
ENDBRANCH   1   2
BRANCH   1  12
ATOM     12  C   UNL     1       1.967   4.565  19.610  0.00  0.00    +0.000 A 
ATOM     13  C   UNL     1       1.041   3.536  19.389  0.00  0.00    +0.000 A 
ATOM     14  C   UNL     1       0.797   2.557  20.355  0.00  0.00    +0.000 A 
ATOM     15  C   UNL     1       1.455   2.645  21.565  0.00  0.00    +0.000 A 
ATOM     16  N   UNL     1       2.307   3.639  21.868  0.00  0.00    +0.000 NA
ATOM     17  C   UNL     1       2.534   4.563  20.894  0.00  0.00    +0.000 A 
ENDBRANCH   1  12
BRANCH   1  18
ATOM     18  C   UNL     1       1.563   6.782  18.574  0.00  0.00    +0.000 C 
BRANCH  18  24
ATOM     19  C   UNL     1       0.011  11.113  21.099  0.00  0.00    +0.000 C 
ATOM     20  O   UNL     1       0.015  11.035  22.330  0.00  0.00    +0.000 OA
ATOM     21  N   UNL     1       0.383  10.005  20.326  0.00  0.00    +0.000 N 
ATOM     22  C   UNL     1       0.451   8.703  20.984  0.00  0.00    +0.000 C 
ATOM     23  C   UNL     1       1.826   8.082  20.807  0.00  0.00    +0.000 C 
ATOM     24  C   UNL     1       2.235   7.950  19.337  0.00  0.00    +0.000 C 
ATOM     25  C   UNL     1       2.038   9.287  18.603  0.00  0.00    +0.000 C 
ATOM     26  C   UNL     1       0.729  10.010  18.914  0.00  0.00    +0.000 C 
BRANCH  19  33
ATOM     27  C   UNL     1       2.020  13.386  20.041  0.00  0.00    +0.000 C 
ATOM     28  C   UNL     1       0.535  13.384  20.011  0.00  0.00    +0.000 A 
ATOM     29  N   UNL     1      -0.109  14.442  19.510  0.00  0.00    +0.000 NA
ATOM     30  O   UNL     1      -1.446  14.193  19.722  0.00  0.00    +0.000 OA
ATOM     31  C   UNL     1      -1.608  12.998  20.343  0.00  0.00    +0.000 A 
ATOM     32  C   UNL     1      -3.004  12.721  20.734  0.00  0.00    +0.000 C 
ATOM     33  C   UNL     1      -0.375  12.380  20.484  0.00  0.00    +0.000 A 
ENDBRANCH  19  33
ENDBRANCH  18  24
ENDBRANCH   1  18
TORSDOF 6
ENDMDL
MODEL 2
REMARK VINA RESULT:      -8.1      3.444      6.234
REMARK  Name = 
REMARK  8 active torsions:
REMARK  status: ('A' for Active; 'I' for Inactive)
REMARK    1  A    between atoms: C_1  and  C_2
REMARK    2  A    between atoms: C_5  and  C_6
REMARK    3  A    between atoms: C_7  and  C_8
REMARK    4  A    between atoms: C_13  and  C_14
REMARK    5  A    between atoms: C_14  and  N_15
REMARK    6  A    between atoms: N_15  and  C_16
REMARK    7  A    between atoms: N_15  and  C_26
REMARK    8  A    between atoms: C_19  and  C_20
REMARK                            x       y       z     vdW  Elec       q    Type
REMARK                         _______ _______ _______ _____ _____    ______ ____
ROOT
ATOM      1  N   UNL     1       0.009  10.552  19.395  0.00  0.00    +0.000 N 
ENDROOT
BRANCH   1   2
ATOM      2  C   UNL     1       0.903   9.484  19.103  0.00  0.00    +0.000 A 
ATOM      3  C   UNL     1       1.541   9.325  17.863  0.00  0.00    +0.000 A 
ATOM      4  C   UNL     1       2.447   8.276  17.631  0.00  0.00    +0.000 A 
ATOM      5  C   UNL     1       2.755   7.353  18.637  0.00  0.00    +0.000 A 
ATOM      6  C   UNL     1       2.116   7.486  19.872  0.00  0.00    +0.000 A 
ATOM      7  C   UNL     1       1.199   8.521  20.088  0.00  0.00    +0.000 A 
BRANCH   5   8
ATOM      8  C   UNL     1       3.766   6.253  18.429  0.00  0.00    +0.000 C 
ATOM      9  F   UNL     1       4.865   6.646  17.728  0.00  0.00    +0.000 F 
ATOM     10  F   UNL     1       4.234   5.749  19.605  0.00  0.00    +0.000 F 
ATOM     11  F   UNL     1       3.251   5.190  17.748  0.00  0.00    +0.000 F 
ENDBRANCH   5   8
ENDBRANCH   1   2
BRANCH   1  12
ATOM     12  C   UNL     1      -1.252  10.743  18.767  0.00  0.00    +0.000 A 
ATOM     13  C   UNL     1      -1.688  10.036  17.638  0.00  0.00    +0.000 A 
ATOM     14  C   UNL     1      -2.983  10.189  17.138  0.00  0.00    +0.000 A 
ATOM     15  C   UNL     1      -3.823  11.097  17.750  0.00  0.00    +0.000 A 
ATOM     16  N   UNL     1      -3.451  11.855  18.796  0.00  0.00    +0.000 NA
ATOM     17  C   UNL     1      -2.189  11.661  19.267  0.00  0.00    +0.000 A 
ENDBRANCH   1  12
BRANCH   1  18
ATOM     18  C   UNL     1       0.441  11.575  20.378  0.00  0.00    +0.000 C 
BRANCH  18  24
ATOM     19  C   UNL     1       1.131  16.711  19.542  0.00  0.00    +0.000 C 
ATOM     20  O   UNL     1       1.815  17.294  20.385  0.00  0.00    +0.000 OA
ATOM     21  N   UNL     1       0.863  15.342  19.682  0.00  0.00    +0.000 N 
ATOM     22  C   UNL     1       1.124  14.723  20.979  0.00  0.00    +0.000 C 
ATOM     23  C   UNL     1       2.073  13.545  20.831  0.00  0.00    +0.000 C 
ATOM     24  C   UNL     1       1.566  12.494  19.840  0.00  0.00    +0.000 C 
ATOM     25  C   UNL     1       1.160  13.158  18.513  0.00  0.00    +0.000 C 
ATOM     26  C   UNL     1       0.354  14.448  18.655  0.00  0.00    +0.000 C 
BRANCH  19  33
ATOM     27  C   UNL     1      -1.885  17.746  19.150  0.00  0.00    +0.000 C 
ATOM     28  C   UNL     1      -0.722  17.935  18.245  0.00  0.00    +0.000 A 
ATOM     29  N   UNL     1      -0.891  18.595  17.096  0.00  0.00    +0.000 NA
ATOM     30  O   UNL     1       0.316  18.506  16.441  0.00  0.00    +0.000 OA
ATOM     31  C   UNL     1       1.204  17.802  17.186  0.00  0.00    +0.000 A 
ATOM     32  C   UNL     1       2.480  17.540  16.492  0.00  0.00    +0.000 C 
ATOM     33  C   UNL     1       0.628  17.475  18.404  0.00  0.00    +0.000 A 
ENDBRANCH  19  33
ENDBRANCH  18  24
ENDBRANCH   1  18
TORSDOF 6
ENDMDL
MODEL 3
REMARK VINA RESULT:      -8.1      1.269      1.728
REMARK  Name = 
REMARK  8 active torsions:
REMARK  status: ('A' for Active; 'I' for Inactive)
REMARK    1  A    between atoms: C_1  and  C_2
REMARK    2  A    between atoms: C_5  and  C_6
REMARK    3  A    between atoms: C_7  and  C_8
REMARK    4  A    between atoms: C_13  and  C_14
REMARK    5  A    between atoms: C_14  and  N_15
REMARK    6  A    between atoms: N_15  and  C_16
REMARK    7  A    between atoms: N_15  and  C_26
REMARK    8  A    between atoms: C_19  and  C_20
REMARK                            x       y       z     vdW  Elec       q    Type
REMARK                         _______ _______ _______ _____ _____    ______ ____
ROOT
ATOM      1  N   UNL     1       3.068   5.789  19.029  0.00  0.00    +0.000 N 
ENDROOT
BRANCH   1   2
ATOM      2  C   UNL     1       3.813   5.522  17.847  0.00  0.00    +0.000 A 
ATOM      3  C   UNL     1       4.379   6.525  17.044  0.00  0.00    +0.000 A 
ATOM      4  C   UNL     1       5.141   6.214  15.905  0.00  0.00    +0.000 A 
ATOM      5  C   UNL     1       5.372   4.885  15.534  0.00  0.00    +0.000 A 
ATOM      6  C   UNL     1       4.801   3.874  16.310  0.00  0.00    +0.000 A 
ATOM      7  C   UNL     1       4.026   4.193  17.431  0.00  0.00    +0.000 A 
BRANCH   5   8
ATOM      8  C   UNL     1       6.232   4.526  14.347  0.00  0.00    +0.000 C 
ATOM      9  F   UNL     1       7.344   5.303  14.222  0.00  0.00    +0.000 F 
ATOM     10  F   UNL     1       6.681   3.241  14.402  0.00  0.00    +0.000 F 
ATOM     11  F   UNL     1       5.566   4.637  13.164  0.00  0.00    +0.000 F 
ENDBRANCH   5   8
ENDBRANCH   1   2
BRANCH   1  12
ATOM     12  C   UNL     1       2.376   4.804  19.787  0.00  0.00    +0.000 A 
ATOM     13  C   UNL     1       1.318   4.028  19.294  0.00  0.00    +0.000 A 
ATOM     14  C   UNL     1       0.756   2.998  20.052  0.00  0.00    +0.000 A 
ATOM     15  C   UNL     1       1.232   2.785  21.330  0.00  0.00    +0.000 A 
ATOM     16  N   UNL     1       2.199   3.532  21.889  0.00  0.00    +0.000 NA
ATOM     17  C   UNL     1       2.735   4.512  21.112  0.00  0.00    +0.000 A 
ENDBRANCH   1  12
BRANCH   1  18
ATOM     18  C   UNL     1       2.949   7.198  19.476  0.00  0.00    +0.000 C 
BRANCH  18  24
ATOM     19  C   UNL     1       0.467  11.815  19.746  0.00  0.00    +0.000 C 
ATOM     20  O   UNL     1      -0.015  12.217  18.684  0.00  0.00    +0.000 OA
ATOM     21  N   UNL     1       1.173  10.605  19.781  0.00  0.00    +0.000 N 
ATOM     22  C   UNL     1       1.595  10.021  18.510  0.00  0.00    +0.000 C 
ATOM     23  C   UNL     1       1.066   8.604  18.368  0.00  0.00    +0.000 C 
ATOM     24  C   UNL     1       1.482   7.694  19.527  0.00  0.00    +0.000 C 
ATOM     25  C   UNL     1       1.164   8.363  20.875  0.00  0.00    +0.000 C 
ATOM     26  C   UNL     1       1.530   9.843  20.967  0.00  0.00    +0.000 C 
BRANCH  19  33
ATOM     27  C   UNL     1       2.144  14.431  20.558  0.00  0.00    +0.000 C 
ATOM     28  C   UNL     1       1.024  13.790  21.295  0.00  0.00    +0.000 A 
ATOM     29  N   UNL     1       0.630  14.309  22.462  0.00  0.00    +0.000 NA
ATOM     30  O   UNL     1      -0.327  13.444  22.943  0.00  0.00    +0.000 OA
ATOM     31  C   UNL     1      -0.509  12.416  22.077  0.00  0.00    +0.000 A 
ATOM     32  C   UNL     1      -1.417  11.370  22.586  0.00  0.00    +0.000 C 
ATOM     33  C   UNL     1       0.270  12.620  20.948  0.00  0.00    +0.000 A 
ENDBRANCH  19  33
ENDBRANCH  18  24
ENDBRANCH   1  18
TORSDOF 6
ENDMDL
MODEL 4
REMARK VINA RESULT:      -8.0      1.264      1.904
REMARK  Name = 
REMARK  8 active torsions:
REMARK  status: ('A' for Active; 'I' for Inactive)
REMARK    1  A    between atoms: C_1  and  C_2
REMARK    2  A    between atoms: C_5  and  C_6
REMARK    3  A    between atoms: C_7  and  C_8
REMARK    4  A    between atoms: C_13  and  C_14
REMARK    5  A    between atoms: C_14  and  N_15
REMARK    6  A    between atoms: N_15  and  C_16
REMARK    7  A    between atoms: N_15  and  C_26
REMARK    8  A    between atoms: C_19  and  C_20
REMARK                            x       y       z     vdW  Elec       q    Type
REMARK                         _______ _______ _______ _____ _____    ______ ____
ROOT
ATOM      1  N   UNL     1       3.172   5.718  19.036  0.00  0.00    +0.000 N 
ENDROOT
BRANCH   1   2
ATOM      2  C   UNL     1       4.011   5.407  17.930  0.00  0.00    +0.000 A 
ATOM      3  C   UNL     1       4.437   4.105  17.622  0.00  0.00    +0.000 A 
ATOM      4  C   UNL     1       5.235   3.839  16.496  0.00  0.00    +0.000 A 
ATOM      5  C   UNL     1       5.627   4.867  15.631  0.00  0.00    +0.000 A 
ATOM      6  C   UNL     1       5.227   6.171  15.932  0.00  0.00    +0.000 A 
ATOM      7  C   UNL     1       4.450   6.430  17.067  0.00  0.00    +0.000 A 
BRANCH   5   8
ATOM      8  C   UNL     1       6.436   4.597  14.386  0.00  0.00    +0.000 C 
ATOM      9  F   UNL     1       6.020   5.305  13.300  0.00  0.00    +0.000 F 
ATOM     10  F   UNL     1       7.754   4.903  14.548  0.00  0.00    +0.000 F 
ATOM     11  F   UNL     1       6.402   3.287  14.013  0.00  0.00    +0.000 F 
ENDBRANCH   5   8
ENDBRANCH   1   2
BRANCH   1  12
ATOM     12  C   UNL     1       2.428   4.760  19.779  0.00  0.00    +0.000 A 
ATOM     13  C   UNL     1       1.369   4.004  19.256  0.00  0.00    +0.000 A 
ATOM     14  C   UNL     1       0.754   2.998  20.005  0.00  0.00    +0.000 A 
ATOM     15  C   UNL     1       1.178   2.789  21.302  0.00  0.00    +0.000 A 
ATOM     16  N   UNL     1       2.142   3.519  21.888  0.00  0.00    +0.000 NA
ATOM     17  C   UNL     1       2.731   4.475  21.119  0.00  0.00    +0.000 A 
ENDBRANCH   1  12
BRANCH   1  18
ATOM     18  C   UNL     1       3.007   7.144  19.409  0.00  0.00    +0.000 C 
BRANCH  18  24
ATOM     19  C   UNL     1       0.348  11.649  19.827  0.00  0.00    +0.000 C 
ATOM     20  O   UNL     1      -0.166  12.057  18.783  0.00  0.00    +0.000 OA
ATOM     21  N   UNL     1       1.103  10.468  19.822  0.00  0.00    +0.000 N 
ATOM     22  C   UNL     1       1.527   9.932  18.531  0.00  0.00    +0.000 C 
ATOM     23  C   UNL     1       1.053   8.498  18.363  0.00  0.00    +0.000 C 
ATOM     24  C   UNL     1       1.523   7.579  19.494  0.00  0.00    +0.000 C 
ATOM     25  C   UNL     1       1.200   8.202  20.862  0.00  0.00    +0.000 C 
ATOM     26  C   UNL     1       1.508   9.694  20.984  0.00  0.00    +0.000 C 
BRANCH  19  33
ATOM     27  C   UNL     1       1.711  14.470  20.539  0.00  0.00    +0.000 C 
ATOM     28  C   UNL     1       0.752  13.680  21.353  0.00  0.00    +0.000 A 
ATOM     29  N   UNL     1       0.385  14.137  22.554  0.00  0.00    +0.000 NA
ATOM     30  O   UNL     1      -0.404  13.148  23.097  0.00  0.00    +0.000 OA
ATOM     31  C   UNL     1      -0.512  12.107  22.235  0.00  0.00    +0.000 A 
ATOM     32  C   UNL     1      -1.225  10.945  22.800  0.00  0.00    +0.000 C 
ATOM     33  C   UNL     1       0.139  12.418  21.051  0.00  0.00    +0.000 A 
ENDBRANCH  19  33
ENDBRANCH  18  24
ENDBRANCH   1  18
TORSDOF 6
ENDMDL
MODEL 5
REMARK VINA RESULT:      -8.0      0.550      1.083
REMARK  Name = 
REMARK  8 active torsions:
REMARK  status: ('A' for Active; 'I' for Inactive)
REMARK    1  A    between atoms: C_1  and  C_2
REMARK    2  A    between atoms: C_5  and  C_6
REMARK    3  A    between atoms: C_7  and  C_8
REMARK    4  A    between atoms: C_13  and  C_14
REMARK    5  A    between atoms: C_14  and  N_15
REMARK    6  A    between atoms: N_15  and  C_16
REMARK    7  A    between atoms: N_15  and  C_26
REMARK    8  A    between atoms: C_19  and  C_20
REMARK                            x       y       z     vdW  Elec       q    Type
REMARK                         _______ _______ _______ _____ _____    ______ ____
ROOT
ATOM      1  N   UNL     1       2.489   5.511  18.474  0.00  0.00    +0.000 N 
ENDROOT
BRANCH   1   2
ATOM      2  C   UNL     1       3.495   5.328  17.485  0.00  0.00    +0.000 A 
ATOM      3  C   UNL     1       4.187   6.388  16.878  0.00  0.00    +0.000 A 
ATOM      4  C   UNL     1       5.201   6.159  15.933  0.00  0.00    +0.000 A 
ATOM      5  C   UNL     1       5.567   4.858  15.569  0.00  0.00    +0.000 A 
ATOM      6  C   UNL     1       4.878   3.792  16.150  0.00  0.00    +0.000 A 
ATOM      7  C   UNL     1       3.854   4.029  17.074  0.00  0.00    +0.000 A 
BRANCH   5   8
ATOM      8  C   UNL     1       6.691   4.587  14.598  0.00  0.00    +0.000 C 
ATOM      9  F   UNL     1       6.533   3.438  13.886  0.00  0.00    +0.000 F 
ATOM     10  F   UNL     1       6.831   5.581  13.677  0.00  0.00    +0.000 F 
ATOM     11  F   UNL     1       7.901   4.480  15.215  0.00  0.00    +0.000 F 
ENDBRANCH   5   8
ENDBRANCH   1   2
BRANCH   1  12
ATOM     12  C   UNL     1       2.147   4.549  19.465  0.00  0.00    +0.000 A 
ATOM     13  C   UNL     1       2.729   4.486  20.738  0.00  0.00    +0.000 A 
ATOM     14  C   UNL     1       2.268   3.591  21.706  0.00  0.00    +0.000 A 
ATOM     15  C   UNL     1       1.248   2.723  21.369  0.00  0.00    +0.000 A 
ATOM     16  N   UNL     1       0.688   2.685  20.148  0.00  0.00    +0.000 NA
ATOM     17  C   UNL     1       1.151   3.587  19.239  0.00  0.00    +0.000 A 
ENDBRANCH   1  12
BRANCH   1  18
ATOM     18  C   UNL     1       1.695   6.763  18.438  0.00  0.00    +0.000 C 
BRANCH  18  24
ATOM     19  C   UNL     1       0.103  11.097  20.934  0.00  0.00    +0.000 C 
ATOM     20  O   UNL     1       0.065  11.012  22.164  0.00  0.00    +0.000 OA
ATOM     21  N   UNL     1       0.490   9.988  20.168  0.00  0.00    +0.000 N 
ATOM     22  C   UNL     1       0.522   8.682  20.820  0.00  0.00    +0.000 C 
ATOM     23  C   UNL     1       1.896   8.048  20.686  0.00  0.00    +0.000 C 
ATOM     24  C   UNL     1       2.353   7.919  19.231  0.00  0.00    +0.000 C 
ATOM     25  C   UNL     1       2.195   9.262  18.498  0.00  0.00    +0.000 C 
ATOM     26  C   UNL     1       0.883   9.997  18.768  0.00  0.00    +0.000 C 
BRANCH  19  33
ATOM     27  C   UNL     1       2.144  13.470  20.212  0.00  0.00    +0.000 C 
ATOM     28  C   UNL     1       0.676  13.420  19.992  0.00  0.00    +0.000 A 
ATOM     29  N   UNL     1       0.063  14.473  19.445  0.00  0.00    +0.000 NA
ATOM     30  O   UNL     1      -1.280  14.173  19.476  0.00  0.00    +0.000 OA
ATOM     31  C   UNL     1      -1.476  12.952  20.034  0.00  0.00    +0.000 A 
ATOM     32  C   UNL     1      -2.898  12.616  20.234  0.00  0.00    +0.000 C 
ATOM     33  C   UNL     1      -0.249  12.370  20.313  0.00  0.00    +0.000 A 
ENDBRANCH  19  33
ENDBRANCH  18  24
ENDBRANCH   1  18
TORSDOF 6
ENDMDL
MODEL 6
REMARK VINA RESULT:      -7.9      0.768      1.726
REMARK  Name = 
REMARK  8 active torsions:
REMARK  status: ('A' for Active; 'I' for Inactive)
REMARK    1  A    between atoms: C_1  and  C_2
REMARK    2  A    between atoms: C_5  and  C_6
REMARK    3  A    between atoms: C_7  and  C_8
REMARK    4  A    between atoms: C_13  and  C_14
REMARK    5  A    between atoms: C_14  and  N_15
REMARK    6  A    between atoms: N_15  and  C_16
REMARK    7  A    between atoms: N_15  and  C_26
REMARK    8  A    between atoms: C_19  and  C_20
REMARK                            x       y       z     vdW  Elec       q    Type
REMARK                         _______ _______ _______ _____ _____    ______ ____
ROOT
ATOM      1  N   UNL     1       2.476   5.380  18.567  0.00  0.00    +0.000 N 
ENDROOT
BRANCH   1   2
ATOM      2  C   UNL     1       3.512   5.124  17.627  0.00  0.00    +0.000 A 
ATOM      3  C   UNL     1       3.856   3.837  17.182  0.00  0.00    +0.000 A 
ATOM      4  C   UNL     1       4.861   3.635  16.222  0.00  0.00    +0.000 A 
ATOM      5  C   UNL     1       5.554   4.715  15.664  0.00  0.00    +0.000 A 
ATOM      6  C   UNL     1       5.237   6.001  16.107  0.00  0.00    +0.000 A 
ATOM      7  C   UNL     1       4.250   6.193  17.079  0.00  0.00    +0.000 A 
BRANCH   5   8
ATOM      8  C   UNL     1       6.598   4.526  14.591  0.00  0.00    +0.000 C 
ATOM      9  F   UNL     1       6.578   5.492  13.631  0.00  0.00    +0.000 F 
ATOM     10  F   UNL     1       7.864   4.527  15.094  0.00  0.00    +0.000 F 
ATOM     11  F   UNL     1       6.462   3.342  13.931  0.00  0.00    +0.000 F 
ENDBRANCH   5   8
ENDBRANCH   1   2
BRANCH   1  12
ATOM     12  C   UNL     1       2.034   4.454  19.552  0.00  0.00    +0.000 A 
ATOM     13  C   UNL     1       1.104   3.432  19.315  0.00  0.00    +0.000 A 
ATOM     14  C   UNL     1       0.797   2.485  20.294  0.00  0.00    +0.000 A 
ATOM     15  C   UNL     1       1.396   2.599  21.532  0.00  0.00    +0.000 A 
ATOM     16  N   UNL     1       2.247   3.590  21.850  0.00  0.00    +0.000 NA
ATOM     17  C   UNL     1       2.536   4.481  20.862  0.00  0.00    +0.000 A 
ENDBRANCH   1  12
BRANCH   1  18
ATOM     18  C   UNL     1       1.760   6.676  18.483  0.00  0.00    +0.000 C 
BRANCH  18  24
ATOM     19  C   UNL     1       0.449  11.311  20.566  0.00  0.00    +0.000 C 
ATOM     20  O   UNL     1       0.306  11.317  21.791  0.00  0.00    +0.000 OA
ATOM     21  N   UNL     1       0.774  10.119  19.904  0.00  0.00    +0.000 N 
ATOM     22  C   UNL     1       0.616   8.864  20.635  0.00  0.00    +0.000 C 
ATOM     23  C   UNL     1       1.921   8.087  20.657  0.00  0.00    +0.000 C 
ATOM     24  C   UNL     1       2.474   7.812  19.256  0.00  0.00    +0.000 C 
ATOM     25  C   UNL     1       2.517   9.110  18.431  0.00  0.00    +0.000 C 
ATOM     26  C   UNL     1       1.274   9.991  18.545  0.00  0.00    +0.000 C 
BRANCH  19  33
ATOM     27  C   UNL     1      -2.062  12.112  18.729  0.00  0.00    +0.000 C 
ATOM     28  C   UNL     1      -0.847  12.913  19.027  0.00  0.00    +0.000 A 
ATOM     29  N   UNL     1      -0.713  14.122  18.475  0.00  0.00    +0.000 NA
ATOM     30  O   UNL     1       0.541  14.556  18.843  0.00  0.00    +0.000 OA
ATOM     31  C   UNL     1       1.156  13.620  19.609  0.00  0.00    +0.000 A 
ATOM     32  C   UNL     1       2.559  13.947  19.928  0.00  0.00    +0.000 C 
ATOM     33  C   UNL     1       0.283  12.567  19.841  0.00  0.00    +0.000 A 
ENDBRANCH  19  33
ENDBRANCH  18  24
ENDBRANCH   1  18
TORSDOF 6
ENDMDL
MODEL 7
REMARK VINA RESULT:      -7.9      0.487      1.536
REMARK  Name = 
REMARK  8 active torsions:
REMARK  status: ('A' for Active; 'I' for Inactive)
REMARK    1  A    between atoms: C_1  and  C_2
REMARK    2  A    between atoms: C_5  and  C_6
REMARK    3  A    between atoms: C_7  and  C_8
REMARK    4  A    between atoms: C_13  and  C_14
REMARK    5  A    between atoms: C_14  and  N_15
REMARK    6  A    between atoms: N_15  and  C_16
REMARK    7  A    between atoms: N_15  and  C_26
REMARK    8  A    between atoms: C_19  and  C_20
REMARK                            x       y       z     vdW  Elec       q    Type
REMARK                         _______ _______ _______ _____ _____    ______ ____
ROOT
ATOM      1  N   UNL     1       2.355   5.515  18.710  0.00  0.00    +0.000 N 
ENDROOT
BRANCH   1   2
ATOM      2  C   UNL     1       3.369   5.328  17.730  0.00  0.00    +0.000 A 
ATOM      3  C   UNL     1       4.145   6.375  17.208  0.00  0.00    +0.000 A 
ATOM      4  C   UNL     1       5.164   6.138  16.269  0.00  0.00    +0.000 A 
ATOM      5  C   UNL     1       5.449   4.841  15.826  0.00  0.00    +0.000 A 
ATOM      6  C   UNL     1       4.676   3.790  16.322  0.00  0.00    +0.000 A 
ATOM      7  C   UNL     1       3.649   4.036  17.241  0.00  0.00    +0.000 A 
BRANCH   5   8
ATOM      8  C   UNL     1       6.574   4.557  14.861  0.00  0.00    +0.000 C 
ATOM      9  F   UNL     1       7.802   4.518  15.449  0.00  0.00    +0.000 F 
ATOM     10  F   UNL     1       6.426   3.360  14.230  0.00  0.00    +0.000 F 
ATOM     11  F   UNL     1       6.665   5.491  13.872  0.00  0.00    +0.000 F 
ENDBRANCH   5   8
ENDBRANCH   1   2
BRANCH   1  12
ATOM     12  C   UNL     1       1.964   4.536  19.665  0.00  0.00    +0.000 A 
ATOM     13  C   UNL     1       1.043   3.510  19.412  0.00  0.00    +0.000 A 
ATOM     14  C   UNL     1       0.788   2.513  20.356  0.00  0.00    +0.000 A 
ATOM     15  C   UNL     1       1.429   2.579  21.576  0.00  0.00    +0.000 A 
ATOM     16  N   UNL     1       2.276   3.569  21.909  0.00  0.00    +0.000 NA
ATOM     17  C   UNL     1       2.513   4.511  20.956  0.00  0.00    +0.000 A 
ENDBRANCH   1  12
BRANCH   1  18
ATOM     18  C   UNL     1       1.606   6.795  18.703  0.00  0.00    +0.000 C 
BRANCH  18  24
ATOM     19  C   UNL     1       0.111  11.195  21.142  0.00  0.00    +0.000 C 
ATOM     20  O   UNL     1      -0.038  11.096  22.363  0.00  0.00    +0.000 OA
ATOM     21  N   UNL     1       0.484  10.073  20.389  0.00  0.00    +0.000 N 
ATOM     22  C   UNL     1       0.369   8.759  21.016  0.00  0.00    +0.000 C 
ATOM     23  C   UNL     1       1.702   8.031  20.986  0.00  0.00    +0.000 C 
ATOM     24  C   UNL     1       2.272   7.890  19.572  0.00  0.00    +0.000 C 
ATOM     25  C   UNL     1       2.271   9.251  18.855  0.00  0.00    +0.000 C 
ATOM     26  C   UNL     1       0.996  10.074  19.028  0.00  0.00    +0.000 C 
BRANCH  19  33
ATOM     27  C   UNL     1      -2.489  12.101  19.487  0.00  0.00    +0.000 C 
ATOM     28  C   UNL     1      -1.267  12.891  19.787  0.00  0.00    +0.000 A 
ATOM     29  N   UNL     1      -1.167  14.139  19.319  0.00  0.00    +0.000 NA
ATOM     30  O   UNL     1       0.099  14.557  19.660  0.00  0.00    +0.000 OA
ATOM     31  C   UNL     1       0.756  13.575  20.326  0.00  0.00    +0.000 A 
ATOM     32  C   UNL     1       2.170  13.893  20.602  0.00  0.00    +0.000 C 
ATOM     33  C   UNL     1      -0.097  12.499  20.519  0.00  0.00    +0.000 A 
ENDBRANCH  19  33
ENDBRANCH  18  24
ENDBRANCH   1  18
TORSDOF 6
ENDMDL
MODEL 8
REMARK VINA RESULT:      -7.8      3.412      6.126
REMARK  Name = 
REMARK  8 active torsions:
REMARK  status: ('A' for Active; 'I' for Inactive)
REMARK    1  A    between atoms: C_1  and  C_2
REMARK    2  A    between atoms: C_5  and  C_6
REMARK    3  A    between atoms: C_7  and  C_8
REMARK    4  A    between atoms: C_13  and  C_14
REMARK    5  A    between atoms: C_14  and  N_15
REMARK    6  A    between atoms: N_15  and  C_16
REMARK    7  A    between atoms: N_15  and  C_26
REMARK    8  A    between atoms: C_19  and  C_20
REMARK                            x       y       z     vdW  Elec       q    Type
REMARK                         _______ _______ _______ _____ _____    ______ ____
ROOT
ATOM      1  N   UNL     1       0.096  10.530  19.446  0.00  0.00    +0.000 N 
ENDROOT
BRANCH   1   2
ATOM      2  C   UNL     1       0.979   9.463  19.126  0.00  0.00    +0.000 A 
ATOM      3  C   UNL     1       1.638   9.345  17.892  0.00  0.00    +0.000 A 
ATOM      4  C   UNL     1       2.533   8.293  17.632  0.00  0.00    +0.000 A 
ATOM      5  C   UNL     1       2.809   7.326  18.605  0.00  0.00    +0.000 A 
ATOM      6  C   UNL     1       2.150   7.417  19.833  0.00  0.00    +0.000 A 
ATOM      7  C   UNL     1       1.244   8.455  20.075  0.00  0.00    +0.000 A 
BRANCH   5   8
ATOM      8  C   UNL     1       3.809   6.220  18.369  0.00  0.00    +0.000 C 
ATOM      9  F   UNL     1       3.317   5.187  17.631  0.00  0.00    +0.000 F 
ATOM     10  F   UNL     1       4.918   6.655  17.709  0.00  0.00    +0.000 F 
ATOM     11  F   UNL     1       4.261   5.666  19.529  0.00  0.00    +0.000 F 
ENDBRANCH   5   8
ENDBRANCH   1   2
BRANCH   1  12
ATOM     12  C   UNL     1      -1.181  10.727  18.851  0.00  0.00    +0.000 A 
ATOM     13  C   UNL     1      -2.157  11.604  19.345  0.00  0.00    +0.000 A 
ATOM     14  C   UNL     1      -3.346  11.837  18.651  0.00  0.00    +0.000 A 
ATOM     15  C   UNL     1      -3.570  11.145  17.478  0.00  0.00    +0.000 A 
ATOM     16  N   UNL     1      -2.709  10.242  16.979  0.00  0.00    +0.000 NA
ATOM     17  C   UNL     1      -1.553  10.058  17.674  0.00  0.00    +0.000 A 
ENDBRANCH   1  12
BRANCH   1  18
ATOM     18  C   UNL     1       0.554  11.548  20.422  0.00  0.00    +0.000 C 
BRANCH  18  24
ATOM     19  C   UNL     1       0.963  16.700  19.506  0.00  0.00    +0.000 C 
ATOM     20  O   UNL     1       1.645  17.327  20.320  0.00  0.00    +0.000 OA
ATOM     21  N   UNL     1       0.767  15.322  19.671  0.00  0.00    +0.000 N 
ATOM     22  C   UNL     1       1.101  14.733  20.965  0.00  0.00    +0.000 C 
ATOM     23  C   UNL     1       2.101  13.601  20.798  0.00  0.00    +0.000 C 
ATOM     24  C   UNL     1       1.614  12.513  19.837  0.00  0.00    +0.000 C 
ATOM     25  C   UNL     1       1.133  13.140  18.517  0.00  0.00    +0.000 C 
ATOM     26  C   UNL     1       0.270  14.391  18.671  0.00  0.00    +0.000 C 
BRANCH  19  33
ATOM     27  C   UNL     1       2.498  17.508  16.802  0.00  0.00    +0.000 C 
ATOM     28  C   UNL     1       1.084  17.774  17.172  0.00  0.00    +0.000 A 
ATOM     29  N   UNL     1       0.303  18.448  16.323  0.00  0.00    +0.000 NA
ATOM     30  O   UNL     1      -0.889  18.629  16.986  0.00  0.00    +0.000 OA
ATOM     31  C   UNL     1      -0.830  18.070  18.220  0.00  0.00    +0.000 A 
ATOM     32  C   UNL     1      -2.020  18.343  19.050  0.00  0.00    +0.000 C 
ATOM     33  C   UNL     1       0.386  17.424  18.377  0.00  0.00    +0.000 A 
ENDBRANCH  19  33
ENDBRANCH  18  24
ENDBRANCH   1  18
TORSDOF 6
ENDMDL
MODEL 9
REMARK VINA RESULT:      -7.8      5.427      9.705
REMARK  Name = 
REMARK  8 active torsions:
REMARK  status: ('A' for Active; 'I' for Inactive)
REMARK    1  A    between atoms: C_1  and  C_2
REMARK    2  A    between atoms: C_5  and  C_6
REMARK    3  A    between atoms: C_7  and  C_8
REMARK    4  A    between atoms: C_13  and  C_14
REMARK    5  A    between atoms: C_14  and  N_15
REMARK    6  A    between atoms: N_15  and  C_16
REMARK    7  A    between atoms: N_15  and  C_26
REMARK    8  A    between atoms: C_19  and  C_20
REMARK                            x       y       z     vdW  Elec       q    Type
REMARK                         _______ _______ _______ _____ _____    ______ ____
ROOT
ATOM      1  N   UNL     1      -0.813  10.772  19.324  0.00  0.00    +0.000 N 
ENDROOT
BRANCH   1   2
ATOM      2  C   UNL     1      -0.379  11.935  20.017  0.00  0.00    +0.000 A 
ATOM      3  C   UNL     1       0.376  12.957  19.419  0.00  0.00    +0.000 A 
ATOM      4  C   UNL     1       0.751  14.108  20.132  0.00  0.00    +0.000 A 
ATOM      5  C   UNL     1       0.375  14.283  21.468  0.00  0.00    +0.000 A 
ATOM      6  C   UNL     1      -0.361  13.269  22.084  0.00  0.00    +0.000 A 
ATOM      7  C   UNL     1      -0.712  12.116  21.374  0.00  0.00    +0.000 A 
BRANCH   5   8
ATOM      8  C   UNL     1       0.719  15.536  22.237  0.00  0.00    +0.000 C 
ATOM      9  F   UNL     1       0.495  16.684  21.539  0.00  0.00    +0.000 F 
ATOM     10  F   UNL     1      -0.002  15.653  23.387  0.00  0.00    +0.000 F 
ATOM     11  F   UNL     1       2.028  15.577  22.612  0.00  0.00    +0.000 F 
ENDBRANCH   5   8
ENDBRANCH   1   2
BRANCH   1  12
ATOM     12  C   UNL     1      -1.787  10.766  18.287  0.00  0.00    +0.000 A 
ATOM     13  C   UNL     1      -1.731   9.941  17.155  0.00  0.00    +0.000 A 
ATOM     14  C   UNL     1      -2.776   9.901  16.231  0.00  0.00    +0.000 A 
ATOM     15  C   UNL     1      -3.860  10.734  16.425  0.00  0.00    +0.000 A 
ATOM     16  N   UNL     1      -3.951  11.597  17.451  0.00  0.00    +0.000 NA
ATOM     17  C   UNL     1      -2.921  11.590  18.342  0.00  0.00    +0.000 A 
ENDBRANCH   1  12
BRANCH   1  18
ATOM     18  C   UNL     1      -0.263   9.461  19.747  0.00  0.00    +0.000 C 
BRANCH  18  24
ATOM     19  C   UNL     1       3.628   6.531  17.793  0.00  0.00    +0.000 C 
ATOM     20  O   UNL     1       4.223   7.020  16.830  0.00  0.00    +0.000 OA
ATOM     21  N   UNL     1       2.555   7.219  18.376  0.00  0.00    +0.000 N 
ATOM     22  C   UNL     1       1.967   8.329  17.631  0.00  0.00    +0.000 C 
ATOM     23  C   UNL     1       1.988   9.603  18.460  0.00  0.00    +0.000 C 
ATOM     24  C   UNL     1       1.284   9.446  19.810  0.00  0.00    +0.000 C 
ATOM     25  C   UNL     1       1.802   8.197  20.544  0.00  0.00    +0.000 C 
ATOM     26  C   UNL     1       1.956   6.951  19.674  0.00  0.00    +0.000 C 
BRANCH  19  33
ATOM     27  C   UNL     1       1.856   3.860  17.998  0.00  0.00    +0.000 C 
ATOM     28  C   UNL     1       3.276   4.054  18.387  0.00  0.00    +0.000 A 
ATOM     29  N   UNL     1       3.952   3.030  18.915  0.00  0.00    +0.000 NA
ATOM     30  O   UNL     1       5.179   3.545  19.270  0.00  0.00    +0.000 OA
ATOM     31  C   UNL     1       5.243   4.863  18.959  0.00  0.00    +0.000 A 
ATOM     32  C   UNL     1       6.473   5.524  19.437  0.00  0.00    +0.000 C 
ATOM     33  C   UNL     1       4.079   5.241  18.307  0.00  0.00    +0.000 A 
ENDBRANCH  19  33
ENDBRANCH  18  24
ENDBRANCH   1  18
TORSDOF 6
ENDMDL
