MODEL 1
REMARK VINA RESULT:      -7.5      0.000      0.000
REMARK  Name = 
REMARK  4 active torsions:
REMARK  status: ('A' for Active; 'I' for Inactive)
REMARK    1  A    between atoms: N_3  and  C_4
REMARK    2  A    between atoms: C_4  and  C_5
REMARK    3  A    between atoms: C_15  and  C_16
REMARK    4  A    between atoms: C_16  and  O_17
REMARK                            x       y       z     vdW  Elec       q    Type
REMARK                         _______ _______ _______ _____ _____    ______ ____
ROOT
ATOM      1  O   UNL     1       5.995   4.139  18.741  0.00  0.00    +0.000 OA
ATOM      2  C   UNL     1       5.078   4.050  17.928  0.00  0.00    +0.000 C 
ATOM      3  N   UNL     1       5.230   4.442  16.626  0.00  0.00    +0.000 N 
ATOM      4  N   UNL     1       3.835   3.533  18.253  0.00  0.00    +0.000 N 
ATOM      5  C   UNL     1       2.714   3.317  17.340  0.00  0.00    +0.000 C 
ATOM      6  C   UNL     1       1.517   4.134  17.813  0.00  0.00    +0.000 C 
ATOM      7  C   UNL     1       1.142   3.758  19.247  0.00  0.00    +0.000 C 
ATOM      8  C   UNL     1       2.352   3.860  20.200  0.00  0.00    +0.000 C 
ATOM      9  C   UNL     1       3.571   3.117  19.632  0.00  0.00    +0.000 C 
ATOM     10  H   UNL     1       4.406   4.782  16.161  0.00  0.00    +0.000 HD
ENDROOT
BRANCH   3  11
ATOM     11  C   UNL     1       6.470   5.011  16.153  0.00  0.00    +0.000 C 
BRANCH  11  12
ATOM     12  C   UNL     1       6.669   4.708  14.690  0.00  0.00    +0.000 A 
ATOM     13  C   UNL     1       7.622   5.397  13.926  0.00  0.00    +0.000 A 
ATOM     14  C   UNL     1       7.782   5.112  12.568  0.00  0.00    +0.000 A 
ATOM     15  C   UNL     1       6.989   4.141  11.958  0.00  0.00    +0.000 A 
ATOM     16  C   UNL     1       6.030   3.458  12.704  0.00  0.00    +0.000 A 
ATOM     17  C   UNL     1       5.865   3.745  14.060  0.00  0.00    +0.000 A 
ENDBRANCH  11  12
ENDBRANCH   3  11
BRANCH   8  18
ATOM     18  C   UNL     1       2.000   3.325  21.591  0.00  0.00    +0.000 C 
BRANCH  18  19
ATOM     19  O   UNL     1       2.931   2.329  21.996  0.00  0.00    +0.000 OA
ATOM     20  H   UNL     1       3.779   2.773  22.169  0.00  0.00    +0.000 HD
ENDBRANCH  18  19
ENDBRANCH   8  18
TORSDOF 4
ENDMDL
MODEL 2
REMARK VINA RESULT:      -7.5      0.176      1.150
REMARK  Name = 
REMARK  4 active torsions:
REMARK  status: ('A' for Active; 'I' for Inactive)
REMARK    1  A    between atoms: N_3  and  C_4
REMARK    2  A    between atoms: C_4  and  C_5
REMARK    3  A    between atoms: C_15  and  C_16
REMARK    4  A    between atoms: C_16  and  O_17
REMARK                            x       y       z     vdW  Elec       q    Type
REMARK                         _______ _______ _______ _____ _____    ______ ____
ROOT
ATOM      1  O   UNL     1       6.049   4.469  18.729  0.00  0.00    +0.000 OA
ATOM      2  C   UNL     1       5.141   4.246  17.932  0.00  0.00    +0.000 C 
ATOM      3  N   UNL     1       5.261   4.544  16.602  0.00  0.00    +0.000 N 
ATOM      4  N   UNL     1       3.941   3.664  18.306  0.00  0.00    +0.000 N 
ATOM      5  C   UNL     1       2.840   3.291  17.421  0.00  0.00    +0.000 C 
ATOM      6  C   UNL     1       1.584   4.050  17.835  0.00  0.00    +0.000 C 
ATOM      7  C   UNL     1       1.239   3.763  19.297  0.00  0.00    +0.000 C 
ATOM      8  C   UNL     1       2.439   4.032  20.231  0.00  0.00    +0.000 C 
ATOM      9  C   UNL     1       3.710   3.341  19.715  0.00  0.00    +0.000 C 
ATOM     10  H   UNL     1       4.414   4.782  16.117  0.00  0.00    +0.000 HD
ENDROOT
BRANCH   3  11
ATOM     11  C   UNL     1       6.455   5.165  16.077  0.00  0.00    +0.000 C 
BRANCH  11  12
ATOM     12  C   UNL     1       6.643   4.810  14.624  0.00  0.00    +0.000 A 
ATOM     13  C   UNL     1       5.821   3.866  13.992  0.00  0.00    +0.000 A 
ATOM     14  C   UNL     1       6.019   3.540  12.649  0.00  0.00    +0.000 A 
ATOM     15  C   UNL     1       7.043   4.149  11.924  0.00  0.00    +0.000 A 
ATOM     16  C   UNL     1       7.874   5.079  12.544  0.00  0.00    +0.000 A 
ATOM     17  C   UNL     1       7.680   5.403  13.888  0.00  0.00    +0.000 A 
ENDBRANCH  11  12
ENDBRANCH   3  11
BRANCH   8  18
ATOM     18  C   UNL     1       2.130   3.585  21.662  0.00  0.00    +0.000 C 
BRANCH  18  19
ATOM     19  O   UNL     1       2.893   2.434  22.004  0.00  0.00    +0.000 OA
ATOM     20  H   UNL     1       3.815   2.719  22.124  0.00  0.00    +0.000 HD
ENDBRANCH  18  19
ENDBRANCH   8  18
TORSDOF 4
ENDMDL
MODEL 3
REMARK VINA RESULT:      -7.1      1.049      1.188
REMARK  Name = 
REMARK  4 active torsions:
REMARK  status: ('A' for Active; 'I' for Inactive)
REMARK    1  A    between atoms: N_3  and  C_4
REMARK    2  A    between atoms: C_4  and  C_5
REMARK    3  A    between atoms: C_15  and  C_16
REMARK    4  A    between atoms: C_16  and  O_17
REMARK                            x       y       z     vdW  Elec       q    Type
REMARK                         _______ _______ _______ _____ _____    ______ ____
ROOT
ATOM      1  O   UNL     1       5.248   5.695  18.365  0.00  0.00    +0.000 OA
ATOM      2  C   UNL     1       5.081   4.572  17.896  0.00  0.00    +0.000 C 
ATOM      3  N   UNL     1       5.795   4.130  16.816  0.00  0.00    +0.000 N 
ATOM      4  N   UNL     1       4.181   3.663  18.428  0.00  0.00    +0.000 N 
ATOM      5  C   UNL     1       3.971   2.285  17.989  0.00  0.00    +0.000 C 
ATOM      6  C   UNL     1       2.524   2.115  17.542  0.00  0.00    +0.000 C 
ATOM      7  C   UNL     1       1.564   2.487  18.674  0.00  0.00    +0.000 C 
ATOM      8  C   UNL     1       1.859   3.894  19.234  0.00  0.00    +0.000 C 
ATOM      9  C   UNL     1       3.350   4.061  19.565  0.00  0.00    +0.000 C 
ATOM     10  H   UNL     1       5.337   3.466  16.216  0.00  0.00    +0.000 HD
ENDROOT
BRANCH   3  11
ATOM     11  C   UNL     1       6.759   4.978  16.155  0.00  0.00    +0.000 C 
BRANCH  11  12
ATOM     12  C   UNL     1       6.808   4.676  14.679  0.00  0.00    +0.000 A 
ATOM     13  C   UNL     1       7.706   5.337  13.829  0.00  0.00    +0.000 A 
ATOM     14  C   UNL     1       7.728   5.053  12.462  0.00  0.00    +0.000 A 
ATOM     15  C   UNL     1       6.850   4.110  11.929  0.00  0.00    +0.000 A 
ATOM     16  C   UNL     1       5.945   3.455  12.761  0.00  0.00    +0.000 A 
ATOM     17  C   UNL     1       5.919   3.741  14.127  0.00  0.00    +0.000 A 
ENDBRANCH  11  12
ENDBRANCH   3  11
BRANCH   8  18
ATOM     18  C   UNL     1       1.001   4.183  20.469  0.00  0.00    +0.000 C 
BRANCH  18  19
ATOM     19  O   UNL     1       0.772   2.992  21.211  0.00  0.00    +0.000 OA
ATOM     20  H   UNL     1       0.972   3.184  22.143  0.00  0.00    +0.000 HD
ENDBRANCH  18  19
ENDBRANCH   8  18
TORSDOF 4
ENDMDL
MODEL 4
REMARK VINA RESULT:      -6.9      5.680      7.831
REMARK  Name = 
REMARK  4 active torsions:
REMARK  status: ('A' for Active; 'I' for Inactive)
REMARK    1  A    between atoms: N_3  and  C_4
REMARK    2  A    between atoms: C_4  and  C_5
REMARK    3  A    between atoms: C_15  and  C_16
REMARK    4  A    between atoms: C_16  and  O_17
REMARK                            x       y       z     vdW  Elec       q    Type
REMARK                         _______ _______ _______ _____ _____    ______ ____
ROOT
ATOM      1  O   UNL     1       2.233   8.812  17.377  0.00  0.00    +0.000 OA
ATOM      2  C   UNL     1       1.968   8.661  18.567  0.00  0.00    +0.000 C 
ATOM      3  N   UNL     1       2.278   7.507  19.234  0.00  0.00    +0.000 N 
ATOM      4  N   UNL     1       1.358   9.643  19.330  0.00  0.00    +0.000 N 
ATOM      5  C   UNL     1       1.075   9.585  20.763  0.00  0.00    +0.000 C 
ATOM      6  C   UNL     1      -0.427   9.722  20.984  0.00  0.00    +0.000 C 
ATOM      7  C   UNL     1      -0.945  11.024  20.372  0.00  0.00    +0.000 C 
ATOM      8  C   UNL     1      -0.542  11.157  18.888  0.00  0.00    +0.000 C 
ATOM      9  C   UNL     1       0.960  10.900  18.694  0.00  0.00    +0.000 C 
ATOM     10  H   UNL     1       1.671   7.250  19.993  0.00  0.00    +0.000 HD
ENDROOT
BRANCH   3  11
ATOM     11  C   UNL     1       2.905   6.396  18.557  0.00  0.00    +0.000 C 
BRANCH  11  12
ATOM     12  C   UNL     1       2.221   5.102  18.916  0.00  0.00    +0.000 A 
ATOM     13  C   UNL     1       2.050   4.080  17.970  0.00  0.00    +0.000 A 
ATOM     14  C   UNL     1       1.401   2.893  18.318  0.00  0.00    +0.000 A 
ATOM     15  C   UNL     1       0.913   2.716  19.612  0.00  0.00    +0.000 A 
ATOM     16  C   UNL     1       1.065   3.728  20.557  0.00  0.00    +0.000 A 
ATOM     17  C   UNL     1       1.709   4.917  20.210  0.00  0.00    +0.000 A 
ENDBRANCH  11  12
ENDBRANCH   3  11
BRANCH   8  18
ATOM     18  C   UNL     1      -0.925  12.534  18.337  0.00  0.00    +0.000 C 
BRANCH  18  19
ATOM     19  O   UNL     1      -1.570  12.409  17.076  0.00  0.00    +0.000 OA
ATOM     20  H   UNL     1      -2.320  13.027  17.067  0.00  0.00    +0.000 HD
ENDBRANCH  18  19
ENDBRANCH   8  18
TORSDOF 4
ENDMDL
MODEL 5
REMARK VINA RESULT:      -6.9      5.731      7.869
REMARK  Name = 
REMARK  4 active torsions:
REMARK  status: ('A' for Active; 'I' for Inactive)
REMARK    1  A    between atoms: N_3  and  C_4
REMARK    2  A    between atoms: C_4  and  C_5
REMARK    3  A    between atoms: C_15  and  C_16
REMARK    4  A    between atoms: C_16  and  O_17
REMARK                            x       y       z     vdW  Elec       q    Type
REMARK                         _______ _______ _______ _____ _____    ______ ____
ROOT
ATOM      1  O   UNL     1       2.130   8.895  17.339  0.00  0.00    +0.000 OA
ATOM      2  C   UNL     1       1.885   8.720  18.530  0.00  0.00    +0.000 C 
ATOM      3  N   UNL     1       2.180   7.541  19.160  0.00  0.00    +0.000 N 
ATOM      4  N   UNL     1       1.316   9.697  19.330  0.00  0.00    +0.000 N 
ATOM      5  C   UNL     1       1.062   9.608  20.767  0.00  0.00    +0.000 C 
ATOM      6  C   UNL     1      -0.431   9.776  21.023  0.00  0.00    +0.000 C 
ATOM      7  C   UNL     1      -0.929  11.106  20.455  0.00  0.00    +0.000 C 
ATOM      8  C   UNL     1      -0.554  11.268  18.967  0.00  0.00    +0.000 C 
ATOM      9  C   UNL     1       0.937  10.979  18.735  0.00  0.00    +0.000 C 
ATOM     10  H   UNL     1       1.583   7.280  19.925  0.00  0.00    +0.000 HD
ENDROOT
BRANCH   3  11
ATOM     11  C   UNL     1       2.765   6.433  18.442  0.00  0.00    +0.000 C 
BRANCH  11  12
ATOM     12  C   UNL     1       2.140   5.132  18.874  0.00  0.00    +0.000 A 
ATOM     13  C   UNL     1       1.711   4.932  20.194  0.00  0.00    +0.000 A 
ATOM     14  C   UNL     1       1.146   3.714  20.579  0.00  0.00    +0.000 A 
ATOM     15  C   UNL     1       1.008   2.682  19.651  0.00  0.00    +0.000 A 
ATOM     16  C   UNL     1       1.441   2.864  18.340  0.00  0.00    +0.000 A 
ATOM     17  C   UNL     1       2.010   4.079  17.955  0.00  0.00    +0.000 A 
ENDBRANCH  11  12
ENDBRANCH   3  11
BRANCH   8  18
ATOM     18  C   UNL     1      -0.913  12.668  18.461  0.00  0.00    +0.000 C 
BRANCH  18  19
ATOM     19  O   UNL     1      -1.331  12.618  17.102  0.00  0.00    +0.000 OA
ATOM     20  H   UNL     1      -1.559  13.524  16.833  0.00  0.00    +0.000 HD
ENDBRANCH  18  19
ENDBRANCH   8  18
TORSDOF 4
ENDMDL
MODEL 6
REMARK VINA RESULT:      -6.9      1.256      1.747
REMARK  Name = 
REMARK  4 active torsions:
REMARK  status: ('A' for Active; 'I' for Inactive)
REMARK    1  A    between atoms: N_3  and  C_4
REMARK    2  A    between atoms: C_4  and  C_5
REMARK    3  A    between atoms: C_15  and  C_16
REMARK    4  A    between atoms: C_16  and  O_17
REMARK                            x       y       z     vdW  Elec       q    Type
REMARK                         _______ _______ _______ _____ _____    ______ ____
ROOT
ATOM      1  O   UNL     1       5.603   5.685  18.318  0.00  0.00    +0.000 OA
ATOM      2  C   UNL     1       5.293   4.590  17.855  0.00  0.00    +0.000 C 
ATOM      3  N   UNL     1       5.929   4.063  16.763  0.00  0.00    +0.000 N 
ATOM      4  N   UNL     1       4.299   3.797  18.405  0.00  0.00    +0.000 N 
ATOM      5  C   UNL     1       3.916   2.455  17.974  0.00  0.00    +0.000 C 
ATOM      6  C   UNL     1       2.451   2.461  17.553  0.00  0.00    +0.000 C 
ATOM      7  C   UNL     1       1.564   2.947  18.700  0.00  0.00    +0.000 C 
ATOM      8  C   UNL     1       2.037   4.309  19.251  0.00  0.00    +0.000 C 
ATOM      9  C   UNL     1       3.542   4.294  19.555  0.00  0.00    +0.000 C 
ATOM     10  H   UNL     1       5.383   3.460  16.174  0.00  0.00    +0.000 HD
ENDROOT
BRANCH   3  11
ATOM     11  C   UNL     1       6.977   4.788  16.084  0.00  0.00    +0.000 C 
BRANCH  11  12
ATOM     12  C   UNL     1       6.895   4.567  14.595  0.00  0.00    +0.000 A 
ATOM     13  C   UNL     1       5.993   3.646  14.043  0.00  0.00    +0.000 A 
ATOM     14  C   UNL     1       5.941   3.445  12.662  0.00  0.00    +0.000 A 
ATOM     15  C   UNL     1       6.793   4.156  11.819  0.00  0.00    +0.000 A 
ATOM     16  C   UNL     1       7.704   5.064  12.356  0.00  0.00    +0.000 A 
ATOM     17  C   UNL     1       7.759   5.263  13.736  0.00  0.00    +0.000 A 
ENDBRANCH  11  12
ENDBRANCH   3  11
BRANCH   8  18
ATOM     18  C   UNL     1       1.242   4.701  20.500  0.00  0.00    +0.000 C 
BRANCH  18  19
ATOM     19  O   UNL     1       1.902   5.743  21.208  0.00  0.00    +0.000 OA
ATOM     20  H   UNL     1       1.290   6.498  21.255  0.00  0.00    +0.000 HD
ENDBRANCH  18  19
ENDBRANCH   8  18
TORSDOF 4
ENDMDL
MODEL 7
REMARK VINA RESULT:      -6.7      3.063      6.950
REMARK  Name = 
REMARK  4 active torsions:
REMARK  status: ('A' for Active; 'I' for Inactive)
REMARK    1  A    between atoms: N_3  and  C_4
REMARK    2  A    between atoms: C_4  and  C_5
REMARK    3  A    between atoms: C_15  and  C_16
REMARK    4  A    between atoms: C_16  and  O_17
REMARK                            x       y       z     vdW  Elec       q    Type
REMARK                         _______ _______ _______ _____ _____    ______ ____
ROOT
ATOM      1  O   UNL     1       4.338   5.259  16.565  0.00  0.00    +0.000 OA
ATOM      2  C   UNL     1       5.202   4.693  17.231  0.00  0.00    +0.000 C 
ATOM      3  N   UNL     1       4.984   3.469  17.802  0.00  0.00    +0.000 N 
ATOM      4  N   UNL     1       6.461   5.233  17.441  0.00  0.00    +0.000 N 
ATOM      5  C   UNL     1       7.573   4.603  18.149  0.00  0.00    +0.000 C 
ATOM      6  C   UNL     1       7.971   5.474  19.335  0.00  0.00    +0.000 C 
ATOM      7  C   UNL     1       8.340   6.882  18.868  0.00  0.00    +0.000 C 
ATOM      8  C   UNL     1       7.223   7.511  18.009  0.00  0.00    +0.000 C 
ATOM      9  C   UNL     1       6.773   6.554  16.895  0.00  0.00    +0.000 C 
ATOM     10  H   UNL     1       5.478   3.278  18.657  0.00  0.00    +0.000 HD
ENDROOT
BRANCH   3  11
ATOM     11  C   UNL     1       3.713   2.797  17.674  0.00  0.00    +0.000 C 
BRANCH  11  12
ATOM     12  C   UNL     1       2.898   2.959  18.931  0.00  0.00    +0.000 A 
ATOM     13  C   UNL     1       3.412   2.600  20.185  0.00  0.00    +0.000 A 
ATOM     14  C   UNL     1       2.636   2.746  21.337  0.00  0.00    +0.000 A 
ATOM     15  C   UNL     1       1.338   3.247  21.248  0.00  0.00    +0.000 A 
ATOM     16  C   UNL     1       0.811   3.595  20.007  0.00  0.00    +0.000 A 
ATOM     17  C   UNL     1       1.583   3.446  18.854  0.00  0.00    +0.000 A 
ENDBRANCH  11  12
ENDBRANCH   3  11
BRANCH   8  18
ATOM     18  C   UNL     1       7.675   8.849  17.416  0.00  0.00    +0.000 C 
BRANCH  18  19
ATOM     19  O   UNL     1       8.586   9.503  18.290  0.00  0.00    +0.000 OA
ATOM     20  H   UNL     1       9.239   8.844  18.581  0.00  0.00    +0.000 HD
ENDBRANCH  18  19
ENDBRANCH   8  18
TORSDOF 4
ENDMDL
MODEL 8
REMARK VINA RESULT:      -6.7      3.063      6.959
REMARK  Name = 
REMARK  4 active torsions:
REMARK  status: ('A' for Active; 'I' for Inactive)
REMARK    1  A    between atoms: N_3  and  C_4
REMARK    2  A    between atoms: C_4  and  C_5
REMARK    3  A    between atoms: C_15  and  C_16
REMARK    4  A    between atoms: C_16  and  O_17
REMARK                            x       y       z     vdW  Elec       q    Type
REMARK                         _______ _______ _______ _____ _____    ______ ____
ROOT
ATOM      1  O   UNL     1       4.268   5.256  16.592  0.00  0.00    +0.000 OA
ATOM      2  C   UNL     1       5.160   4.688  17.217  0.00  0.00    +0.000 C 
ATOM      3  N   UNL     1       4.980   3.444  17.759  0.00  0.00    +0.000 N 
ATOM      4  N   UNL     1       6.415   5.244  17.405  0.00  0.00    +0.000 N 
ATOM      5  C   UNL     1       7.558   4.614  18.063  0.00  0.00    +0.000 C 
ATOM      6  C   UNL     1       7.976   5.459  19.261  0.00  0.00    +0.000 C 
ATOM      7  C   UNL     1       8.308   6.886  18.823  0.00  0.00    +0.000 C 
ATOM      8  C   UNL     1       7.155   7.519  18.015  0.00  0.00    +0.000 C 
ATOM      9  C   UNL     1       6.688   6.585  16.888  0.00  0.00    +0.000 C 
ATOM     10  H   UNL     1       5.502   3.239  18.594  0.00  0.00    +0.000 HD
ENDROOT
BRANCH   3  11
ATOM     11  C   UNL     1       3.717   2.753  17.649  0.00  0.00    +0.000 C 
BRANCH  11  12
ATOM     12  C   UNL     1       2.919   2.901  18.919  0.00  0.00    +0.000 A 
ATOM     13  C   UNL     1       1.599   3.374  18.899  0.00  0.00    +0.000 A 
ATOM     14  C   UNL     1       0.879   3.518  20.088  0.00  0.00    +0.000 A 
ATOM     15  C   UNL     1       1.472   3.196  21.308  0.00  0.00    +0.000 A 
ATOM     16  C   UNL     1       2.787   2.737  21.342  0.00  0.00    +0.000 A 
ATOM     17  C   UNL     1       3.509   2.597  20.156  0.00  0.00    +0.000 A 
ENDBRANCH  11  12
ENDBRANCH   3  11
BRANCH   8  18
ATOM     18  C   UNL     1       7.567   8.880  17.447  0.00  0.00    +0.000 C 
BRANCH  18  19
ATOM     19  O   UNL     1       8.572   9.478  18.256  0.00  0.00    +0.000 OA
ATOM     20  H   UNL     1       8.690  10.393  17.948  0.00  0.00    +0.000 HD
ENDBRANCH  18  19
ENDBRANCH   8  18
TORSDOF 4
ENDMDL
MODEL 9
REMARK VINA RESULT:      -6.6      2.555      6.862
REMARK  Name = 
REMARK  4 active torsions:
REMARK  status: ('A' for Active; 'I' for Inactive)
REMARK    1  A    between atoms: N_3  and  C_4
REMARK    2  A    between atoms: C_4  and  C_5
REMARK    3  A    between atoms: C_15  and  C_16
REMARK    4  A    between atoms: C_16  and  O_17
REMARK                            x       y       z     vdW  Elec       q    Type
REMARK                         _______ _______ _______ _____ _____    ______ ____
ROOT
ATOM      1  O   UNL     1       3.039   6.315  18.370  0.00  0.00    +0.000 OA
ATOM      2  C   UNL     1       3.463   5.504  17.551  0.00  0.00    +0.000 C 
ATOM      3  N   UNL     1       2.789   4.347  17.267  0.00  0.00    +0.000 N 
ATOM      4  N   UNL     1       4.635   5.700  16.838  0.00  0.00    +0.000 N 
ATOM      5  C   UNL     1       5.175   4.834  15.792  0.00  0.00    +0.000 C 
ATOM      6  C   UNL     1       6.554   4.339  16.213  0.00  0.00    +0.000 C 
ATOM      7  C   UNL     1       7.488   5.518  16.491  0.00  0.00    +0.000 C 
ATOM      8  C   UNL     1       6.872   6.509  17.501  0.00  0.00    +0.000 C 
ATOM      9  C   UNL     1       5.440   6.894  17.099  0.00  0.00    +0.000 C 
ATOM     10  H   UNL     1       3.347   3.558  16.990  0.00  0.00    +0.000 HD
ENDROOT
BRANCH   3  11
ATOM     11  C   UNL     1       1.559   4.010  17.945  0.00  0.00    +0.000 C 
BRANCH  11  12
ATOM     12  C   UNL     1       1.846   3.422  19.302  0.00  0.00    +0.000 A 
ATOM     13  C   UNL     1       0.911   3.502  20.344  0.00  0.00    +0.000 A 
ATOM     14  C   UNL     1       1.200   2.962  21.600  0.00  0.00    +0.000 A 
ATOM     15  C   UNL     1       2.428   2.342  21.829  0.00  0.00    +0.000 A 
ATOM     16  C   UNL     1       3.370   2.267  20.806  0.00  0.00    +0.000 A 
ATOM     17  C   UNL     1       3.084   2.810  19.552  0.00  0.00    +0.000 A 
ENDBRANCH  11  12
ENDBRANCH   3  11
BRANCH   8  18
ATOM     18  C   UNL     1       7.743   7.760  17.641  0.00  0.00    +0.000 C 
BRANCH  18  19
ATOM     19  O   UNL     1       8.526   7.696  18.827  0.00  0.00    +0.000 OA
ATOM     20  H   UNL     1       7.944   7.400  19.547  0.00  0.00    +0.000 HD
ENDBRANCH  18  19
ENDBRANCH   8  18
TORSDOF 4
ENDMDL
