MODEL 1
REMARK VINA RESULT:      -7.4      0.000      0.000
REMARK  Name = 
REMARK  4 active torsions:
REMARK  status: ('A' for Active; 'I' for Inactive)
REMARK    1  A    between atoms: C_1  and  N_2
REMARK    2  A    between atoms: C_5  and  N_6
REMARK    3  A    between atoms: C_11  and  C_12
REMARK    4  A    between atoms: C_22  and  C_23
REMARK                            x       y       z     vdW  Elec       q    Type
REMARK                         _______ _______ _______ _____ _____    ______ ____
ROOT
ATOM      1  N   UNL     1       0.186  11.912  20.174  0.00  0.00    +0.000 N 
ATOM      2  C   UNL     1       0.793  13.057  20.715  0.00  0.00    +0.000 C 
ATOM      3  O   UNL     1       1.931  13.050  21.194  0.00  0.00    +0.000 OA
ATOM      4  C   UNL     1      -0.005  14.351  20.647  0.00  0.00    +0.000 C 
ATOM      5  N   UNL     1      -1.053  14.308  21.659  0.00  0.00    +0.000 NA
ATOM      6  C   UNL     1      -2.039  13.493  21.492  0.00  0.00    +0.000 C 
ATOM      7  C   UNL     1      -2.219  12.641  20.273  0.00  0.00    +0.000 A 
ATOM      8  C   UNL     1      -3.525  12.544  19.745  0.00  0.00    +0.000 A 
ATOM      9  C   UNL     1      -3.819  11.686  18.686  0.00  0.00    +0.000 A 
ATOM     10  C   UNL     1      -2.795  10.966  18.081  0.00  0.00    +0.000 A 
ATOM     11  C   UNL     1      -1.485  11.133  18.560  0.00  0.00    +0.000 A 
ATOM     12  C   UNL     1      -1.165  11.916  19.681  0.00  0.00    +0.000 A 
ENDROOT
BRANCH   1  17
ATOM     13  C   UNL     1       1.856   6.434  20.571  0.00  0.00    +0.000 C 
ATOM     14  N   UNL     1       1.215   7.736  20.397  0.00  0.00    +0.000 NA
ATOM     15  C   UNL     1       1.203   8.484  21.660  0.00  0.00    +0.000 C 
ATOM     16  C   UNL     1       0.396   9.772  21.509  0.00  0.00    +0.000 C 
ATOM     17  C   UNL     1       0.917  10.619  20.336  0.00  0.00    +0.000 C 
ATOM     18  C   UNL     1       1.104   9.789  19.055  0.00  0.00    +0.000 C 
ATOM     19  C   UNL     1       1.886   8.506  19.341  0.00  0.00    +0.000 C 
ENDBRANCH   1  17
BRANCH   6  20
ATOM     20  C   UNL     1      -3.077  13.453  22.572  0.00  0.00    +0.000 A 
ATOM     21  C   UNL     1      -3.987  14.513  22.676  0.00  0.00    +0.000 A 
ATOM     22  C   UNL     1      -4.999  14.483  23.642  0.00  0.00    +0.000 A 
ATOM     23  C   UNL     1      -5.105  13.397  24.511  0.00  0.00    +0.000 A 
ATOM     24  C   UNL     1      -4.186  12.351  24.429  0.00  0.00    +0.000 A 
ATOM     25  C   UNL     1      -3.173  12.389  23.475  0.00  0.00    +0.000 A 
ATOM     26  F   UNL     1      -2.296  11.376  23.449  0.00  0.00    +0.000 F 
ENDBRANCH   6  20
BRANCH  10  27
ATOM     27  C   UNL     1      -3.040  10.007  16.942  0.00  0.00    +0.000 C 
ATOM     28  F   UNL     1      -3.823  10.528  15.955  0.00  0.00    +0.000 F 
ATOM     29  F   UNL     1      -1.888   9.612  16.341  0.00  0.00    +0.000 F 
ATOM     30  F   UNL     1      -3.663   8.867  17.349  0.00  0.00    +0.000 F 
ENDBRANCH  10  27
TORSDOF 3
ENDMDL
MODEL 2
REMARK VINA RESULT:      -7.0      0.826      1.316
REMARK  Name = 
REMARK  4 active torsions:
REMARK  status: ('A' for Active; 'I' for Inactive)
REMARK    1  A    between atoms: C_1  and  N_2
REMARK    2  A    between atoms: C_5  and  N_6
REMARK    3  A    between atoms: C_11  and  C_12
REMARK    4  A    between atoms: C_22  and  C_23
REMARK                            x       y       z     vdW  Elec       q    Type
REMARK                         _______ _______ _______ _____ _____    ______ ____
ROOT
ATOM      1  N   UNL     1      -0.045  11.259  19.772  0.00  0.00    +0.000 N 
ATOM      2  C   UNL     1       0.759  12.147  20.503  0.00  0.00    +0.000 C 
ATOM      3  O   UNL     1       1.856  11.828  20.971  0.00  0.00    +0.000 OA
ATOM      4  C   UNL     1       0.238  13.568  20.665  0.00  0.00    +0.000 C 
ATOM      5  N   UNL     1      -0.830  13.563  21.657  0.00  0.00    +0.000 NA
ATOM      6  C   UNL     1      -1.953  13.005  21.352  0.00  0.00    +0.000 C 
ATOM      7  C   UNL     1      -2.259  12.430  20.002  0.00  0.00    +0.000 A 
ATOM      8  C   UNL     1      -3.540  12.691  19.469  0.00  0.00    +0.000 A 
ATOM      9  C   UNL     1      -3.964  12.105  18.276  0.00  0.00    +0.000 A 
ATOM     10  C   UNL     1      -3.084  11.308  17.553  0.00  0.00    +0.000 A 
ATOM     11  C   UNL     1      -1.784  11.123  18.050  0.00  0.00    +0.000 A 
ATOM     12  C   UNL     1      -1.351  11.621  19.290  0.00  0.00    +0.000 A 
ENDROOT
BRANCH   1  17
ATOM     13  C   UNL     1       2.827   6.288  19.787  0.00  0.00    +0.000 C 
ATOM     14  N   UNL     1       2.306   7.651  19.866  0.00  0.00    +0.000 NA
ATOM     15  C   UNL     1       1.859   8.116  18.548  0.00  0.00    +0.000 C 
ATOM     16  C   UNL     1       1.462   9.590  18.609  0.00  0.00    +0.000 C 
ATOM     17  C   UNL     1       0.408   9.837  19.702  0.00  0.00    +0.000 C 
ATOM     18  C   UNL     1       0.793   9.188  21.042  0.00  0.00    +0.000 C 
ATOM     19  C   UNL     1       1.213   7.731  20.846  0.00  0.00    +0.000 C 
ENDBRANCH   1  17
BRANCH   6  20
ATOM     20  C   UNL     1      -3.014  12.989  22.411  0.00  0.00    +0.000 A 
ATOM     21  C   UNL     1      -4.029  13.954  22.365  0.00  0.00    +0.000 A 
ATOM     22  C   UNL     1      -5.061  13.937  23.310  0.00  0.00    +0.000 A 
ATOM     23  C   UNL     1      -5.083  12.962  24.307  0.00  0.00    +0.000 A 
ATOM     24  C   UNL     1      -4.060  12.014  24.372  0.00  0.00    +0.000 A 
ATOM     25  C   UNL     1      -3.028  12.041  23.438  0.00  0.00    +0.000 A 
ATOM     26  F   UNL     1      -2.053  11.129  23.554  0.00  0.00    +0.000 F 
ENDBRANCH   6  20
BRANCH  10  27
ATOM     27  C   UNL     1      -3.477  10.630  16.263  0.00  0.00    +0.000 C 
ATOM     28  F   UNL     1      -2.785  11.083  15.180  0.00  0.00    +0.000 F 
ATOM     29  F   UNL     1      -3.280   9.287  16.303  0.00  0.00    +0.000 F 
ATOM     30  F   UNL     1      -4.795  10.808  15.966  0.00  0.00    +0.000 F 
ENDBRANCH  10  27
TORSDOF 3
ENDMDL
MODEL 3
REMARK VINA RESULT:      -7.0      1.084      1.323
REMARK  Name = 
REMARK  4 active torsions:
REMARK  status: ('A' for Active; 'I' for Inactive)
REMARK    1  A    between atoms: C_1  and  N_2
REMARK    2  A    between atoms: C_5  and  N_6
REMARK    3  A    between atoms: C_11  and  C_12
REMARK    4  A    between atoms: C_22  and  C_23
REMARK                            x       y       z     vdW  Elec       q    Type
REMARK                         _______ _______ _______ _____ _____    ______ ____
ROOT
ATOM      1  N   UNL     1      -0.761  12.557  20.649  0.00  0.00    +0.000 N 
ATOM      2  C   UNL     1      -0.353  13.724  21.315  0.00  0.00    +0.000 C 
ATOM      3  O   UNL     1       0.716  13.807  21.928  0.00  0.00    +0.000 OA
ATOM      4  C   UNL     1      -1.278  14.928  21.214  0.00  0.00    +0.000 C 
ATOM      5  N   UNL     1      -2.424  14.711  22.088  0.00  0.00    +0.000 NA
ATOM      6  C   UNL     1      -3.286  13.809  21.763  0.00  0.00    +0.000 C 
ATOM      7  C   UNL     1      -3.228  13.020  20.490  0.00  0.00    +0.000 A 
ATOM      8  C   UNL     1      -4.445  12.818  19.804  0.00  0.00    +0.000 A 
ATOM      9  C   UNL     1      -4.517  12.001  18.675  0.00  0.00    +0.000 A 
ATOM     10  C   UNL     1      -3.355  11.433  18.165  0.00  0.00    +0.000 A 
ATOM     11  C   UNL     1      -2.136  11.707  18.807  0.00  0.00    +0.000 A 
ATOM     12  C   UNL     1      -2.038  12.449  19.995  0.00  0.00    +0.000 A 
ENDROOT
BRANCH   1  17
ATOM     13  C   UNL     1       1.439   7.268  21.037  0.00  0.00    +0.000 C 
ATOM     14  N   UNL     1       0.680   8.503  20.847  0.00  0.00    +0.000 NA
ATOM     15  C   UNL     1       0.496   9.204  22.123  0.00  0.00    +0.000 C 
ATOM     16  C   UNL     1      -0.428  10.407  21.942  0.00  0.00    +0.000 C 
ATOM     17  C   UNL     1       0.087  11.341  20.834  0.00  0.00    +0.000 C 
ATOM     18  C   UNL     1       0.455  10.577  19.551  0.00  0.00    +0.000 C 
ATOM     19  C   UNL     1       1.343   9.373  19.865  0.00  0.00    +0.000 C 
ENDBRANCH   1  17
BRANCH   6  20
ATOM     20  C   UNL     1      -4.432  13.591  22.706  0.00  0.00    +0.000 A 
ATOM     21  C   UNL     1      -5.566  14.405  22.591  0.00  0.00    +0.000 A 
ATOM     22  C   UNL     1      -6.671  14.197  23.424  0.00  0.00    +0.000 A 
ATOM     23  C   UNL     1      -6.649  13.178  24.376  0.00  0.00    +0.000 A 
ATOM     24  C   UNL     1      -5.511  12.381  24.511  0.00  0.00    +0.000 A 
ATOM     25  C   UNL     1      -4.408  12.599  23.690  0.00  0.00    +0.000 A 
ATOM     26  F   UNL     1      -3.327  11.828  23.873  0.00  0.00    +0.000 F 
ENDBRANCH   6  20
BRANCH  10  27
ATOM     27  C   UNL     1      -3.358  10.527  16.958  0.00  0.00    +0.000 C 
ATOM     28  F   UNL     1      -2.282  10.707  16.142  0.00  0.00    +0.000 F 
ATOM     29  F   UNL     1      -3.358   9.211  17.298  0.00  0.00    +0.000 F 
ATOM     30  F   UNL     1      -4.456  10.712  16.174  0.00  0.00    +0.000 F 
ENDBRANCH  10  27
TORSDOF 3
ENDMDL
MODEL 4
REMARK VINA RESULT:      -7.0      0.895      1.429
REMARK  Name = 
REMARK  4 active torsions:
REMARK  status: ('A' for Active; 'I' for Inactive)
REMARK    1  A    between atoms: C_1  and  N_2
REMARK    2  A    between atoms: C_5  and  N_6
REMARK    3  A    between atoms: C_11  and  C_12
REMARK    4  A    between atoms: C_22  and  C_23
REMARK                            x       y       z     vdW  Elec       q    Type
REMARK                         _______ _______ _______ _____ _____    ______ ____
ROOT
ATOM      1  N   UNL     1       0.077  11.954  20.150  0.00  0.00    +0.000 N 
ATOM      2  C   UNL     1       0.647  13.110  20.704  0.00  0.00    +0.000 C 
ATOM      3  O   UNL     1       1.775  13.127  21.206  0.00  0.00    +0.000 OA
ATOM      4  C   UNL     1      -0.179  14.386  20.624  0.00  0.00    +0.000 C 
ATOM      5  N   UNL     1      -1.245  14.317  21.616  0.00  0.00    +0.000 NA
ATOM      6  C   UNL     1      -2.208  13.480  21.428  0.00  0.00    +0.000 C 
ATOM      7  C   UNL     1      -2.345  12.627  20.203  0.00  0.00    +0.000 A 
ATOM      8  C   UNL     1      -3.639  12.503  19.650  0.00  0.00    +0.000 A 
ATOM      9  C   UNL     1      -3.893  11.641  18.583  0.00  0.00    +0.000 A 
ATOM     10  C   UNL     1      -2.841  10.946  17.997  0.00  0.00    +0.000 A 
ATOM     11  C   UNL     1      -1.545  11.141  18.501  0.00  0.00    +0.000 A 
ATOM     12  C   UNL     1      -1.264  11.929  19.630  0.00  0.00    +0.000 A 
ENDROOT
BRANCH   1  17
ATOM     13  C   UNL     1       1.862   6.513  20.568  0.00  0.00    +0.000 C 
ATOM     14  N   UNL     1       1.195   7.801  20.385  0.00  0.00    +0.000 NA
ATOM     15  C   UNL     1       1.144   8.546  21.648  0.00  0.00    +0.000 C 
ATOM     16  C   UNL     1       0.311   9.816  21.485  0.00  0.00    +0.000 C 
ATOM     17  C   UNL     1       0.833  10.677  20.322  0.00  0.00    +0.000 C 
ATOM     18  C   UNL     1       1.062   9.854  19.043  0.00  0.00    +0.000 C 
ATOM     19  C   UNL     1       1.867   8.588  19.342  0.00  0.00    +0.000 C 
ENDBRANCH   1  17
BRANCH   6  20
ATOM     20  C   UNL     1      -3.267  13.413  22.488  0.00  0.00    +0.000 A 
ATOM     21  C   UNL     1      -3.208  12.385  23.438  0.00  0.00    +0.000 A 
ATOM     22  C   UNL     1      -4.152  12.322  24.468  0.00  0.00    +0.000 A 
ATOM     23  C   UNL     1      -5.161  13.281  24.554  0.00  0.00    +0.000 A 
ATOM     24  C   UNL     1      -5.239  14.292  23.595  0.00  0.00    +0.000 A 
ATOM     25  C   UNL     1      -4.306  14.345  22.563  0.00  0.00    +0.000 A 
ATOM     26  F   UNL     1      -4.434  15.317  21.649  0.00  0.00    +0.000 F 
ENDBRANCH   6  20
BRANCH  10  27
ATOM     27  C   UNL     1      -3.042   9.985  16.850  0.00  0.00    +0.000 C 
ATOM     28  F   UNL     1      -1.878   9.598  16.257  0.00  0.00    +0.000 F 
ATOM     29  F   UNL     1      -3.668   8.843  17.236  0.00  0.00    +0.000 F 
ATOM     30  F   UNL     1      -3.808  10.518  15.858  0.00  0.00    +0.000 F 
ENDBRANCH  10  27
TORSDOF 3
ENDMDL
MODEL 5
REMARK VINA RESULT:      -7.0      3.067      7.009
REMARK  Name = 
REMARK  4 active torsions:
REMARK  status: ('A' for Active; 'I' for Inactive)
REMARK    1  A    between atoms: C_1  and  N_2
REMARK    2  A    between atoms: C_5  and  N_6
REMARK    3  A    between atoms: C_11  and  C_12
REMARK    4  A    between atoms: C_22  and  C_23
REMARK                            x       y       z     vdW  Elec       q    Type
REMARK                         _______ _______ _______ _____ _____    ______ ____
ROOT
ATOM      1  N   UNL     1      -1.937  12.657  19.606  0.00  0.00    +0.000 N 
ATOM      2  C   UNL     1      -2.696  11.899  18.701  0.00  0.00    +0.000 C 
ATOM      3  O   UNL     1      -3.890  11.638  18.881  0.00  0.00    +0.000 OA
ATOM      4  C   UNL     1      -1.990  11.433  17.436  0.00  0.00    +0.000 C 
ATOM      5  N   UNL     1      -1.106  10.325  17.776  0.00  0.00    +0.000 NA
ATOM      6  C   UNL     1      -0.051  10.570  18.477  0.00  0.00    +0.000 C 
ATOM      7  C   UNL     1       0.369  11.945  18.898  0.00  0.00    +0.000 A 
ATOM      8  C   UNL     1       1.744  12.254  18.799  0.00  0.00    +0.000 A 
ATOM      9  C   UNL     1       2.253  13.463  19.274  0.00  0.00    +0.000 A 
ATOM     10  C   UNL     1       1.384  14.420  19.787  0.00  0.00    +0.000 A 
ATOM     11  C   UNL     1       0.008  14.135  19.804  0.00  0.00    +0.000 A 
ATOM     12  C   UNL     1      -0.530  12.896  19.420  0.00  0.00    +0.000 A 
ENDROOT
BRANCH   1  17
ATOM     13  C   UNL     1      -3.308  14.530  24.856  0.00  0.00    +0.000 C 
ATOM     14  N   UNL     1      -2.744  14.167  23.558  0.00  0.00    +0.000 NA
ATOM     15  C   UNL     1      -2.683  12.709  23.405  0.00  0.00    +0.000 C 
ATOM     16  C   UNL     1      -1.952  12.337  22.116  0.00  0.00    +0.000 C 
ATOM     17  C   UNL     1      -2.591  13.024  20.897  0.00  0.00    +0.000 C 
ATOM     18  C   UNL     1      -2.824  14.526  21.129  0.00  0.00    +0.000 C 
ATOM     19  C   UNL     1      -3.521  14.773  22.468  0.00  0.00    +0.000 C 
ENDBRANCH   1  17
BRANCH   6  20
ATOM     20  C   UNL     1       0.814   9.399  18.836  0.00  0.00    +0.000 A 
ATOM     21  C   UNL     1       1.591   8.800  17.835  0.00  0.00    +0.000 A 
ATOM     22  C   UNL     1       2.445   7.737  18.147  0.00  0.00    +0.000 A 
ATOM     23  C   UNL     1       2.526   7.264  19.456  0.00  0.00    +0.000 A 
ATOM     24  C   UNL     1       1.735   7.840  20.451  0.00  0.00    +0.000 A 
ATOM     25  C   UNL     1       0.877   8.890  20.136  0.00  0.00    +0.000 A 
ATOM     26  F   UNL     1       0.116   9.395  21.117  0.00  0.00    +0.000 F 
ENDBRANCH   6  20
BRANCH  10  27
ATOM     27  C   UNL     1       1.864  15.742  20.332  0.00  0.00    +0.000 C 
ATOM     28  F   UNL     1       2.826  15.617  21.289  0.00  0.00    +0.000 F 
ATOM     29  F   UNL     1       2.392  16.539  19.367  0.00  0.00    +0.000 F 
ATOM     30  F   UNL     1       0.859  16.461  20.906  0.00  0.00    +0.000 F 
ENDBRANCH  10  27
TORSDOF 3
ENDMDL
MODEL 6
REMARK VINA RESULT:      -6.9      3.455      7.056
REMARK  Name = 
REMARK  4 active torsions:
REMARK  status: ('A' for Active; 'I' for Inactive)
REMARK    1  A    between atoms: C_1  and  N_2
REMARK    2  A    between atoms: C_5  and  N_6
REMARK    3  A    between atoms: C_11  and  C_12
REMARK    4  A    between atoms: C_22  and  C_23
REMARK                            x       y       z     vdW  Elec       q    Type
REMARK                         _______ _______ _______ _____ _____    ______ ____
ROOT
ATOM      1  N   UNL     1      -1.172  13.068  19.757  0.00  0.00    +0.000 N 
ATOM      2  C   UNL     1      -2.187  12.327  19.130  0.00  0.00    +0.000 C 
ATOM      3  O   UNL     1      -3.335  12.248  19.579  0.00  0.00    +0.000 OA
ATOM      4  C   UNL     1      -1.825  11.643  17.820  0.00  0.00    +0.000 C 
ATOM      5  N   UNL     1      -1.013  10.468  18.114  0.00  0.00    +0.000 NA
ATOM      6  C   UNL     1       0.188  10.642  18.551  0.00  0.00    +0.000 C 
ATOM      7  C   UNL     1       0.836  11.986  18.698  0.00  0.00    +0.000 A 
ATOM      8  C   UNL     1       2.181  12.097  18.284  0.00  0.00    +0.000 A 
ATOM      9  C   UNL     1       2.909  13.270  18.487  0.00  0.00    +0.000 A 
ATOM     10  C   UNL     1       2.280  14.382  19.036  0.00  0.00    +0.000 A 
ATOM     11  C   UNL     1       0.918  14.286  19.367  0.00  0.00    +0.000 A 
ATOM     12  C   UNL     1       0.178  13.097  19.262  0.00  0.00    +0.000 A 
ENDROOT
BRANCH   1  17
ATOM     13  C   UNL     1      -1.132  15.438  24.986  0.00  0.00    +0.000 C 
ATOM     14  N   UNL     1      -0.901  14.884  23.653  0.00  0.00    +0.000 NA
ATOM     15  C   UNL     1      -1.266  13.463  23.608  0.00  0.00    +0.000 C 
ATOM     16  C   UNL     1      -0.877  12.855  22.262  0.00  0.00    +0.000 C 
ATOM     17  C   UNL     1      -1.489  13.650  21.095  0.00  0.00    +0.000 C 
ATOM     18  C   UNL     1      -1.263  15.164  21.240  0.00  0.00    +0.000 C 
ATOM     19  C   UNL     1      -1.646  15.646  22.640  0.00  0.00    +0.000 C 
ENDBRANCH   1  17
BRANCH   6  20
ATOM     20  C   UNL     1       0.978   9.410  18.877  0.00  0.00    +0.000 A 
ATOM     21  C   UNL     1       1.684   8.769  17.851  0.00  0.00    +0.000 A 
ATOM     22  C   UNL     1       2.470   7.645  18.130  0.00  0.00    +0.000 A 
ATOM     23  C   UNL     1       2.552   7.154  19.433  0.00  0.00    +0.000 A 
ATOM     24  C   UNL     1       1.830   7.774  20.454  0.00  0.00    +0.000 A 
ATOM     25  C   UNL     1       1.039   8.884  20.171  0.00  0.00    +0.000 A 
ATOM     26  F   UNL     1       0.342   9.432  21.176  0.00  0.00    +0.000 F 
ENDBRANCH   6  20
BRANCH  10  27
ATOM     27  C   UNL     1       3.007  15.678  19.298  0.00  0.00    +0.000 C 
ATOM     28  F   UNL     1       2.177  16.708  19.628  0.00  0.00    +0.000 F 
ATOM     29  F   UNL     1       3.901  15.573  20.316  0.00  0.00    +0.000 F 
ATOM     30  F   UNL     1       3.716  16.102  18.216  0.00  0.00    +0.000 F 
ENDBRANCH  10  27
TORSDOF 3
ENDMDL
MODEL 7
REMARK VINA RESULT:      -6.8      1.803      2.530
REMARK  Name = 
REMARK  4 active torsions:
REMARK  status: ('A' for Active; 'I' for Inactive)
REMARK    1  A    between atoms: C_1  and  N_2
REMARK    2  A    between atoms: C_5  and  N_6
REMARK    3  A    between atoms: C_11  and  C_12
REMARK    4  A    between atoms: C_22  and  C_23
REMARK                            x       y       z     vdW  Elec       q    Type
REMARK                         _______ _______ _______ _____ _____    ______ ____
ROOT
ATOM      1  N   UNL     1      -1.696  13.485  20.979  0.00  0.00    +0.000 N 
ATOM      2  C   UNL     1      -1.501  14.782  21.479  0.00  0.00    +0.000 C 
ATOM      3  O   UNL     1      -0.509  15.104  22.139  0.00  0.00    +0.000 OA
ATOM      4  C   UNL     1      -2.564  15.816  21.132  0.00  0.00    +0.000 C 
ATOM      5  N   UNL     1      -3.742  15.569  21.954  0.00  0.00    +0.000 NA
ATOM      6  C   UNL     1      -4.448  14.515  21.719  0.00  0.00    +0.000 C 
ATOM      7  C   UNL     1      -4.179  13.565  20.591  0.00  0.00    +0.000 A 
ATOM      8  C   UNL     1      -5.297  13.095  19.868  0.00  0.00    +0.000 A 
ATOM      9  C   UNL     1      -5.165  12.121  18.879  0.00  0.00    +0.000 A 
ATOM     10  C   UNL     1      -3.900  11.654  18.540  0.00  0.00    +0.000 A 
ATOM     11  C   UNL     1      -2.787  12.189  19.207  0.00  0.00    +0.000 A 
ATOM     12  C   UNL     1      -2.888  13.103  20.269  0.00  0.00    +0.000 A 
ENDROOT
BRANCH   1  17
ATOM     13  C   UNL     1       1.299   8.692  21.990  0.00  0.00    +0.000 C 
ATOM     14  N   UNL     1       0.399   9.771  21.585  0.00  0.00    +0.000 NA
ATOM     15  C   UNL     1      -0.287  10.343  22.750  0.00  0.00    +0.000 C 
ATOM     16  C   UNL     1      -1.337  11.359  22.305  0.00  0.00    +0.000 C 
ATOM     17  C   UNL     1      -0.715  12.442  21.405  0.00  0.00    +0.000 C 
ATOM     18  C   UNL     1       0.157  11.843  20.289  0.00  0.00    +0.000 C 
ATOM     19  C   UNL     1       1.135  10.810  20.851  0.00  0.00    +0.000 C 
ENDBRANCH   1  17
BRANCH   6  20
ATOM     20  C   UNL     1      -5.631  14.277  22.609  0.00  0.00    +0.000 A 
ATOM     21  C   UNL     1      -6.717  15.161  22.541  0.00  0.00    +0.000 A 
ATOM     22  C   UNL     1      -7.856  14.940  23.323  0.00  0.00    +0.000 A 
ATOM     23  C   UNL     1      -7.916  13.839  24.177  0.00  0.00    +0.000 A 
ATOM     24  C   UNL     1      -6.828  12.971  24.267  0.00  0.00    +0.000 A 
ATOM     25  C   UNL     1      -5.690  13.200  23.498  0.00  0.00    +0.000 A 
ATOM     26  F   UNL     1      -4.658  12.356  23.636  0.00  0.00    +0.000 F 
ENDBRANCH   6  20
BRANCH  10  27
ATOM     27  C   UNL     1      -3.683  10.591  17.491  0.00  0.00    +0.000 C 
ATOM     28  F   UNL     1      -3.901   9.326  17.949  0.00  0.00    +0.000 F 
ATOM     29  F   UNL     1      -4.498  10.749  16.416  0.00  0.00    +0.000 F 
ATOM     30  F   UNL     1      -2.411  10.597  17.003  0.00  0.00    +0.000 F 
ENDBRANCH  10  27
TORSDOF 3
ENDMDL
MODEL 8
REMARK VINA RESULT:      -6.8      2.874      6.290
REMARK  Name = 
REMARK  4 active torsions:
REMARK  status: ('A' for Active; 'I' for Inactive)
REMARK    1  A    between atoms: C_1  and  N_2
REMARK    2  A    between atoms: C_5  and  N_6
REMARK    3  A    between atoms: C_11  and  C_12
REMARK    4  A    between atoms: C_22  and  C_23
REMARK                            x       y       z     vdW  Elec       q    Type
REMARK                         _______ _______ _______ _____ _____    ______ ____
ROOT
ATOM      1  N   UNL     1      -0.363  12.694  19.934  0.00  0.00    +0.000 N 
ATOM      2  C   UNL     1       0.187  12.522  21.214  0.00  0.00    +0.000 C 
ATOM      3  O   UNL     1       0.814  13.411  21.799  0.00  0.00    +0.000 OA
ATOM      4  C   UNL     1      -0.060  11.181  21.891  0.00  0.00    +0.000 C 
ATOM      5  N   UNL     1       0.804  10.181  21.277  0.00  0.00    +0.000 NA
ATOM      6  C   UNL     1       0.554   9.808  20.068  0.00  0.00    +0.000 C 
ATOM      7  C   UNL     1      -0.628  10.281  19.277  0.00  0.00    +0.000 A 
ATOM      8  C   UNL     1      -1.318   9.313  18.515  0.00  0.00    +0.000 A 
ATOM      9  C   UNL     1      -2.357   9.670  17.655  0.00  0.00    +0.000 A 
ATOM     10  C   UNL     1      -2.777  10.995  17.600  0.00  0.00    +0.000 A 
ATOM     11  C   UNL     1      -2.139  11.935  18.424  0.00  0.00    +0.000 A 
ATOM     12  C   UNL     1      -1.032  11.630  19.233  0.00  0.00    +0.000 A 
ENDROOT
BRANCH   1  17
ATOM     13  C   UNL     1       1.271  17.962  18.343  0.00  0.00    +0.000 C 
ATOM     14  N   UNL     1       0.950  16.680  18.967  0.00  0.00    +0.000 NA
ATOM     15  C   UNL     1      -0.496  16.434  18.940  0.00  0.00    +0.000 C 
ATOM     16  C   UNL     1      -0.837  15.172  19.729  0.00  0.00    +0.000 C 
ATOM     17  C   UNL     1      -0.032  13.964  19.221  0.00  0.00    +0.000 C 
ATOM     18  C   UNL     1       1.466  14.281  19.073  0.00  0.00    +0.000 C 
ATOM     19  C   UNL     1       1.677  15.587  18.306  0.00  0.00    +0.000 C 
ENDBRANCH   1  17
BRANCH   6  20
ATOM     20  C   UNL     1       1.487   8.804  19.459  0.00  0.00    +0.000 A 
ATOM     21  C   UNL     1       1.763   7.624  20.162  0.00  0.00    +0.000 A 
ATOM     22  C   UNL     1       2.591   6.646  19.601  0.00  0.00    +0.000 A 
ATOM     23  C   UNL     1       3.150   6.841  18.339  0.00  0.00    +0.000 A 
ATOM     24  C   UNL     1       2.899   8.026  17.645  0.00  0.00    +0.000 A 
ATOM     25  C   UNL     1       2.084   9.004  18.211  0.00  0.00    +0.000 A 
ATOM     26  F   UNL     1       1.892  10.137  17.522  0.00  0.00    +0.000 F 
ENDBRANCH   6  20
BRANCH  10  27
ATOM     27  C   UNL     1      -3.883  11.457  16.683  0.00  0.00    +0.000 C 
ATOM     28  F   UNL     1      -4.652  12.447  17.217  0.00  0.00    +0.000 F 
ATOM     29  F   UNL     1      -3.409  11.941  15.504  0.00  0.00    +0.000 F 
ATOM     30  F   UNL     1      -4.741  10.451  16.359  0.00  0.00    +0.000 F 
ENDBRANCH  10  27
TORSDOF 3
ENDMDL
MODEL 9
REMARK VINA RESULT:      -6.8      3.414      7.124
REMARK  Name = 
REMARK  4 active torsions:
REMARK  status: ('A' for Active; 'I' for Inactive)
REMARK    1  A    between atoms: C_1  and  N_2
REMARK    2  A    between atoms: C_5  and  N_6
REMARK    3  A    between atoms: C_11  and  C_12
REMARK    4  A    between atoms: C_22  and  C_23
REMARK                            x       y       z     vdW  Elec       q    Type
REMARK                         _______ _______ _______ _____ _____    ______ ____
ROOT
ATOM      1  N   UNL     1      -1.164  13.120  19.759  0.00  0.00    +0.000 N 
ATOM      2  C   UNL     1      -2.197  12.369  19.177  0.00  0.00    +0.000 C 
ATOM      3  O   UNL     1      -3.332  12.304  19.659  0.00  0.00    +0.000 OA
ATOM      4  C   UNL     1      -1.874  11.655  17.872  0.00  0.00    +0.000 C 
ATOM      5  N   UNL     1      -1.058  10.485  18.170  0.00  0.00    +0.000 NA
ATOM      6  C   UNL     1       0.156  10.664  18.570  0.00  0.00    +0.000 C 
ATOM      7  C   UNL     1       0.811  12.008  18.669  0.00  0.00    +0.000 A 
ATOM      8  C   UNL     1       2.145  12.106  18.216  0.00  0.00    +0.000 A 
ATOM      9  C   UNL     1       2.881  13.281  18.372  0.00  0.00    +0.000 A 
ATOM     10  C   UNL     1       2.271  14.406  18.914  0.00  0.00    +0.000 A 
ATOM     11  C   UNL     1       0.918  14.323  19.284  0.00  0.00    +0.000 A 
ATOM     12  C   UNL     1       0.173  13.134  19.226  0.00  0.00    +0.000 A 
ENDROOT
BRANCH   1  17
ATOM     13  C   UNL     1      -3.397  15.020  24.695  0.00  0.00    +0.000 C 
ATOM     14  N   UNL     1      -3.044  14.420  23.409  0.00  0.00    +0.000 NA
ATOM     15  C   UNL     1      -2.732  15.457  22.419  0.00  0.00    +0.000 C 
ATOM     16  C   UNL     1      -2.516  14.832  21.042  0.00  0.00    +0.000 C 
ATOM     17  C   UNL     1      -1.441  13.733  21.092  0.00  0.00    +0.000 C 
ATOM     18  C   UNL     1      -1.669  12.747  22.251  0.00  0.00    +0.000 C 
ATOM     19  C   UNL     1      -1.916  13.491  23.564  0.00  0.00    +0.000 C 
ENDBRANCH   1  17
BRANCH   6  20
ATOM     20  C   UNL     1       0.951   9.437  18.901  0.00  0.00    +0.000 A 
ATOM     21  C   UNL     1       1.645   8.784  17.874  0.00  0.00    +0.000 A 
ATOM     22  C   UNL     1       2.435   7.664  18.157  0.00  0.00    +0.000 A 
ATOM     23  C   UNL     1       2.534   7.190  19.465  0.00  0.00    +0.000 A 
ATOM     24  C   UNL     1       1.825   7.821  20.487  0.00  0.00    +0.000 A 
ATOM     25  C   UNL     1       1.029   8.927  20.200  0.00  0.00    +0.000 A 
ATOM     26  F   UNL     1       0.344   9.486  21.208  0.00  0.00    +0.000 F 
ENDBRANCH   6  20
BRANCH  10  27
ATOM     27  C   UNL     1       3.008  15.706  19.127  0.00  0.00    +0.000 C 
ATOM     28  F   UNL     1       3.055  16.491  18.014  0.00  0.00    +0.000 F 
ATOM     29  F   UNL     1       2.446  16.466  20.103  0.00  0.00    +0.000 F 
ATOM     30  F   UNL     1       4.303  15.511  19.501  0.00  0.00    +0.000 F 
ENDBRANCH  10  27
TORSDOF 3
ENDMDL
