MODEL 1
REMARK VINA RESULT:      -6.8      0.000      0.000
REMARK  Name = 
REMARK  10 active torsions:
REMARK  status: ('A' for Active; 'I' for Inactive)
REMARK    1  A    between atoms: C_1  and  O_2
REMARK    2  A    between atoms: O_2  and  C_3
REMARK    3  A    between atoms: C_5  and  N_6
REMARK    4  A    between atoms: C_7  and  N_8
REMARK    5  A    between atoms: N_8  and  C1*_9
REMARK    6  A    between atoms: C4*_11  and  C5*_12
REMARK    7  A    between atoms: C5*_12  and  O5*_13
REMARK    8  A    between atoms: C3*_14  and  O3*_15
REMARK    9  A    between atoms: C2*_16  and  O2*_17
REMARK   10  A    between atoms: N_20  and  C_21
REMARK                            x       y       z     vdW  Elec       q    Type
REMARK                         _______ _______ _______ _____ _____    ______ ____
ROOT
ATOM      1  N   UNL     1       4.549   4.032  16.750  0.00  0.00    +0.000 N 
ATOM      2  H   UNL     1       5.043   3.136  16.828  0.00  0.00    +0.000 HD
ENDROOT
BRANCH   1   6
ATOM      3  C   UNL     1       7.348   6.863  17.893  0.00  0.00    +0.000 A 
ATOM      4  N   UNL     1       6.704   7.069  16.798  0.00  0.00    +0.000 NA
ATOM      5  C   UNL     1       5.779   6.156  16.394  0.00  0.00    +0.000 A 
ATOM      6  C   UNL     1       5.468   5.042  17.094  0.00  0.00    +0.000 A 
ATOM      7  C   UNL     1       6.231   4.829  18.378  0.00  0.00    +0.000 A 
ATOM      8  O   UNL     1       6.000   3.806  19.036  0.00  0.00    +0.000 OA
ATOM      9  N   UNL     1       7.154   5.787  18.719  0.00  0.00    +0.000 N 
ATOM     10  C   UNL     1       7.930   5.640  19.938  0.00  0.00    +0.000 C 
BRANCH   5  11
ATOM     11  N   UNL     1       5.204   6.385  15.159  0.00  0.00    +0.000 N 
ATOM     12  H   UNL     1       5.247   7.381  14.964  0.00  0.00    +0.000 HD
ATOM     13  H   UNL     1       5.678   5.815  14.455  0.00  0.00    +0.000 HD
ENDBRANCH   5  11
BRANCH   3  15
ATOM     14  C   UNL     1       8.108   9.100  17.916  0.00  0.00    +0.000 C 
ATOM     15  O   UNL     1       8.306   7.736  18.309  0.00  0.00    +0.000 OA
ENDBRANCH   3  15
ENDBRANCH   1   6
BRANCH   1  16
ATOM     16  C1* UNL     1       3.200   3.894  17.287  0.00  0.00    +0.000 C 
ATOM     17  O4* UNL     1       2.777   5.106  17.917  0.00  0.00    +0.000 OA
ATOM     18  C4* UNL     1       1.798   4.763  18.926  0.00  0.00    +0.000 C 
ATOM     19  C3* UNL     1       1.845   3.247  19.146  0.00  0.00    +0.000 C 
ATOM     20  C2* UNL     1       3.005   2.753  18.293  0.00  0.00    +0.000 C 
BRANCH  19  21
ATOM     21  O3* UNL     1       0.630   2.602  18.723  0.00  0.00    +0.000 OA
ATOM     22  H3* UNL     1      -0.067   3.276  18.619  0.00  0.00    +0.000 HD
ENDBRANCH  19  21
BRANCH  20  23
ATOM     23  O2* UNL     1       2.703   1.505  17.660  0.00  0.00    +0.000 OA
ATOM     24  H2* UNL     1       2.758   1.668  16.695  0.00  0.00    +0.000 HD
ENDBRANCH  20  23
BRANCH  18  25
ATOM     25  C5* UNL     1       2.086   5.553  20.203  0.00  0.00    +0.000 C 
BRANCH  25  26
ATOM     26  O5* UNL     1       3.423   6.052  20.182  0.00  0.00    +0.000 OA
ATOM     27  H5* UNL     1       3.351   7.009  20.004  0.00  0.00    +0.000 HD
ENDBRANCH  25  26
ENDBRANCH  18  25
ENDBRANCH   1  16
TORSDOF 8
ENDMDL
MODEL 2
REMARK VINA RESULT:      -6.6      3.418      6.002
REMARK  Name = 
REMARK  10 active torsions:
REMARK  status: ('A' for Active; 'I' for Inactive)
REMARK    1  A    between atoms: C_1  and  O_2
REMARK    2  A    between atoms: O_2  and  C_3
REMARK    3  A    between atoms: C_5  and  N_6
REMARK    4  A    between atoms: C_7  and  N_8
REMARK    5  A    between atoms: N_8  and  C1*_9
REMARK    6  A    between atoms: C4*_11  and  C5*_12
REMARK    7  A    between atoms: C5*_12  and  O5*_13
REMARK    8  A    between atoms: C3*_14  and  O3*_15
REMARK    9  A    between atoms: C2*_16  and  O2*_17
REMARK   10  A    between atoms: N_20  and  C_21
REMARK                            x       y       z     vdW  Elec       q    Type
REMARK                         _______ _______ _______ _____ _____    ______ ____
ROOT
ATOM      1  N   UNL     1       3.481   6.074  17.789  0.00  0.00    +0.000 N 
ATOM      2  H   UNL     1       3.160   6.371  16.860  0.00  0.00    +0.000 HD
ENDROOT
BRANCH   1   6
ATOM      3  C   UNL     1       1.269   8.396  20.411  0.00  0.00    +0.000 A 
ATOM      4  N   UNL     1       1.668   7.245  20.825  0.00  0.00    +0.000 NA
ATOM      5  C   UNL     1       2.395   6.457  19.986  0.00  0.00    +0.000 A 
ATOM      6  C   UNL     1       2.754   6.823  18.735  0.00  0.00    +0.000 A 
ATOM      7  C   UNL     1       2.281   8.181  18.279  0.00  0.00    +0.000 A 
ATOM      8  O   UNL     1       2.562   8.544  17.128  0.00  0.00    +0.000 OA
ATOM      9  N   UNL     1       1.546   8.917  19.175  0.00  0.00    +0.000 N 
ATOM     10  C   UNL     1       1.052  10.230  18.797  0.00  0.00    +0.000 C 
BRANCH   5  11
ATOM     11  N   UNL     1       2.698   5.194  20.455  0.00  0.00    +0.000 N 
ATOM     12  H   UNL     1       2.016   4.539  20.081  0.00  0.00    +0.000 HD
ATOM     13  H   UNL     1       3.661   4.961  20.201  0.00  0.00    +0.000 HD
ENDBRANCH   5  11
BRANCH   3  15
ATOM     14  C   UNL     1       0.937   9.286  22.575  0.00  0.00    +0.000 C 
ATOM     15  O   UNL     1       0.509   9.195  21.209  0.00  0.00    +0.000 OA
ENDBRANCH   3  15
ENDBRANCH   1   6
BRANCH   1  16
ATOM     16  C1* UNL     1       4.928   5.904  17.773  0.00  0.00    +0.000 C 
ATOM     17  O4* UNL     1       5.471   6.289  16.507  0.00  0.00    +0.000 OA
ATOM     18  C4* UNL     1       6.701   5.552  16.309  0.00  0.00    +0.000 C 
ATOM     19  C3* UNL     1       6.764   4.432  17.353  0.00  0.00    +0.000 C 
ATOM     20  C2* UNL     1       5.430   4.488  18.083  0.00  0.00    +0.000 C 
BRANCH  19  21
ATOM     21  O3* UNL     1       7.835   4.631  18.295  0.00  0.00    +0.000 OA
ATOM     22  H3* UNL     1       7.503   5.157  19.046  0.00  0.00    +0.000 HD
ENDBRANCH  19  21
BRANCH  20  23
ATOM     23  O2* UNL     1       5.584   4.254  19.488  0.00  0.00    +0.000 OA
ATOM     24  H2* UNL     1       5.338   5.092  19.932  0.00  0.00    +0.000 HD
ENDBRANCH  20  23
BRANCH  18  25
ATOM     25  C5* UNL     1       6.753   5.024  14.875  0.00  0.00    +0.000 C 
BRANCH  25  26
ATOM     26  O5* UNL     1       7.918   5.516  14.212  0.00  0.00    +0.000 OA
ATOM     27  H5* UNL     1       8.295   6.196  14.801  0.00  0.00    +0.000 HD
ENDBRANCH  25  26
ENDBRANCH  18  25
ENDBRANCH   1  16
TORSDOF 8
ENDMDL
MODEL 3
REMARK VINA RESULT:      -6.6      2.076      2.597
REMARK  Name = 
REMARK  10 active torsions:
REMARK  status: ('A' for Active; 'I' for Inactive)
REMARK    1  A    between atoms: C_1  and  O_2
REMARK    2  A    between atoms: O_2  and  C_3
REMARK    3  A    between atoms: C_5  and  N_6
REMARK    4  A    between atoms: C_7  and  N_8
REMARK    5  A    between atoms: N_8  and  C1*_9
REMARK    6  A    between atoms: C4*_11  and  C5*_12
REMARK    7  A    between atoms: C5*_12  and  O5*_13
REMARK    8  A    between atoms: C3*_14  and  O3*_15
REMARK    9  A    between atoms: C2*_16  and  O2*_17
REMARK   10  A    between atoms: N_20  and  C_21
REMARK                            x       y       z     vdW  Elec       q    Type
REMARK                         _______ _______ _______ _____ _____    ______ ____
ROOT
ATOM      1  N   UNL     1       3.435   5.725  19.472  0.00  0.00    +0.000 N 
ATOM      2  H   UNL     1       3.167   6.672  19.766  0.00  0.00    +0.000 HD
ENDROOT
BRANCH   1   6
ATOM      3  C   UNL     1       6.335   5.957  16.523  0.00  0.00    +0.000 A 
ATOM      4  N   UNL     1       5.284   6.687  16.385  0.00  0.00    +0.000 NA
ATOM      5  C   UNL     1       4.312   6.632  17.336  0.00  0.00    +0.000 A 
ATOM      6  C   UNL     1       4.392   5.867  18.448  0.00  0.00    +0.000 A 
ATOM      7  C   UNL     1       5.639   5.029  18.590  0.00  0.00    +0.000 A 
ATOM      8  O   UNL     1       5.740   4.290  19.579  0.00  0.00    +0.000 OA
ATOM      9  N   UNL     1       6.573   5.130  17.589  0.00  0.00    +0.000 N 
ATOM     10  C   UNL     1       7.793   4.343  17.658  0.00  0.00    +0.000 C 
BRANCH   5  11
ATOM     11  N   UNL     1       3.167   7.357  17.072  0.00  0.00    +0.000 N 
ATOM     12  H   UNL     1       3.089   8.099  17.762  0.00  0.00    +0.000 HD
ATOM     13  H   UNL     1       3.200   7.703  16.110  0.00  0.00    +0.000 HD
ENDBRANCH   5  11
BRANCH   3  15
ATOM     14  C   UNL     1       7.070   5.113  14.443  0.00  0.00    +0.000 C 
ATOM     15  O   UNL     1       7.311   5.959  15.575  0.00  0.00    +0.000 OA
ENDBRANCH   3  15
ENDBRANCH   1   6
BRANCH   1  16
ATOM     16  C1* UNL     1       2.249   4.879  19.413  0.00  0.00    +0.000 C 
ATOM     17  O4* UNL     1       1.775   4.577  20.728  0.00  0.00    +0.000 OA
ATOM     18  C4* UNL     1       1.068   3.316  20.665  0.00  0.00    +0.000 C 
ATOM     19  C3* UNL     1       1.384   2.653  19.321  0.00  0.00    +0.000 C 
ATOM     20  C2* UNL     1       2.423   3.552  18.665  0.00  0.00    +0.000 C 
BRANCH  19  21
ATOM     21  O3* UNL     1       0.222   2.566  18.475  0.00  0.00    +0.000 OA
ATOM     22  H3* UNL     1      -0.269   1.753  18.694  0.00  0.00    +0.000 HD
ENDBRANCH  19  21
BRANCH  20  23
ATOM     23  O2* UNL     1       2.199   3.680  17.256  0.00  0.00    +0.000 OA
ATOM     24  H2* UNL     1       1.863   2.810  16.954  0.00  0.00    +0.000 HD
ENDBRANCH  20  23
BRANCH  18  25
ATOM     25  C5* UNL     1       1.468   2.449  21.859  0.00  0.00    +0.000 C 
BRANCH  25  26
ATOM     26  O5* UNL     1       2.888   2.442  22.008  0.00  0.00    +0.000 OA
ATOM     27  H5* UNL     1       3.252   2.339  21.108  0.00  0.00    +0.000 HD
ENDBRANCH  25  26
ENDBRANCH  18  25
ENDBRANCH   1  16
TORSDOF 8
ENDMDL
MODEL 4
REMARK VINA RESULT:      -6.5      2.497      5.817
REMARK  Name = 
REMARK  10 active torsions:
REMARK  status: ('A' for Active; 'I' for Inactive)
REMARK    1  A    between atoms: C_1  and  O_2
REMARK    2  A    between atoms: O_2  and  C_3
REMARK    3  A    between atoms: C_5  and  N_6
REMARK    4  A    between atoms: C_7  and  N_8
REMARK    5  A    between atoms: N_8  and  C1*_9
REMARK    6  A    between atoms: C4*_11  and  C5*_12
REMARK    7  A    between atoms: C5*_12  and  O5*_13
REMARK    8  A    between atoms: C3*_14  and  O3*_15
REMARK    9  A    between atoms: C2*_16  and  O2*_17
REMARK   10  A    between atoms: N_20  and  C_21
REMARK                            x       y       z     vdW  Elec       q    Type
REMARK                         _______ _______ _______ _____ _____    ______ ____
ROOT
ATOM      1  N   UNL     1       4.086   3.584  16.804  0.00  0.00    +0.000 N 
ATOM      2  H   UNL     1       3.396   4.150  16.297  0.00  0.00    +0.000 HD
ENDROOT
BRANCH   1   6
ATOM      3  C   UNL     1       2.647   3.463  20.686  0.00  0.00    +0.000 A 
ATOM      4  N   UNL     1       3.221   2.406  20.229  0.00  0.00    +0.000 NA
ATOM      5  C   UNL     1       3.702   2.413  18.956  0.00  0.00    +0.000 A 
ATOM      6  C   UNL     1       3.640   3.486  18.136  0.00  0.00    +0.000 A 
ATOM      7  C   UNL     1       2.971   4.715  18.700  0.00  0.00    +0.000 A 
ATOM      8  O   UNL     1       2.865   5.712  17.972  0.00  0.00    +0.000 OA
ATOM      9  N   UNL     1       2.503   4.633  19.988  0.00  0.00    +0.000 N 
ATOM     10  C   UNL     1       1.840   5.778  20.590  0.00  0.00    +0.000 C 
BRANCH   5  11
ATOM     11  N   UNL     1       4.207   1.214  18.495  0.00  0.00    +0.000 N 
ATOM     12  H   UNL     1       4.291   0.575  19.282  0.00  0.00    +0.000 HD
ATOM     13  H   UNL     1       3.605   0.857  17.749  0.00  0.00    +0.000 HD
ENDBRANCH   5  11
BRANCH   3  15
ATOM     14  C   UNL     1       1.232   2.399  22.250  0.00  0.00    +0.000 C 
ATOM     15  O   UNL     1       2.121   3.480  21.941  0.00  0.00    +0.000 OA
ENDBRANCH   3  15
ENDBRANCH   1   6
BRANCH   1  16
ATOM     16  C1* UNL     1       5.430   3.963  16.385  0.00  0.00    +0.000 C 
ATOM     17  O4* UNL     1       6.180   4.478  17.489  0.00  0.00    +0.000 OA
ATOM     18  C4* UNL     1       7.182   5.380  16.961  0.00  0.00    +0.000 C 
ATOM     19  C3* UNL     1       6.839   5.678  15.498  0.00  0.00    +0.000 C 
ATOM     20  C2* UNL     1       5.501   4.994  15.252  0.00  0.00    +0.000 C 
BRANCH  19  21
ATOM     21  O3* UNL     1       7.824   5.146  14.593  0.00  0.00    +0.000 OA
ATOM     22  H3* UNL     1       7.973   5.788  13.875  0.00  0.00    +0.000 HD
ENDBRANCH  19  21
BRANCH  20  23
ATOM     23  O2* UNL     1       5.445   4.392  13.954  0.00  0.00    +0.000 OA
ATOM     24  H2* UNL     1       4.624   3.858  13.937  0.00  0.00    +0.000 HD
ENDBRANCH  20  23
BRANCH  18  25
ATOM     25  C5* UNL     1       7.235   6.642  17.824  0.00  0.00    +0.000 C 
BRANCH  25  26
ATOM     26  O5* UNL     1       7.613   7.766  17.029  0.00  0.00    +0.000 OA
ATOM     27  H5* UNL     1       6.796   8.280  16.886  0.00  0.00    +0.000 HD
ENDBRANCH  25  26
ENDBRANCH  18  25
ENDBRANCH   1  16
TORSDOF 8
ENDMDL
MODEL 5
REMARK VINA RESULT:      -6.5      2.635      6.059
REMARK  Name = 
REMARK  10 active torsions:
REMARK  status: ('A' for Active; 'I' for Inactive)
REMARK    1  A    between atoms: C_1  and  O_2
REMARK    2  A    between atoms: O_2  and  C_3
REMARK    3  A    between atoms: C_5  and  N_6
REMARK    4  A    between atoms: C_7  and  N_8
REMARK    5  A    between atoms: N_8  and  C1*_9
REMARK    6  A    between atoms: C4*_11  and  C5*_12
REMARK    7  A    between atoms: C5*_12  and  O5*_13
REMARK    8  A    between atoms: C3*_14  and  O3*_15
REMARK    9  A    between atoms: C2*_16  and  O2*_17
REMARK   10  A    between atoms: N_20  and  C_21
REMARK                            x       y       z     vdW  Elec       q    Type
REMARK                         _______ _______ _______ _____ _____    ______ ____
ROOT
ATOM      1  N   UNL     1       3.727   5.710  17.142  0.00  0.00    +0.000 N 
ATOM      2  H   UNL     1       3.448   6.695  17.064  0.00  0.00    +0.000 HD
ENDROOT
BRANCH   1   6
ATOM      3  C   UNL     1       1.475   3.860  20.085  0.00  0.00    +0.000 A 
ATOM      4  N   UNL     1       2.059   4.966  20.387  0.00  0.00    +0.000 NA
ATOM      5  C   UNL     1       2.809   5.597  19.443  0.00  0.00    +0.000 A 
ATOM      6  C   UNL     1       2.959   5.144  18.178  0.00  0.00    +0.000 A 
ATOM      7  C   UNL     1       2.256   3.850  17.847  0.00  0.00    +0.000 A 
ATOM      8  O   UNL     1       2.391   3.383  16.708  0.00  0.00    +0.000 OA
ATOM      9  N   UNL     1       1.524   3.266  18.851  0.00  0.00    +0.000 N 
ATOM     10  C   UNL     1       0.829   2.015  18.603  0.00  0.00    +0.000 C 
BRANCH   5  11
ATOM     11  N   UNL     1       3.493   6.719  19.866  0.00  0.00    +0.000 N 
ATOM     12  H   UNL     1       4.421   6.705  19.451  0.00  0.00    +0.000 HD
ATOM     13  H   UNL     1       2.956   7.555  19.623  0.00  0.00    +0.000 HD
ENDBRANCH   5  11
BRANCH   3  15
ATOM     14  C   UNL     1       1.513   2.501  22.017  0.00  0.00    +0.000 C 
ATOM     15  O   UNL     1       0.748   3.182  21.014  0.00  0.00    +0.000 OA
ENDBRANCH   3  15
ENDBRANCH   1   6
BRANCH   1  16
ATOM     16  C1* UNL     1       5.174   5.601  17.001  0.00  0.00    +0.000 C 
ATOM     17  O4* UNL     1       5.589   5.997  15.691  0.00  0.00    +0.000 OA
ATOM     18  C4* UNL     1       6.828   5.311  15.392  0.00  0.00    +0.000 C 
ATOM     19  C3* UNL     1       7.028   4.204  16.432  0.00  0.00    +0.000 C 
ATOM     20  C2* UNL     1       5.760   4.210  17.274  0.00  0.00    +0.000 C 
BRANCH  19  21
ATOM     21  O3* UNL     1       8.166   4.456  17.277  0.00  0.00    +0.000 OA
ATOM     22  H3* UNL     1       8.840   4.941  16.764  0.00  0.00    +0.000 HD
ENDBRANCH  19  21
BRANCH  20  23
ATOM     23  O2* UNL     1       6.044   3.994  18.661  0.00  0.00    +0.000 OA
ATOM     24  H2* UNL     1       5.354   3.380  18.988  0.00  0.00    +0.000 HD
ENDBRANCH  20  23
BRANCH  18  25
ATOM     25  C5* UNL     1       6.778   4.774  13.961  0.00  0.00    +0.000 C 
BRANCH  25  26
ATOM     26  O5* UNL     1       6.341   3.415  13.960  0.00  0.00    +0.000 OA
ATOM     27  H5* UNL     1       5.803   3.305  14.767  0.00  0.00    +0.000 HD
ENDBRANCH  25  26
ENDBRANCH  18  25
ENDBRANCH   1  16
TORSDOF 8
ENDMDL
MODEL 6
REMARK VINA RESULT:      -6.4      2.416      5.803
REMARK  Name = 
REMARK  10 active torsions:
REMARK  status: ('A' for Active; 'I' for Inactive)
REMARK    1  A    between atoms: C_1  and  O_2
REMARK    2  A    between atoms: O_2  and  C_3
REMARK    3  A    between atoms: C_5  and  N_6
REMARK    4  A    between atoms: C_7  and  N_8
REMARK    5  A    between atoms: N_8  and  C1*_9
REMARK    6  A    between atoms: C4*_11  and  C5*_12
REMARK    7  A    between atoms: C5*_12  and  O5*_13
REMARK    8  A    between atoms: C3*_14  and  O3*_15
REMARK    9  A    between atoms: C2*_16  and  O2*_17
REMARK   10  A    between atoms: N_20  and  C_21
REMARK                            x       y       z     vdW  Elec       q    Type
REMARK                         _______ _______ _______ _____ _____    ______ ____
ROOT
ATOM      1  N   UNL     1       3.973   3.936  16.941  0.00  0.00    +0.000 N 
ATOM      2  H   UNL     1       3.314   4.584  16.495  0.00  0.00    +0.000 HD
ENDROOT
BRANCH   1   6
ATOM      3  C   UNL     1       2.509   3.495  20.791  0.00  0.00    +0.000 A 
ATOM      4  N   UNL     1       3.114   2.489  20.264  0.00  0.00    +0.000 NA
ATOM      5  C   UNL     1       3.605   2.601  18.999  0.00  0.00    +0.000 A 
ATOM      6  C   UNL     1       3.520   3.730  18.259  0.00  0.00    +0.000 A 
ATOM      7  C   UNL     1       2.813   4.896  18.904  0.00  0.00    +0.000 A 
ATOM      8  O   UNL     1       2.685   5.940  18.249  0.00  0.00    +0.000 OA
ATOM      9  N   UNL     1       2.337   4.708  20.178  0.00  0.00    +0.000 N 
ATOM     10  C   UNL     1       1.639   5.787  20.855  0.00  0.00    +0.000 C 
BRANCH   5  11
ATOM     11  N   UNL     1       4.146   1.453  18.457  0.00  0.00    +0.000 N 
ATOM     12  H   UNL     1       4.602   0.930  19.200  0.00  0.00    +0.000 HD
ATOM     13  H   UNL     1       3.411   0.923  17.984  0.00  0.00    +0.000 HD
ENDBRANCH   5  11
BRANCH   3  15
ATOM     14  C   UNL     1       1.149   2.256  22.275  0.00  0.00    +0.000 C 
ATOM     15  O   UNL     1       1.973   3.406  22.039  0.00  0.00    +0.000 OA
ENDBRANCH   3  15
ENDBRANCH   1   6
BRANCH   1  16
ATOM     16  C1* UNL     1       5.335   4.286  16.558  0.00  0.00    +0.000 C 
ATOM     17  O4* UNL     1       6.253   3.986  17.613  0.00  0.00    +0.000 OA
ATOM     18  C4* UNL     1       7.389   4.873  17.478  0.00  0.00    +0.000 C 
ATOM     19  C3* UNL     1       7.020   5.980  16.486  0.00  0.00    +0.000 C 
ATOM     20  C2* UNL     1       5.552   5.750  16.156  0.00  0.00    +0.000 C 
BRANCH  19  21
ATOM     21  O3* UNL     1       7.801   5.906  15.279  0.00  0.00    +0.000 OA
ATOM     22  H3* UNL     1       8.318   5.080  15.287  0.00  0.00    +0.000 HD
ENDBRANCH  19  21
BRANCH  20  23
ATOM     23  O2* UNL     1       5.277   5.987  14.770  0.00  0.00    +0.000 OA
ATOM     24  H2* UNL     1       6.116   5.817  14.293  0.00  0.00    +0.000 HD
ENDBRANCH  20  23
BRANCH  18  25
ATOM     25  C5* UNL     1       7.774   5.417  18.854  0.00  0.00    +0.000 C 
BRANCH  25  26
ATOM     26  O5* UNL     1       6.682   5.279  19.762  0.00  0.00    +0.000 OA
ATOM     27  H5* UNL     1       5.981   5.871  19.431  0.00  0.00    +0.000 HD
ENDBRANCH  25  26
ENDBRANCH  18  25
ENDBRANCH   1  16
TORSDOF 8
ENDMDL
MODEL 7
REMARK VINA RESULT:      -6.4      3.892      6.163
REMARK  Name = 
REMARK  10 active torsions:
REMARK  status: ('A' for Active; 'I' for Inactive)
REMARK    1  A    between atoms: C_1  and  O_2
REMARK    2  A    between atoms: O_2  and  C_3
REMARK    3  A    between atoms: C_5  and  N_6
REMARK    4  A    between atoms: C_7  and  N_8
REMARK    5  A    between atoms: N_8  and  C1*_9
REMARK    6  A    between atoms: C4*_11  and  C5*_12
REMARK    7  A    between atoms: C5*_12  and  O5*_13
REMARK    8  A    between atoms: C3*_14  and  O3*_15
REMARK    9  A    between atoms: C2*_16  and  O2*_17
REMARK   10  A    between atoms: N_20  and  C_21
REMARK                            x       y       z     vdW  Elec       q    Type
REMARK                         _______ _______ _______ _____ _____    ______ ____
ROOT
ATOM      1  N   UNL     1       2.741   6.732  18.082  0.00  0.00    +0.000 N 
ATOM      2  H   UNL     1       2.609   7.186  17.171  0.00  0.00    +0.000 HD
ENDROOT
BRANCH   1   6
ATOM      3  C   UNL     1       0.948   9.322  20.771  0.00  0.00    +0.000 A 
ATOM      4  N   UNL     1       1.278   8.154  21.198  0.00  0.00    +0.000 NA
ATOM      5  C   UNL     1       1.867   7.278  20.338  0.00  0.00    +0.000 A 
ATOM      6  C   UNL     1       2.158   7.572  19.050  0.00  0.00    +0.000 A 
ATOM      7  C   UNL     1       1.768   8.951  18.579  0.00  0.00    +0.000 A 
ATOM      8  O   UNL     1       1.989   9.252  17.397  0.00  0.00    +0.000 OA
ATOM      9  N   UNL     1       1.172   9.778  19.499  0.00  0.00    +0.000 N 
ATOM     10  C   UNL     1       0.764  11.116  19.109  0.00  0.00    +0.000 C 
BRANCH   5  11
ATOM     11  N   UNL     1       2.096   6.009  20.830  0.00  0.00    +0.000 N 
ATOM     12  H   UNL     1       2.954   6.025  21.375  0.00  0.00    +0.000 HD
ATOM     13  H   UNL     1       1.283   5.704  21.370  0.00  0.00    +0.000 HD
ENDBRANCH   5  11
BRANCH   3  15
ATOM     14  C   UNL     1      -0.363   9.635  22.712  0.00  0.00    +0.000 C 
ATOM     15  O   UNL     1       0.324  10.210  21.592  0.00  0.00    +0.000 OA
ENDBRANCH   3  15
ENDBRANCH   1   6
BRANCH   1  16
ATOM     16  C1* UNL     1       4.081   6.160  18.151  0.00  0.00    +0.000 C 
ATOM     17  O4* UNL     1       4.888   6.625  17.066  0.00  0.00    +0.000 OA
ATOM     18  C4* UNL     1       5.899   5.623  16.805  0.00  0.00    +0.000 C 
ATOM     19  C3* UNL     1       5.512   4.343  17.553  0.00  0.00    +0.000 C 
ATOM     20  C2* UNL     1       4.144   4.628  18.156  0.00  0.00    +0.000 C 
BRANCH  19  21
ATOM     21  O3* UNL     1       6.444   4.028  18.604  0.00  0.00    +0.000 OA
ATOM     22  H3* UNL     1       6.482   3.060  18.714  0.00  0.00    +0.000 HD
ENDBRANCH  19  21
BRANCH  20  23
ATOM     23  O2* UNL     1       4.020   4.076  19.472  0.00  0.00    +0.000 OA
ATOM     24  H2* UNL     1       4.913   4.120  19.871  0.00  0.00    +0.000 HD
ENDBRANCH  20  23
BRANCH  18  25
ATOM     25  C5* UNL     1       6.027   5.409  15.296  0.00  0.00    +0.000 C 
BRANCH  25  26
ATOM     26  O5* UNL     1       7.402   5.411  14.913  0.00  0.00    +0.000 OA
ATOM     27  H5* UNL     1       7.879   5.874  15.627  0.00  0.00    +0.000 HD
ENDBRANCH  25  26
ENDBRANCH  18  25
ENDBRANCH   1  16
TORSDOF 8
ENDMDL
MODEL 8
REMARK VINA RESULT:      -6.4      1.882      3.287
REMARK  Name = 
REMARK  10 active torsions:
REMARK  status: ('A' for Active; 'I' for Inactive)
REMARK    1  A    between atoms: C_1  and  O_2
REMARK    2  A    between atoms: O_2  and  C_3
REMARK    3  A    between atoms: C_5  and  N_6
REMARK    4  A    between atoms: C_7  and  N_8
REMARK    5  A    between atoms: N_8  and  C1*_9
REMARK    6  A    between atoms: C4*_11  and  C5*_12
REMARK    7  A    between atoms: C5*_12  and  O5*_13
REMARK    8  A    between atoms: C3*_14  and  O3*_15
REMARK    9  A    between atoms: C2*_16  and  O2*_17
REMARK   10  A    between atoms: N_20  and  C_21
REMARK                            x       y       z     vdW  Elec       q    Type
REMARK                         _______ _______ _______ _____ _____    ______ ____
ROOT
ATOM      1  N   UNL     1       4.997   3.558  19.673  0.00  0.00    +0.000 N 
ATOM      2  H   UNL     1       5.652   3.816  20.420  0.00  0.00    +0.000 HD
ENDROOT
BRANCH   1   6
ATOM      3  C   UNL     1       6.654   5.225  16.262  0.00  0.00    +0.000 A 
ATOM      4  N   UNL     1       5.880   4.207  16.113  0.00  0.00    +0.000 NA
ATOM      5  C   UNL     1       5.322   3.635  17.215  0.00  0.00    +0.000 A 
ATOM      6  C   UNL     1       5.509   4.092  18.474  0.00  0.00    +0.000 A 
ATOM      7  C   UNL     1       6.413   5.291  18.619  0.00  0.00    +0.000 A 
ATOM      8  O   UNL     1       6.636   5.724  19.758  0.00  0.00    +0.000 OA
ATOM      9  N   UNL     1       6.947   5.811  17.465  0.00  0.00    +0.000 N 
ATOM     10  C   UNL     1       7.832   6.960  17.534  0.00  0.00    +0.000 C 
BRANCH   5  11
ATOM     11  N   UNL     1       4.592   2.485  16.994  0.00  0.00    +0.000 N 
ATOM     12  H   UNL     1       5.117   1.695  17.358  0.00  0.00    +0.000 HD
ATOM     13  H   UNL     1       3.667   2.584  17.421  0.00  0.00    +0.000 HD
ENDBRANCH   5  11
BRANCH   3  15
ATOM     14  C   UNL     1       7.225   5.030  13.977  0.00  0.00    +0.000 C 
ATOM     15  O   UNL     1       7.259   5.800  15.187  0.00  0.00    +0.000 OA
ENDBRANCH   3  15
ENDBRANCH   1   6
BRANCH   1  16
ATOM     16  C1* UNL     1       3.628   3.708  20.152  0.00  0.00    +0.000 C 
ATOM     17  O4* UNL     1       2.873   2.517  19.913  0.00  0.00    +0.000 OA
ATOM     18  C4* UNL     1       1.479   2.891  19.800  0.00  0.00    +0.000 C 
ATOM     19  C3* UNL     1       1.400   4.414  19.650  0.00  0.00    +0.000 C 
ATOM     20  C2* UNL     1       2.845   4.883  19.553  0.00  0.00    +0.000 C 
BRANCH  19  21
ATOM     21  O3* UNL     1       0.769   5.036  20.784  0.00  0.00    +0.000 OA
ATOM     22  H3* UNL     1       0.907   6.000  20.735  0.00  0.00    +0.000 HD
ENDBRANCH  19  21
BRANCH  20  23
ATOM     23  O2* UNL     1       3.054   6.106  20.269  0.00  0.00    +0.000 OA
ATOM     24  H2* UNL     1       2.703   6.820  19.696  0.00  0.00    +0.000 HD
ENDBRANCH  20  23
BRANCH  18  25
ATOM     25  C5* UNL     1       0.848   2.149  18.621  0.00  0.00    +0.000 C 
BRANCH  25  26
ATOM     26  O5* UNL     1       1.851   1.795  17.669  0.00  0.00    +0.000 OA
ATOM     27  H5* UNL     1       2.562   2.456  17.768  0.00  0.00    +0.000 HD
ENDBRANCH  25  26
ENDBRANCH  18  25
ENDBRANCH   1  16
TORSDOF 8
ENDMDL
MODEL 9
REMARK VINA RESULT:      -6.4      3.335      5.340
REMARK  Name = 
REMARK  10 active torsions:
REMARK  status: ('A' for Active; 'I' for Inactive)
REMARK    1  A    between atoms: C_1  and  O_2
REMARK    2  A    between atoms: O_2  and  C_3
REMARK    3  A    between atoms: C_5  and  N_6
REMARK    4  A    between atoms: C_7  and  N_8
REMARK    5  A    between atoms: N_8  and  C1*_9
REMARK    6  A    between atoms: C4*_11  and  C5*_12
REMARK    7  A    between atoms: C5*_12  and  O5*_13
REMARK    8  A    between atoms: C3*_14  and  O3*_15
REMARK    9  A    between atoms: C2*_16  and  O2*_17
REMARK   10  A    between atoms: N_20  and  C_21
REMARK                            x       y       z     vdW  Elec       q    Type
REMARK                         _______ _______ _______ _____ _____    ______ ____
ROOT
ATOM      1  N   UNL     1       3.662   6.127  18.427  0.00  0.00    +0.000 N 
ATOM      2  H   UNL     1       4.572   6.234  18.890  0.00  0.00    +0.000 HD
ENDROOT
BRANCH   1   6
ATOM      3  C   UNL     1       0.913   8.582  20.317  0.00  0.00    +0.000 A 
ATOM      4  N   UNL     1       1.287   7.519  20.937  0.00  0.00    +0.000 NA
ATOM      5  C   UNL     1       2.188   6.689  20.341  0.00  0.00    +0.000 A 
ATOM      6  C   UNL     1       2.744   6.930  19.132  0.00  0.00    +0.000 A 
ATOM      7  C   UNL     1       2.294   8.188  18.432  0.00  0.00    +0.000 A 
ATOM      8  O   UNL     1       2.756   8.432  17.309  0.00  0.00    +0.000 OA
ATOM      9  N   UNL     1       1.378   8.972  19.089  0.00  0.00    +0.000 N 
ATOM     10  C   UNL     1       0.896  10.193  18.468  0.00  0.00    +0.000 C 
BRANCH   5  11
ATOM     11  N   UNL     1       2.464   5.515  21.012  0.00  0.00    +0.000 N 
ATOM     12  H   UNL     1       3.162   5.708  21.726  0.00  0.00    +0.000 HD
ATOM     13  H   UNL     1       1.596   5.131  21.392  0.00  0.00    +0.000 HD
ENDBRANCH   5  11
BRANCH   3  15
ATOM     14  C   UNL     1      -0.214   9.268  22.278  0.00  0.00    +0.000 C 
ATOM     15  O   UNL     1      -0.014   9.415  20.866  0.00  0.00    +0.000 OA
ENDBRANCH   3  15
ENDBRANCH   1   6
BRANCH   1  16
ATOM     16  C1* UNL     1       3.461   4.730  18.062  0.00  0.00    +0.000 C 
ATOM     17  O4* UNL     1       2.069   4.403  18.050  0.00  0.00    +0.000 OA
ATOM     18  C4* UNL     1       1.944   2.985  18.314  0.00  0.00    +0.000 C 
ATOM     19  C3* UNL     1       3.294   2.469  18.820  0.00  0.00    +0.000 C 
ATOM     20  C2* UNL     1       4.171   3.706  18.957  0.00  0.00    +0.000 C 
BRANCH  19  21
ATOM     21  O3* UNL     1       3.903   1.550  17.895  0.00  0.00    +0.000 OA
ATOM     22  H3* UNL     1       4.511   0.965  18.384  0.00  0.00    +0.000 HD
ENDBRANCH  19  21
BRANCH  20  23
ATOM     23  O2* UNL     1       5.517   3.450  18.539  0.00  0.00    +0.000 OA
ATOM     24  H2* UNL     1       6.076   4.107  19.005  0.00  0.00    +0.000 HD
ENDBRANCH  20  23
BRANCH  18  25
ATOM     25  C5* UNL     1       0.810   2.752  19.314  0.00  0.00    +0.000 C 
BRANCH  25  26
ATOM     26  O5* UNL     1       1.337   2.631  20.635  0.00  0.00    +0.000 OA
ATOM     27  H5* UNL     1       2.303   2.544  20.532  0.00  0.00    +0.000 HD
ENDBRANCH  25  26
ENDBRANCH  18  25
ENDBRANCH   1  16
TORSDOF 8
ENDMDL
