MODEL 1
REMARK VINA RESULT:      -7.3      0.000      0.000
REMARK  Name = 
REMARK  7 active torsions:
REMARK  status: ('A' for Active; 'I' for Inactive)
REMARK    1  A    between atoms: C_1  and  C_2
REMARK    2  A    between atoms: C_2  and  O_3
REMARK    3  A    between atoms: O_3  and  C_4
REMARK    4  A    between atoms: C_11  and  O_12
REMARK    5  A    between atoms: O_12  and  C_13
REMARK    6  A    between atoms: C_14  and  O_15
REMARK    7  A    between atoms: O_15  and  C_16
REMARK                            x       y       z     vdW  Elec       q    Type
REMARK                         _______ _______ _______ _____ _____    ______ ____
ROOT
ATOM      1  C   UNL     1       1.035   3.880  19.874  0.00  0.00    +0.000 C 
ATOM      2  O   UNL     1       0.615   4.914  20.375  0.00  0.00    +0.000 OA
ATOM      3  N   UNL     1       1.826   3.822  18.746  0.00  0.00    +0.000 N 
ATOM      4  C   UNL     1       2.062   2.568  18.014  0.00  0.00    +0.000 C 
ATOM      5  C   UNL     1       3.533   2.386  17.618  0.00  0.00    +0.000 C 
ATOM      6  C   UNL     1       4.175   3.662  17.149  0.00  0.00    +0.000 A 
ATOM      7  C   UNL     1       5.417   3.691  16.527  0.00  0.00    +0.000 A 
ATOM      8  C   UNL     1       6.063   4.911  16.235  0.00  0.00    +0.000 A 
ATOM      9  C   UNL     1       5.497   6.156  16.620  0.00  0.00    +0.000 A 
ATOM     10  C   UNL     1       4.250   6.104  17.259  0.00  0.00    +0.000 A 
ATOM     11  C   UNL     1       3.593   4.881  17.457  0.00  0.00    +0.000 A 
ATOM     12  C   UNL     1       2.202   5.025  18.018  0.00  0.00    +0.000 C 
ATOM     13  C   UNL     1       2.297   6.373  18.719  0.00  0.00    +0.000 C 
ATOM     14  C   UNL     1       3.381   7.088  17.944  0.00  0.00    +0.000 C 
ATOM     15  O   UNL     1       3.515   8.299  17.967  0.00  0.00    +0.000 OA
ENDROOT
BRANCH   8  16
ATOM     16  O   UNL     1       7.256   4.674  15.589  0.00  0.00    +0.000 OA
ATOM     17  C   UNL     1       7.340   4.798  14.179  0.00  0.00    +0.000 C 
ENDBRANCH   8  16
BRANCH   9  18
ATOM     18  O   UNL     1       6.258   7.246  16.339  0.00  0.00    +0.000 OA
ATOM     19  C   UNL     1       7.271   7.706  17.209  0.00  0.00    +0.000 C 
ENDBRANCH   9  18
BRANCH   1  20
ATOM     20  O   UNL     1       0.854   2.650  20.427  0.00  0.00    +0.000 OA
BRANCH  20  22
ATOM     21  C   UNL     1       2.931   2.480  21.594  0.00  0.00    +0.000 C 
ATOM     22  C   UNL     1       1.418   2.468  21.732  0.00  0.00    +0.000 C 
ENDBRANCH  20  22
ENDBRANCH   1  20
TORSDOF 4
ENDMDL
MODEL 2
REMARK VINA RESULT:      -6.5      2.078      6.477
REMARK  Name = 
REMARK  7 active torsions:
REMARK  status: ('A' for Active; 'I' for Inactive)
REMARK    1  A    between atoms: C_1  and  C_2
REMARK    2  A    between atoms: C_2  and  O_3
REMARK    3  A    between atoms: O_3  and  C_4
REMARK    4  A    between atoms: C_11  and  O_12
REMARK    5  A    between atoms: O_12  and  C_13
REMARK    6  A    between atoms: C_14  and  O_15
REMARK    7  A    between atoms: O_15  and  C_16
REMARK                            x       y       z     vdW  Elec       q    Type
REMARK                         _______ _______ _______ _____ _____    ______ ____
ROOT
ATOM      1  C   UNL     1       7.049   5.470  16.783  0.00  0.00    +0.000 C 
ATOM      2  O   UNL     1       7.695   4.466  17.047  0.00  0.00    +0.000 OA
ATOM      3  N   UNL     1       5.714   5.642  17.083  0.00  0.00    +0.000 N 
ATOM      4  C   UNL     1       4.909   6.725  16.497  0.00  0.00    +0.000 C 
ATOM      5  C   UNL     1       4.017   7.423  17.533  0.00  0.00    +0.000 C 
ATOM      6  C   UNL     1       3.391   6.464  18.507  0.00  0.00    +0.000 A 
ATOM      7  C   UNL     1       2.375   6.836  19.378  0.00  0.00    +0.000 A 
ATOM      8  C   UNL     1       1.911   5.960  20.382  0.00  0.00    +0.000 A 
ATOM      9  C   UNL     1       2.508   4.687  20.582  0.00  0.00    +0.000 A 
ATOM     10  C   UNL     1       3.540   4.335  19.703  0.00  0.00    +0.000 A 
ATOM     11  C   UNL     1       3.920   5.191  18.659  0.00  0.00    +0.000 A 
ATOM     12  C   UNL     1       4.936   4.592  17.723  0.00  0.00    +0.000 C 
ATOM     13  C   UNL     1       5.600   3.556  18.620  0.00  0.00    +0.000 C 
ATOM     14  C   UNL     1       4.516   3.223  19.621  0.00  0.00    +0.000 C 
ATOM     15  O   UNL     1       4.526   2.202  20.286  0.00  0.00    +0.000 OA
ENDROOT
BRANCH   8  16
ATOM     16  O   UNL     1       0.882   6.546  21.084  0.00  0.00    +0.000 OA
ATOM     17  C   UNL     1       0.855   7.953  21.269  0.00  0.00    +0.000 C 
ENDBRANCH   8  16
BRANCH   9  18
ATOM     18  O   UNL     1       2.010   3.976  21.629  0.00  0.00    +0.000 OA
ATOM     19  C   UNL     1       1.326   2.752  21.456  0.00  0.00    +0.000 C 
ENDBRANCH   9  18
BRANCH   1  20
ATOM     20  O   UNL     1       7.593   6.595  16.243  0.00  0.00    +0.000 OA
BRANCH  20  22
ATOM     21  C   UNL     1       8.206   7.283  18.446  0.00  0.00    +0.000 C 
ATOM     22  C   UNL     1       7.645   7.736  17.109  0.00  0.00    +0.000 C 
ENDBRANCH  20  22
ENDBRANCH   1  20
TORSDOF 4
ENDMDL
MODEL 3
REMARK VINA RESULT:      -6.4      1.921      5.857
REMARK  Name = 
REMARK  7 active torsions:
REMARK  status: ('A' for Active; 'I' for Inactive)
REMARK    1  A    between atoms: C_1  and  C_2
REMARK    2  A    between atoms: C_2  and  O_3
REMARK    3  A    between atoms: O_3  and  C_4
REMARK    4  A    between atoms: C_11  and  O_12
REMARK    5  A    between atoms: O_12  and  C_13
REMARK    6  A    between atoms: C_14  and  O_15
REMARK    7  A    between atoms: O_15  and  C_16
REMARK                            x       y       z     vdW  Elec       q    Type
REMARK                         _______ _______ _______ _____ _____    ______ ____
ROOT
ATOM      1  C   UNL     1       5.674   5.780  15.387  0.00  0.00    +0.000 C 
ATOM      2  O   UNL     1       5.299   6.795  14.817  0.00  0.00    +0.000 OA
ATOM      3  N   UNL     1       5.465   5.512  16.724  0.00  0.00    +0.000 N 
ATOM      4  C   UNL     1       6.177   4.436  17.430  0.00  0.00    +0.000 C 
ATOM      5  C   UNL     1       5.250   3.610  18.332  0.00  0.00    +0.000 C 
ATOM      6  C   UNL     1       4.244   4.453  19.065  0.00  0.00    +0.000 A 
ATOM      7  C   UNL     1       3.464   3.957  20.102  0.00  0.00    +0.000 A 
ATOM      8  C   UNL     1       2.424   4.724  20.670  0.00  0.00    +0.000 A 
ATOM      9  C   UNL     1       2.094   6.009  20.162  0.00  0.00    +0.000 A 
ATOM     10  C   UNL     1       2.884   6.485  19.107  0.00  0.00    +0.000 A 
ATOM     11  C   UNL     1       3.966   5.737  18.622  0.00  0.00    +0.000 A 
ATOM     12  C   UNL     1       4.794   6.464  17.595  0.00  0.00    +0.000 C 
ATOM     13  C   UNL     1       3.784   7.461  17.043  0.00  0.00    +0.000 C 
ATOM     14  C   UNL     1       2.825   7.652  18.197  0.00  0.00    +0.000 C 
ATOM     15  O   UNL     1       2.085   8.617  18.283  0.00  0.00    +0.000 OA
ENDROOT
BRANCH   8  16
ATOM     16  O   UNL     1       1.829   4.028  21.698  0.00  0.00    +0.000 OA
ATOM     17  C   UNL     1       1.569   2.639  21.563  0.00  0.00    +0.000 C 
ENDBRANCH   8  16
BRANCH   9  18
ATOM     18  O   UNL     1       1.027   6.605  20.756  0.00  0.00    +0.000 OA
ATOM     19  C   UNL     1       1.102   7.896  21.326  0.00  0.00    +0.000 C 
ENDBRANCH   9  18
BRANCH   1  20
ATOM     20  O   UNL     1       6.266   4.734  14.748  0.00  0.00    +0.000 OA
BRANCH  20  22
ATOM     21  C   UNL     1       6.363   3.608  12.644  0.00  0.00    +0.000 C 
ATOM     22  C   UNL     1       5.455   4.064  13.774  0.00  0.00    +0.000 C 
ENDBRANCH  20  22
ENDBRANCH   1  20
TORSDOF 4
ENDMDL
MODEL 4
REMARK VINA RESULT:      -6.2      1.756      6.460
REMARK  Name = 
REMARK  7 active torsions:
REMARK  status: ('A' for Active; 'I' for Inactive)
REMARK    1  A    between atoms: C_1  and  C_2
REMARK    2  A    between atoms: C_2  and  O_3
REMARK    3  A    between atoms: O_3  and  C_4
REMARK    4  A    between atoms: C_11  and  O_12
REMARK    5  A    between atoms: O_12  and  C_13
REMARK    6  A    between atoms: C_14  and  O_15
REMARK    7  A    between atoms: O_15  and  C_16
REMARK                            x       y       z     vdW  Elec       q    Type
REMARK                         _______ _______ _______ _____ _____    ______ ____
ROOT
ATOM      1  C   UNL     1       6.201   4.467  15.613  0.00  0.00    +0.000 C 
ATOM      2  O   UNL     1       6.351   3.255  15.560  0.00  0.00    +0.000 OA
ATOM      3  N   UNL     1       5.099   5.097  16.152  0.00  0.00    +0.000 N 
ATOM      4  C   UNL     1       4.825   6.526  15.935  0.00  0.00    +0.000 C 
ATOM      5  C   UNL     1       4.393   7.244  17.221  0.00  0.00    +0.000 C 
ATOM      6  C   UNL     1       3.464   6.420  18.068  0.00  0.00    +0.000 A 
ATOM      7  C   UNL     1       2.768   6.948  19.148  0.00  0.00    +0.000 A 
ATOM      8  C   UNL     1       2.022   6.122  20.015  0.00  0.00    +0.000 A 
ATOM      9  C   UNL     1       2.004   4.711  19.854  0.00  0.00    +0.000 A 
ATOM     10  C   UNL     1       2.723   4.196  18.767  0.00  0.00    +0.000 A 
ATOM     11  C   UNL     1       3.382   5.050  17.872  0.00  0.00    +0.000 A 
ATOM     12  C   UNL     1       3.975   4.341  16.682  0.00  0.00    +0.000 C 
ATOM     13  C   UNL     1       4.161   2.933  17.232  0.00  0.00    +0.000 C 
ATOM     14  C   UNL     1       3.100   2.840  18.306  0.00  0.00    +0.000 C 
ATOM     15  O   UNL     1       2.695   1.776  18.740  0.00  0.00    +0.000 OA
ENDROOT
BRANCH   8  16
ATOM     16  O   UNL     1       1.399   6.885  20.978  0.00  0.00    +0.000 OA
ATOM     17  C   UNL     1       1.391   8.299  20.872  0.00  0.00    +0.000 C 
ENDBRANCH   8  16
BRANCH   9  18
ATOM     18  O   UNL     1       1.303   4.033  20.802  0.00  0.00    +0.000 OA
ATOM     19  C   UNL     1       1.931   3.215  21.767  0.00  0.00    +0.000 C 
ENDBRANCH   9  18
BRANCH   1  20
ATOM     20  O   UNL     1       7.156   5.360  15.231  0.00  0.00    +0.000 OA
BRANCH  20  22
ATOM     21  C   UNL     1       6.698   4.605  13.012  0.00  0.00    +0.000 C 
ATOM     22  C   UNL     1       7.773   5.103  13.963  0.00  0.00    +0.000 C 
ENDBRANCH  20  22
ENDBRANCH   1  20
TORSDOF 4
ENDMDL
MODEL 5
REMARK VINA RESULT:      -6.1      3.014      5.914
REMARK  Name = 
REMARK  7 active torsions:
REMARK  status: ('A' for Active; 'I' for Inactive)
REMARK    1  A    between atoms: C_1  and  C_2
REMARK    2  A    between atoms: C_2  and  O_3
REMARK    3  A    between atoms: O_3  and  C_4
REMARK    4  A    between atoms: C_11  and  O_12
REMARK    5  A    between atoms: O_12  and  C_13
REMARK    6  A    between atoms: C_14  and  O_15
REMARK    7  A    between atoms: O_15  and  C_16
REMARK                            x       y       z     vdW  Elec       q    Type
REMARK                         _______ _______ _______ _____ _____    ______ ____
ROOT
ATOM      1  C   UNL     1       3.634   4.336  17.914  0.00  0.00    +0.000 C 
ATOM      2  O   UNL     1       3.954   4.733  16.802  0.00  0.00    +0.000 OA
ATOM      3  N   UNL     1       3.298   5.156  18.971  0.00  0.00    +0.000 N 
ATOM      4  C   UNL     1       3.208   4.660  20.352  0.00  0.00    +0.000 C 
ATOM      5  C   UNL     1       1.965   5.185  21.085  0.00  0.00    +0.000 C 
ATOM      6  C   UNL     1       1.674   6.628  20.783  0.00  0.00    +0.000 A 
ATOM      7  C   UNL     1       0.748   7.373  21.504  0.00  0.00    +0.000 A 
ATOM      8  C   UNL     1       0.384   8.676  21.105  0.00  0.00    +0.000 A 
ATOM      9  C   UNL     1       0.904   9.255  19.917  0.00  0.00    +0.000 A 
ATOM     10  C   UNL     1       1.826   8.484  19.197  0.00  0.00    +0.000 A 
ATOM     11  C   UNL     1       2.234   7.227  19.666  0.00  0.00    +0.000 A 
ATOM     12  C   UNL     1       3.338   6.605  18.851  0.00  0.00    +0.000 C 
ATOM     13  C   UNL     1       3.143   7.291  17.505  0.00  0.00    +0.000 C 
ATOM     14  C   UNL     1       2.492   8.604  17.880  0.00  0.00    +0.000 C 
ATOM     15  O   UNL     1       2.489   9.570  17.138  0.00  0.00    +0.000 OA
ENDROOT
BRANCH   8  16
ATOM     16  O   UNL     1      -0.516   9.212  21.999  0.00  0.00    +0.000 OA
ATOM     17  C   UNL     1      -0.097   9.568  23.307  0.00  0.00    +0.000 C 
ENDBRANCH   8  16
BRANCH   9  18
ATOM     18  O   UNL     1       0.415  10.488  19.616  0.00  0.00    +0.000 OA
ATOM     19  C   UNL     1      -0.716  10.672  18.790  0.00  0.00    +0.000 C 
ENDBRANCH   9  18
BRANCH   1  20
ATOM     20  O   UNL     1       3.472   3.020  18.225  0.00  0.00    +0.000 OA
BRANCH  20  22
ATOM     21  C   UNL     1       1.240   2.262  18.610  0.00  0.00    +0.000 C 
ATOM     22  C   UNL     1       2.364   2.366  17.593  0.00  0.00    +0.000 C 
ENDBRANCH  20  22
ENDBRANCH   1  20
TORSDOF 4
ENDMDL
MODEL 6
REMARK VINA RESULT:      -6.0      1.734      6.323
REMARK  Name = 
REMARK  7 active torsions:
REMARK  status: ('A' for Active; 'I' for Inactive)
REMARK    1  A    between atoms: C_1  and  C_2
REMARK    2  A    between atoms: C_2  and  O_3
REMARK    3  A    between atoms: O_3  and  C_4
REMARK    4  A    between atoms: C_11  and  O_12
REMARK    5  A    between atoms: O_12  and  C_13
REMARK    6  A    between atoms: C_14  and  O_15
REMARK    7  A    between atoms: O_15  and  C_16
REMARK                            x       y       z     vdW  Elec       q    Type
REMARK                         _______ _______ _______ _____ _____    ______ ____
ROOT
ATOM      1  C   UNL     1       6.389   5.093  16.245  0.00  0.00    +0.000 C 
ATOM      2  O   UNL     1       6.676   3.910  16.128  0.00  0.00    +0.000 OA
ATOM      3  N   UNL     1       5.168   5.561  16.685  0.00  0.00    +0.000 N 
ATOM      4  C   UNL     1       4.765   6.968  16.534  0.00  0.00    +0.000 C 
ATOM      5  C   UNL     1       4.110   7.532  17.802  0.00  0.00    +0.000 C 
ATOM      6  C   UNL     1       3.185   6.553  18.468  0.00  0.00    +0.000 A 
ATOM      7  C   UNL     1       2.314   6.918  19.487  0.00  0.00    +0.000 A 
ATOM      8  C   UNL     1       1.568   5.953  20.196  0.00  0.00    +0.000 A 
ATOM      9  C   UNL     1       1.724   4.565  19.938  0.00  0.00    +0.000 A 
ATOM     10  C   UNL     1       2.618   4.216  18.917  0.00  0.00    +0.000 A 
ATOM     11  C   UNL     1       3.279   5.202  18.170  0.00  0.00    +0.000 A 
ATOM     12  C   UNL     1       4.080   4.655  17.018  0.00  0.00    +0.000 C 
ATOM     13  C   UNL     1       4.355   3.233  17.490  0.00  0.00    +0.000 C 
ATOM     14  C   UNL     1       3.193   2.947  18.414  0.00  0.00    +0.000 C 
ATOM     15  O   UNL     1       2.861   1.815  18.720  0.00  0.00    +0.000 OA
ENDROOT
BRANCH   8  16
ATOM     16  O   UNL     1       0.757   6.568  21.124  0.00  0.00    +0.000 OA
ATOM     17  C   UNL     1       0.879   7.961  21.365  0.00  0.00    +0.000 C 
ENDBRANCH   8  16
BRANCH   9  18
ATOM     18  O   UNL     1       0.997   3.744  20.742  0.00  0.00    +0.000 OA
ATOM     19  C   UNL     1       1.594   2.933  21.733  0.00  0.00    +0.000 C 
ENDBRANCH   9  18
BRANCH   1  20
ATOM     20  O   UNL     1       7.276   6.105  16.047  0.00  0.00    +0.000 OA
BRANCH  20  22
ATOM     21  C   UNL     1       7.810   5.958  18.371  0.00  0.00    +0.000 C 
ATOM     22  C   UNL     1       7.578   6.900  17.202  0.00  0.00    +0.000 C 
ENDBRANCH  20  22
ENDBRANCH   1  20
TORSDOF 4
ENDMDL
MODEL 7
REMARK VINA RESULT:      -6.0      2.832      5.124
REMARK  Name = 
REMARK  7 active torsions:
REMARK  status: ('A' for Active; 'I' for Inactive)
REMARK    1  A    between atoms: C_1  and  C_2
REMARK    2  A    between atoms: C_2  and  O_3
REMARK    3  A    between atoms: O_3  and  C_4
REMARK    4  A    between atoms: C_11  and  O_12
REMARK    5  A    between atoms: O_12  and  C_13
REMARK    6  A    between atoms: C_14  and  O_15
REMARK    7  A    between atoms: O_15  and  C_16
REMARK                            x       y       z     vdW  Elec       q    Type
REMARK                         _______ _______ _______ _____ _____    ______ ____
ROOT
ATOM      1  C   UNL     1       0.582   9.029  19.879  0.00  0.00    +0.000 C 
ATOM      2  O   UNL     1      -0.058   8.681  20.862  0.00  0.00    +0.000 OA
ATOM      3  N   UNL     1       1.714   8.391  19.417  0.00  0.00    +0.000 N 
ATOM      4  C   UNL     1       2.612   9.001  18.425  0.00  0.00    +0.000 C 
ATOM      5  C   UNL     1       3.040   8.013  17.331  0.00  0.00    +0.000 C 
ATOM      6  C   UNL     1       3.334   6.640  17.867  0.00  0.00    +0.000 A 
ATOM      7  C   UNL     1       3.956   5.656  17.108  0.00  0.00    +0.000 A 
ATOM      8  C   UNL     1       4.084   4.334  17.582  0.00  0.00    +0.000 A 
ATOM      9  C   UNL     1       3.527   3.941  18.829  0.00  0.00    +0.000 A 
ATOM     10  C   UNL     1       2.893   4.944  19.574  0.00  0.00    +0.000 A 
ATOM     11  C   UNL     1       2.859   6.269  19.115  0.00  0.00    +0.000 A 
ATOM     12  C   UNL     1       2.273   7.239  20.108  0.00  0.00    +0.000 C 
ATOM     13  C   UNL     1       1.395   6.320  20.946  0.00  0.00    +0.000 C 
ATOM     14  C   UNL     1       2.073   4.975  20.807  0.00  0.00    +0.000 C 
ATOM     15  O   UNL     1       1.886   4.060  21.590  0.00  0.00    +0.000 OA
ENDROOT
BRANCH   8  16
ATOM     16  O   UNL     1       4.764   3.564  16.665  0.00  0.00    +0.000 OA
ATOM     17  C   UNL     1       5.892   4.095  15.986  0.00  0.00    +0.000 C 
ENDBRANCH   8  16
BRANCH   9  18
ATOM     18  O   UNL     1       3.663   2.622  19.129  0.00  0.00    +0.000 OA
ATOM     19  C   UNL     1       4.511   2.165  20.162  0.00  0.00    +0.000 C 
ENDBRANCH   9  18
BRANCH   1  20
ATOM     20  O   UNL     1       0.201  10.042  19.053  0.00  0.00    +0.000 OA
BRANCH  20  22
ATOM     21  C   UNL     1      -1.888  10.174  17.903  0.00  0.00    +0.000 C 
ATOM     22  C   UNL     1      -1.155  10.482  19.198  0.00  0.00    +0.000 C 
ENDBRANCH  20  22
ENDBRANCH   1  20
TORSDOF 4
ENDMDL
MODEL 8
REMARK VINA RESULT:      -5.9      3.200      5.306
REMARK  Name = 
REMARK  7 active torsions:
REMARK  status: ('A' for Active; 'I' for Inactive)
REMARK    1  A    between atoms: C_1  and  C_2
REMARK    2  A    between atoms: C_2  and  O_3
REMARK    3  A    between atoms: O_3  and  C_4
REMARK    4  A    between atoms: C_11  and  O_12
REMARK    5  A    between atoms: O_12  and  C_13
REMARK    6  A    between atoms: C_14  and  O_15
REMARK    7  A    between atoms: O_15  and  C_16
REMARK                            x       y       z     vdW  Elec       q    Type
REMARK                         _______ _______ _______ _____ _____    ______ ____
ROOT
ATOM      1  C   UNL     1      -0.017   9.154  20.506  0.00  0.00    +0.000 C 
ATOM      2  O   UNL     1      -0.529   8.581  21.457  0.00  0.00    +0.000 OA
ATOM      3  N   UNL     1       1.161   8.768  19.901  0.00  0.00    +0.000 N 
ATOM      4  C   UNL     1       1.886   9.640  18.965  0.00  0.00    +0.000 C 
ATOM      5  C   UNL     1       2.378   8.887  17.720  0.00  0.00    +0.000 C 
ATOM      6  C   UNL     1       2.908   7.517  18.037  0.00  0.00    +0.000 A 
ATOM      7  C   UNL     1       3.612   6.754  17.113  0.00  0.00    +0.000 A 
ATOM      8  C   UNL     1       3.967   5.416  17.385  0.00  0.00    +0.000 A 
ATOM      9  C   UNL     1       3.564   4.776  18.587  0.00  0.00    +0.000 A 
ATOM     10  C   UNL     1       2.842   5.558  19.500  0.00  0.00    +0.000 A 
ATOM     11  C   UNL     1       2.581   6.911  19.240  0.00  0.00    +0.000 A 
ATOM     12  C   UNL     1       1.931   7.634  20.389  0.00  0.00    +0.000 C 
ATOM     13  C   UNL     1       1.259   6.485  21.128  0.00  0.00    +0.000 C 
ATOM     14  C   UNL     1       2.116   5.293  20.763  0.00  0.00    +0.000 C 
ATOM     15  O   UNL     1       2.121   4.263  21.414  0.00  0.00    +0.000 OA
ENDROOT
BRANCH   8  16
ATOM     16  O   UNL     1       4.687   4.893  16.334  0.00  0.00    +0.000 OA
ATOM     17  C   UNL     1       5.565   5.722  15.589  0.00  0.00    +0.000 C 
ENDBRANCH   8  16
BRANCH   9  18
ATOM     18  O   UNL     1       3.912   3.466  18.687  0.00  0.00    +0.000 OA
ATOM     19  C   UNL     1       3.047   2.420  18.294  0.00  0.00    +0.000 C 
ENDBRANCH   9  18
BRANCH   1  20
ATOM     20  O   UNL     1      -0.600  10.197  19.854  0.00  0.00    +0.000 OA
BRANCH  20  22
ATOM     21  C   UNL     1       0.135  12.079  21.129  0.00  0.00    +0.000 C 
ATOM     22  C   UNL     1      -1.069  11.265  20.689  0.00  0.00    +0.000 C 
ENDBRANCH  20  22
ENDBRANCH   1  20
TORSDOF 4
ENDMDL
MODEL 9
REMARK VINA RESULT:      -5.8      3.202      5.422
REMARK  Name = 
REMARK  7 active torsions:
REMARK  status: ('A' for Active; 'I' for Inactive)
REMARK    1  A    between atoms: C_1  and  C_2
REMARK    2  A    between atoms: C_2  and  O_3
REMARK    3  A    between atoms: O_3  and  C_4
REMARK    4  A    between atoms: C_11  and  O_12
REMARK    5  A    between atoms: O_12  and  C_13
REMARK    6  A    between atoms: C_14  and  O_15
REMARK    7  A    between atoms: O_15  and  C_16
REMARK                            x       y       z     vdW  Elec       q    Type
REMARK                         _______ _______ _______ _____ _____    ______ ____
ROOT
ATOM      1  C   UNL     1      -0.081   9.437  20.362  0.00  0.00    +0.000 C 
ATOM      2  O   UNL     1      -0.629   8.861  21.291  0.00  0.00    +0.000 OA
ATOM      3  N   UNL     1       1.116   9.049  19.798  0.00  0.00    +0.000 N 
ATOM      4  C   UNL     1       1.879   9.923  18.894  0.00  0.00    +0.000 C 
ATOM      5  C   UNL     1       2.411   9.175  17.663  0.00  0.00    +0.000 C 
ATOM      6  C   UNL     1       2.923   7.800  17.990  0.00  0.00    +0.000 A 
ATOM      7  C   UNL     1       3.656   7.039  17.087  0.00  0.00    +0.000 A 
ATOM      8  C   UNL     1       3.994   5.698  17.363  0.00  0.00    +0.000 A 
ATOM      9  C   UNL     1       3.544   5.052  18.546  0.00  0.00    +0.000 A 
ATOM     10  C   UNL     1       2.794   5.832  19.437  0.00  0.00    +0.000 A 
ATOM     11  C   UNL     1       2.550   7.188  19.176  0.00  0.00    +0.000 A 
ATOM     12  C   UNL     1       1.862   7.908  20.307  0.00  0.00    +0.000 C 
ATOM     13  C   UNL     1       1.158   6.758  21.013  0.00  0.00    +0.000 C 
ATOM     14  C   UNL     1       2.022   5.564  20.671  0.00  0.00    +0.000 C 
ATOM     15  O   UNL     1       1.998   4.530  21.315  0.00  0.00    +0.000 OA
ENDROOT
BRANCH   8  16
ATOM     16  O   UNL     1       4.748   5.178  16.335  0.00  0.00    +0.000 OA
ATOM     17  C   UNL     1       6.165   5.199  16.410  0.00  0.00    +0.000 C 
ENDBRANCH   8  16
BRANCH   9  18
ATOM     18  O   UNL     1       3.882   3.740  18.649  0.00  0.00    +0.000 OA
ATOM     19  C   UNL     1       3.032   2.702  18.207  0.00  0.00    +0.000 C 
ENDBRANCH   9  18
BRANCH   1  20
ATOM     20  O   UNL     1      -0.635  10.488  19.697  0.00  0.00    +0.000 OA
BRANCH  20  22
ATOM     21  C   UNL     1      -2.085  11.436  18.053  0.00  0.00    +0.000 C 
ATOM     22  C   UNL     1      -1.550  10.144  18.649  0.00  0.00    +0.000 C 
ENDBRANCH  20  22
ENDBRANCH   1  20
TORSDOF 4
ENDMDL
