MODEL 1
REMARK VINA RESULT:      -7.9      0.000      0.000
REMARK  Name = 
REMARK  7 active torsions:
REMARK  status: ('A' for Active; 'I' for Inactive)
REMARK    1  A    between atoms: C_1  and  C_2
REMARK    2  A    between atoms: C_2  and  O_4
REMARK    3  A    between atoms: O_4  and  N_5
REMARK    4  A    between atoms: N_5  and  C_9
REMARK    5  A    between atoms: C_6  and  C_7
REMARK    6  A    between atoms: C_12  and  C_13
REMARK    7  A    between atoms: C_23  and  C_24
REMARK                            x       y       z     vdW  Elec       q    Type
REMARK                         _______ _______ _______ _____ _____    ______ ____
ROOT
ATOM      1  C   UNL     1       5.151   5.615  17.597  0.00  0.00    +0.000 A 
ATOM      2  C   UNL     1       5.052   6.890  17.033  0.00  0.00    +0.000 A 
ATOM      3  C   UNL     1       4.001   7.747  17.382  0.00  0.00    +0.000 A 
ATOM      4  C   UNL     1       3.036   7.352  18.317  0.00  0.00    +0.000 A 
ATOM      5  C   UNL     1       3.119   6.054  18.850  0.00  0.00    +0.000 A 
ATOM      6  C   UNL     1       4.162   5.171  18.497  0.00  0.00    +0.000 A 
ATOM      7  C   UNL     1       4.196   3.804  19.123  0.00  0.00    +0.000 C 
ENDROOT
BRANCH   4   8
ATOM      8  C   UNL     1       1.965   8.298  18.681  0.00  0.00    +0.000 A 
ATOM      9  N   UNL     1       1.297   9.022  17.808  0.00  0.00    +0.000 NA
ATOM     10  C   UNL     1       0.353   9.805  18.451  0.00  0.00    +0.000 A 
ATOM     11  C   UNL     1      -0.572  10.666  17.826  0.00  0.00    +0.000 A 
ATOM     12  C   UNL     1      -1.484  11.391  18.599  0.00  0.00    +0.000 A 
ATOM     13  C   UNL     1      -1.476  11.278  19.986  0.00  0.00    +0.000 A 
ATOM     14  C   UNL     1      -0.561  10.440  20.632  0.00  0.00    +0.000 A 
ATOM     15  C   UNL     1       0.340   9.705  19.842  0.00  0.00    +0.000 A 
ATOM     16  S   UNL     1       1.554   8.586  20.329  0.00  0.00    +0.000 S 
ENDBRANCH   4   8
BRANCH   1  17
ATOM     17  N   UNL     1       6.293   4.854  17.293  0.00  0.00    +0.000 N 
ATOM     18  C   UNL     1       7.476   4.781  18.004  0.00  0.00    +0.000 C 
ATOM     19  C   UNL     1       7.561   5.540  19.306  0.00  0.00    +0.000 C 
ATOM     20  O   UNL     1       8.439   4.097  17.642  0.00  0.00    +0.000 OA
BRANCH  17  21
ATOM     21  O   UNL     1       6.187   3.949  16.211  0.00  0.00    +0.000 OA
BRANCH  21  23
ATOM     22  C   UNL     1       5.647   3.993  13.925  0.00  0.00    +0.000 C 
ATOM     23  C   UNL     1       6.530   4.529  15.014  0.00  0.00    +0.000 C 
ATOM     24  O   UNL     1       7.430   5.342  14.842  0.00  0.00    +0.000 OA
ENDBRANCH  21  23
ENDBRANCH  17  21
ENDBRANCH   1  17
TORSDOF 4
ENDMDL
MODEL 2
REMARK VINA RESULT:      -7.9      1.325      1.872
REMARK  Name = 
REMARK  7 active torsions:
REMARK  status: ('A' for Active; 'I' for Inactive)
REMARK    1  A    between atoms: C_1  and  C_2
REMARK    2  A    between atoms: C_2  and  O_4
REMARK    3  A    between atoms: O_4  and  N_5
REMARK    4  A    between atoms: N_5  and  C_9
REMARK    5  A    between atoms: C_6  and  C_7
REMARK    6  A    between atoms: C_12  and  C_13
REMARK    7  A    between atoms: C_23  and  C_24
REMARK                            x       y       z     vdW  Elec       q    Type
REMARK                         _______ _______ _______ _____ _____    ______ ____
ROOT
ATOM      1  C   UNL     1       4.725   5.658  17.699  0.00  0.00    +0.000 A 
ATOM      2  C   UNL     1       4.454   6.958  17.262  0.00  0.00    +0.000 A 
ATOM      3  C   UNL     1       3.518   7.756  17.931  0.00  0.00    +0.000 A 
ATOM      4  C   UNL     1       2.847   7.276  19.063  0.00  0.00    +0.000 A 
ATOM      5  C   UNL     1       3.095   5.954  19.472  0.00  0.00    +0.000 A 
ATOM      6  C   UNL     1       4.023   5.129  18.799  0.00  0.00    +0.000 A 
ATOM      7  C   UNL     1       4.250   3.732  19.307  0.00  0.00    +0.000 C 
ENDROOT
BRANCH   4   8
ATOM      8  C   UNL     1       1.894   8.161  19.757  0.00  0.00    +0.000 A 
ATOM      9  N   UNL     1       1.534   8.010  21.015  0.00  0.00    +0.000 NA
ATOM     10  C   UNL     1       0.637   8.999  21.382  0.00  0.00    +0.000 A 
ATOM     11  C   UNL     1       0.081   9.175  22.666  0.00  0.00    +0.000 A 
ATOM     12  C   UNL     1      -0.806  10.231  22.904  0.00  0.00    +0.000 A 
ATOM     13  C   UNL     1      -1.154  11.101  21.876  0.00  0.00    +0.000 A 
ATOM     14  C   UNL     1      -0.625  10.942  20.591  0.00  0.00    +0.000 A 
ATOM     15  C   UNL     1       0.277   9.887  20.369  0.00  0.00    +0.000 A 
ATOM     16  S   UNL     1       1.107   9.447  18.926  0.00  0.00    +0.000 S 
ENDBRANCH   4   8
BRANCH   1  17
ATOM     17  N   UNL     1       5.760   4.956  17.054  0.00  0.00    +0.000 N 
ATOM     18  C   UNL     1       7.079   4.844  17.447  0.00  0.00    +0.000 C 
ATOM     19  C   UNL     1       7.478   5.477  18.758  0.00  0.00    +0.000 C 
ATOM     20  O   UNL     1       7.926   4.220  16.798  0.00  0.00    +0.000 OA
BRANCH  17  21
ATOM     21  O   UNL     1       5.394   4.155  15.947  0.00  0.00    +0.000 OA
BRANCH  21  23
ATOM     22  C   UNL     1       5.888   3.658  13.705  0.00  0.00    +0.000 C 
ATOM     23  C   UNL     1       5.758   4.726  14.751  0.00  0.00    +0.000 C 
ATOM     24  O   UNL     1       5.970   5.917  14.560  0.00  0.00    +0.000 OA
ENDBRANCH  21  23
ENDBRANCH  17  21
ENDBRANCH   1  17
TORSDOF 4
ENDMDL
MODEL 3
REMARK VINA RESULT:      -7.6      2.340      3.561
REMARK  Name = 
REMARK  7 active torsions:
REMARK  status: ('A' for Active; 'I' for Inactive)
REMARK    1  A    between atoms: C_1  and  C_2
REMARK    2  A    between atoms: C_2  and  O_4
REMARK    3  A    between atoms: O_4  and  N_5
REMARK    4  A    between atoms: N_5  and  C_9
REMARK    5  A    between atoms: C_6  and  C_7
REMARK    6  A    between atoms: C_12  and  C_13
REMARK    7  A    between atoms: C_23  and  C_24
REMARK                            x       y       z     vdW  Elec       q    Type
REMARK                         _______ _______ _______ _____ _____    ______ ____
ROOT
ATOM      1  C   UNL     1       3.046   4.704  19.450  0.00  0.00    +0.000 A 
ATOM      2  C   UNL     1       3.111   5.843  18.643  0.00  0.00    +0.000 A 
ATOM      3  C   UNL     1       2.465   7.025  19.021  0.00  0.00    +0.000 A 
ATOM      4  C   UNL     1       1.753   7.099  20.226  0.00  0.00    +0.000 A 
ATOM      5  C   UNL     1       1.658   5.938  21.013  0.00  0.00    +0.000 A 
ATOM      6  C   UNL     1       2.290   4.732  20.638  0.00  0.00    +0.000 A 
ATOM      7  C   UNL     1       2.160   3.537  21.541  0.00  0.00    +0.000 C 
ENDROOT
BRANCH   4   8
ATOM      8  C   UNL     1       1.116   8.373  20.602  0.00  0.00    +0.000 A 
ATOM      9  N   UNL     1       0.509   8.580  21.753  0.00  0.00    +0.000 NA
ATOM     10  C   UNL     1       0.020   9.873  21.816  0.00  0.00    +0.000 A 
ATOM     11  C   UNL     1      -0.640  10.455  22.918  0.00  0.00    +0.000 A 
ATOM     12  C   UNL     1      -1.072  11.784  22.851  0.00  0.00    +0.000 A 
ATOM     13  C   UNL     1      -0.865  12.533  21.698  0.00  0.00    +0.000 A 
ATOM     14  C   UNL     1      -0.222  11.977  20.587  0.00  0.00    +0.000 A 
ATOM     15  C   UNL     1       0.220  10.645  20.671  0.00  0.00    +0.000 A 
ATOM     16  S   UNL     1       1.053   9.696  19.502  0.00  0.00    +0.000 S 
ENDBRANCH   4   8
BRANCH   1  17
ATOM     17  N   UNL     1       3.814   3.589  19.070  0.00  0.00    +0.000 N 
ATOM     18  C   UNL     1       3.414   2.501  18.319  0.00  0.00    +0.000 C 
ATOM     19  C   UNL     1       2.011   2.511  17.762  0.00  0.00    +0.000 C 
ATOM     20  O   UNL     1       4.161   1.553  18.054  0.00  0.00    +0.000 OA
BRANCH  17  21
ATOM     21  O   UNL     1       5.196   3.636  19.368  0.00  0.00    +0.000 OA
BRANCH  21  23
ATOM     22  C   UNL     1       6.664   5.466  19.244  0.00  0.00    +0.000 C 
ATOM     23  C   UNL     1       5.891   4.426  18.485  0.00  0.00    +0.000 C 
ATOM     24  O   UNL     1       5.875   4.325  17.265  0.00  0.00    +0.000 OA
ENDBRANCH  21  23
ENDBRANCH  17  21
ENDBRANCH   1  17
TORSDOF 4
ENDMDL
MODEL 4
REMARK VINA RESULT:      -7.5      2.137      3.311
REMARK  Name = 
REMARK  7 active torsions:
REMARK  status: ('A' for Active; 'I' for Inactive)
REMARK    1  A    between atoms: C_1  and  C_2
REMARK    2  A    between atoms: C_2  and  O_4
REMARK    3  A    between atoms: O_4  and  N_5
REMARK    4  A    between atoms: N_5  and  C_9
REMARK    5  A    between atoms: C_6  and  C_7
REMARK    6  A    between atoms: C_12  and  C_13
REMARK    7  A    between atoms: C_23  and  C_24
REMARK                            x       y       z     vdW  Elec       q    Type
REMARK                         _______ _______ _______ _____ _____    ______ ____
ROOT
ATOM      1  C   UNL     1       3.400   6.158  18.356  0.00  0.00    +0.000 A 
ATOM      2  C   UNL     1       3.102   7.366  17.720  0.00  0.00    +0.000 A 
ATOM      3  C   UNL     1       2.295   8.324  18.345  0.00  0.00    +0.000 A 
ATOM      4  C   UNL     1       1.785   8.100  19.631  0.00  0.00    +0.000 A 
ATOM      5  C   UNL     1       2.056   6.866  20.248  0.00  0.00    +0.000 A 
ATOM      6  C   UNL     1       2.853   5.882  19.624  0.00  0.00    +0.000 A 
ATOM      7  C   UNL     1       3.115   4.594  20.354  0.00  0.00    +0.000 C 
ENDROOT
BRANCH   4   8
ATOM      8  C   UNL     1       0.968   9.149  20.267  0.00  0.00    +0.000 A 
ATOM      9  N   UNL     1       0.432   9.037  21.465  0.00  0.00    +0.000 NA
ATOM     10  C   UNL     1      -0.269  10.187  21.790  0.00  0.00    +0.000 A 
ATOM     11  C   UNL     1      -0.927  10.436  23.012  0.00  0.00    +0.000 A 
ATOM     12  C   UNL     1      -1.588  11.652  23.213  0.00  0.00    +0.000 A 
ATOM     13  C   UNL     1      -1.611  12.614  22.209  0.00  0.00    +0.000 A 
ATOM     14  C   UNL     1      -0.975  12.388  20.983  0.00  0.00    +0.000 A 
ATOM     15  C   UNL     1      -0.302  11.167  20.799  0.00  0.00    +0.000 A 
ATOM     16  S   UNL     1       0.584  10.607  19.434  0.00  0.00    +0.000 S 
ENDBRANCH   4   8
BRANCH   1  17
ATOM     17  N   UNL     1       4.310   5.294  17.721  0.00  0.00    +0.000 N 
ATOM     18  C   UNL     1       4.050   4.066  17.143  0.00  0.00    +0.000 C 
ATOM     19  C   UNL     1       2.615   3.598  17.105  0.00  0.00    +0.000 C 
ATOM     20  O   UNL     1       4.926   3.364  16.626  0.00  0.00    +0.000 OA
BRANCH  17  21
ATOM     21  O   UNL     1       5.623   5.783  17.524  0.00  0.00    +0.000 OA
BRANCH  21  23
ATOM     22  C   UNL     1       7.656   6.387  18.533  0.00  0.00    +0.000 C 
ATOM     23  C   UNL     1       6.446   5.501  18.588  0.00  0.00    +0.000 C 
ATOM     24  O   UNL     1       6.248   4.647  19.443  0.00  0.00    +0.000 OA
ENDBRANCH  21  23
ENDBRANCH  17  21
ENDBRANCH   1  17
TORSDOF 4
ENDMDL
MODEL 5
REMARK VINA RESULT:      -7.4      1.069      1.542
REMARK  Name = 
REMARK  7 active torsions:
REMARK  status: ('A' for Active; 'I' for Inactive)
REMARK    1  A    between atoms: C_1  and  C_2
REMARK    2  A    between atoms: C_2  and  O_4
REMARK    3  A    between atoms: O_4  and  N_5
REMARK    4  A    between atoms: N_5  and  C_9
REMARK    5  A    between atoms: C_6  and  C_7
REMARK    6  A    between atoms: C_12  and  C_13
REMARK    7  A    between atoms: C_23  and  C_24
REMARK                            x       y       z     vdW  Elec       q    Type
REMARK                         _______ _______ _______ _____ _____    ______ ____
ROOT
ATOM      1  C   UNL     1       5.090   5.545  17.641  0.00  0.00    +0.000 A 
ATOM      2  C   UNL     1       4.919   6.793  17.035  0.00  0.00    +0.000 A 
ATOM      3  C   UNL     1       3.913   7.666  17.467  0.00  0.00    +0.000 A 
ATOM      4  C   UNL     1       3.068   7.315  18.528  0.00  0.00    +0.000 A 
ATOM      5  C   UNL     1       3.220   6.042  19.106  0.00  0.00    +0.000 A 
ATOM      6  C   UNL     1       4.217   5.143  18.671  0.00  0.00    +0.000 A 
ATOM      7  C   UNL     1       4.332   3.806  19.350  0.00  0.00    +0.000 C 
ENDROOT
BRANCH   4   8
ATOM      8  C   UNL     1       2.045   8.277  18.974  0.00  0.00    +0.000 A 
ATOM      9  N   UNL     1       1.592   8.349  20.208  0.00  0.00    +0.000 NA
ATOM     10  C   UNL     1       0.646   9.354  20.319  0.00  0.00    +0.000 A 
ATOM     11  C   UNL     1      -0.011   9.745  21.503  0.00  0.00    +0.000 A 
ATOM     12  C   UNL     1      -0.938  10.792  21.475  0.00  0.00    +0.000 A 
ATOM     13  C   UNL     1      -1.226  11.443  20.280  0.00  0.00    +0.000 A 
ATOM     14  C   UNL     1      -0.596  11.069  19.088  0.00  0.00    +0.000 A 
ATOM     15  C   UNL     1       0.345  10.025  19.133  0.00  0.00    +0.000 A 
ATOM     16  S   UNL     1       1.294   9.357  17.862  0.00  0.00    +0.000 S 
ENDBRANCH   4   8
BRANCH   1  17
ATOM     17  N   UNL     1       6.191   4.769  17.237  0.00  0.00    +0.000 N 
ATOM     18  C   UNL     1       7.466   4.767  17.770  0.00  0.00    +0.000 C 
ATOM     19  C   UNL     1       7.723   5.636  18.977  0.00  0.00    +0.000 C 
ATOM     20  O   UNL     1       8.380   4.062  17.330  0.00  0.00    +0.000 OA
BRANCH  17  21
ATOM     21  O   UNL     1       5.947   3.773  16.262  0.00  0.00    +0.000 OA
BRANCH  21  23
ATOM     22  C   UNL     1       7.091   4.852  14.516  0.00  0.00    +0.000 C 
ATOM     23  C   UNL     1       5.781   4.307  15.007  0.00  0.00    +0.000 C 
ATOM     24  O   UNL     1       4.729   4.357  14.382  0.00  0.00    +0.000 OA
ENDBRANCH  21  23
ENDBRANCH  17  21
ENDBRANCH   1  17
TORSDOF 4
ENDMDL
MODEL 6
REMARK VINA RESULT:      -7.4      2.055      3.094
REMARK  Name = 
REMARK  7 active torsions:
REMARK  status: ('A' for Active; 'I' for Inactive)
REMARK    1  A    between atoms: C_1  and  C_2
REMARK    2  A    between atoms: C_2  and  O_4
REMARK    3  A    between atoms: O_4  and  N_5
REMARK    4  A    between atoms: N_5  and  C_9
REMARK    5  A    between atoms: C_6  and  C_7
REMARK    6  A    between atoms: C_12  and  C_13
REMARK    7  A    between atoms: C_23  and  C_24
REMARK                            x       y       z     vdW  Elec       q    Type
REMARK                         _______ _______ _______ _____ _____    ______ ____
ROOT
ATOM      1  C   UNL     1       3.237   6.230  18.503  0.00  0.00    +0.000 A 
ATOM      2  C   UNL     1       2.943   7.447  17.882  0.00  0.00    +0.000 A 
ATOM      3  C   UNL     1       2.132   8.396  18.515  0.00  0.00    +0.000 A 
ATOM      4  C   UNL     1       1.611   8.154  19.793  0.00  0.00    +0.000 A 
ATOM      5  C   UNL     1       1.878   6.912  20.395  0.00  0.00    +0.000 A 
ATOM      6  C   UNL     1       2.680   5.937  19.763  0.00  0.00    +0.000 A 
ATOM      7  C   UNL     1       2.937   4.638  20.477  0.00  0.00    +0.000 C 
ENDROOT
BRANCH   4   8
ATOM      8  C   UNL     1       0.790   9.194  20.438  0.00  0.00    +0.000 A 
ATOM      9  N   UNL     1       0.255  10.212  19.795  0.00  0.00    +0.000 NA
ATOM     10  C   UNL     1      -0.465  11.010  20.668  0.00  0.00    +0.000 A 
ATOM     11  C   UNL     1      -1.209  12.155  20.317  0.00  0.00    +0.000 A 
ATOM     12  C   UNL     1      -1.906  12.863  21.302  0.00  0.00    +0.000 A 
ATOM     13  C   UNL     1      -1.859  12.451  22.630  0.00  0.00    +0.000 A 
ATOM     14  C   UNL     1      -1.120  11.324  23.006  0.00  0.00    +0.000 A 
ATOM     15  C   UNL     1      -0.436  10.612  22.004  0.00  0.00    +0.000 A 
ATOM     16  S   UNL     1       0.526   9.192  22.140  0.00  0.00    +0.000 S 
ENDBRANCH   4   8
BRANCH   1  17
ATOM     17  N   UNL     1       4.152   5.375  17.863  0.00  0.00    +0.000 N 
ATOM     18  C   UNL     1       3.893   4.162  17.253  0.00  0.00    +0.000 C 
ATOM     19  C   UNL     1       2.457   3.704  17.183  0.00  0.00    +0.000 C 
ATOM     20  O   UNL     1       4.773   3.467  16.734  0.00  0.00    +0.000 OA
BRANCH  17  21
ATOM     21  O   UNL     1       5.470   5.860  17.698  0.00  0.00    +0.000 OA
BRANCH  21  23
ATOM     22  C   UNL     1       7.579   4.835  17.838  0.00  0.00    +0.000 C 
ATOM     23  C   UNL     1       6.351   5.279  18.578  0.00  0.00    +0.000 C 
ATOM     24  O   UNL     1       6.167   5.120  19.778  0.00  0.00    +0.000 OA
ENDBRANCH  21  23
ENDBRANCH  17  21
ENDBRANCH   1  17
TORSDOF 4
ENDMDL
MODEL 7
REMARK VINA RESULT:      -7.4      4.547      8.290
REMARK  Name = 
REMARK  7 active torsions:
REMARK  status: ('A' for Active; 'I' for Inactive)
REMARK    1  A    between atoms: C_1  and  C_2
REMARK    2  A    between atoms: C_2  and  O_4
REMARK    3  A    between atoms: O_4  and  N_5
REMARK    4  A    between atoms: N_5  and  C_9
REMARK    5  A    between atoms: C_6  and  C_7
REMARK    6  A    between atoms: C_12  and  C_13
REMARK    7  A    between atoms: C_23  and  C_24
REMARK                            x       y       z     vdW  Elec       q    Type
REMARK                         _______ _______ _______ _____ _____    ______ ____
ROOT
ATOM      1  C   UNL     1       0.707  10.208  19.621  0.00  0.00    +0.000 A 
ATOM      2  C   UNL     1       1.270  10.315  18.346  0.00  0.00    +0.000 A 
ATOM      3  C   UNL     1       2.063   9.285  17.827  0.00  0.00    +0.000 A 
ATOM      4  C   UNL     1       2.294   8.117  18.566  0.00  0.00    +0.000 A 
ATOM      5  C   UNL     1       1.758   8.034  19.863  0.00  0.00    +0.000 A 
ATOM      6  C   UNL     1       0.970   9.071  20.409  0.00  0.00    +0.000 A 
ATOM      7  C   UNL     1       0.414   8.903  21.796  0.00  0.00    +0.000 C 
ENDROOT
BRANCH   4   8
ATOM      8  C   UNL     1       3.107   7.043  17.968  0.00  0.00    +0.000 A 
ATOM      9  N   UNL     1       4.156   7.255  17.200  0.00  0.00    +0.000 NA
ATOM     10  C   UNL     1       4.713   6.053  16.800  0.00  0.00    +0.000 A 
ATOM     11  C   UNL     1       5.874   5.902  16.014  0.00  0.00    +0.000 A 
ATOM     12  C   UNL     1       6.338   4.621  15.693  0.00  0.00    +0.000 A 
ATOM     13  C   UNL     1       5.652   3.495  16.135  0.00  0.00    +0.000 A 
ATOM     14  C   UNL     1       4.492   3.617  16.908  0.00  0.00    +0.000 A 
ATOM     15  C   UNL     1       4.045   4.909  17.236  0.00  0.00    +0.000 A 
ATOM     16  S   UNL     1       2.686   5.386  18.177  0.00  0.00    +0.000 S 
ENDBRANCH   4   8
BRANCH   1  17
ATOM     17  N   UNL     1      -0.174  11.225  20.032  0.00  0.00    +0.000 N 
ATOM     18  C   UNL     1       0.147  12.454  20.575  0.00  0.00    +0.000 C 
ATOM     19  C   UNL     1       1.609  12.812  20.688  0.00  0.00    +0.000 C 
ATOM     20  O   UNL     1      -0.704  13.278  20.929  0.00  0.00    +0.000 OA
BRANCH  17  21
ATOM     21  O   UNL     1      -1.545  11.039  19.738  0.00  0.00    +0.000 OA
BRANCH  21  23
ATOM     22  C   UNL     1      -2.447   9.974  17.849  0.00  0.00    +0.000 C 
ATOM     23  C   UNL     1      -1.819  11.219  18.404  0.00  0.00    +0.000 C 
ATOM     24  O   UNL     1      -1.573  12.225  17.750  0.00  0.00    +0.000 OA
ENDBRANCH  21  23
ENDBRANCH  17  21
ENDBRANCH   1  17
TORSDOF 4
ENDMDL
MODEL 8
REMARK VINA RESULT:      -7.4      2.105      3.183
REMARK  Name = 
REMARK  7 active torsions:
REMARK  status: ('A' for Active; 'I' for Inactive)
REMARK    1  A    between atoms: C_1  and  C_2
REMARK    2  A    between atoms: C_2  and  O_4
REMARK    3  A    between atoms: O_4  and  N_5
REMARK    4  A    between atoms: N_5  and  C_9
REMARK    5  A    between atoms: C_6  and  C_7
REMARK    6  A    between atoms: C_12  and  C_13
REMARK    7  A    between atoms: C_23  and  C_24
REMARK                            x       y       z     vdW  Elec       q    Type
REMARK                         _______ _______ _______ _____ _____    ______ ____
ROOT
ATOM      1  C   UNL     1       3.073   4.778  19.341  0.00  0.00    +0.000 A 
ATOM      2  C   UNL     1       3.165   5.842  18.439  0.00  0.00    +0.000 A 
ATOM      3  C   UNL     1       2.570   7.076  18.726  0.00  0.00    +0.000 A 
ATOM      4  C   UNL     1       1.886   7.278  19.932  0.00  0.00    +0.000 A 
ATOM      5  C   UNL     1       1.763   6.192  20.816  0.00  0.00    +0.000 A 
ATOM      6  C   UNL     1       2.342   4.935  20.535  0.00  0.00    +0.000 A 
ATOM      7  C   UNL     1       2.185   3.826  21.537  0.00  0.00    +0.000 C 
ENDROOT
BRANCH   4   8
ATOM      8  C   UNL     1       1.304   8.604  20.209  0.00  0.00    +0.000 A 
ATOM      9  N   UNL     1       1.173   9.552  19.305  0.00  0.00    +0.000 NA
ATOM     10  C   UNL     1       0.587  10.675  19.864  0.00  0.00    +0.000 A 
ATOM     11  C   UNL     1       0.251  11.860  19.178  0.00  0.00    +0.000 A 
ATOM     12  C   UNL     1      -0.354  12.917  19.866  0.00  0.00    +0.000 A 
ATOM     13  C   UNL     1      -0.616  12.811  21.228  0.00  0.00    +0.000 A 
ATOM     14  C   UNL     1      -0.283  11.650  21.934  0.00  0.00    +0.000 A 
ATOM     15  C   UNL     1       0.311  10.589  21.228  0.00  0.00    +0.000 A 
ATOM     16  S   UNL     1       0.808   9.043  21.798  0.00  0.00    +0.000 S 
ENDBRANCH   4   8
BRANCH   1  17
ATOM     17  N   UNL     1       3.792   3.607  19.044  0.00  0.00    +0.000 N 
ATOM     18  C   UNL     1       3.344   2.486  18.372  0.00  0.00    +0.000 C 
ATOM     19  C   UNL     1       1.943   2.516  17.811  0.00  0.00    +0.000 C 
ATOM     20  O   UNL     1       4.049   1.489  18.178  0.00  0.00    +0.000 OA
BRANCH  17  21
ATOM     21  O   UNL     1       5.175   3.614  19.342  0.00  0.00    +0.000 OA
BRANCH  21  23
ATOM     22  C   UNL     1       6.643   5.444  19.217  0.00  0.00    +0.000 C 
ATOM     23  C   UNL     1       5.892   4.387  18.461  0.00  0.00    +0.000 C 
ATOM     24  O   UNL     1       5.907   4.259  17.243  0.00  0.00    +0.000 OA
ENDBRANCH  21  23
ENDBRANCH  17  21
ENDBRANCH   1  17
TORSDOF 4
ENDMDL
MODEL 9
REMARK VINA RESULT:      -7.4      4.962      8.423
REMARK  Name = 
REMARK  7 active torsions:
REMARK  status: ('A' for Active; 'I' for Inactive)
REMARK    1  A    between atoms: C_1  and  C_2
REMARK    2  A    between atoms: C_2  and  O_4
REMARK    3  A    between atoms: O_4  and  N_5
REMARK    4  A    between atoms: N_5  and  C_9
REMARK    5  A    between atoms: C_6  and  C_7
REMARK    6  A    between atoms: C_12  and  C_13
REMARK    7  A    between atoms: C_23  and  C_24
REMARK                            x       y       z     vdW  Elec       q    Type
REMARK                         _______ _______ _______ _____ _____    ______ ____
ROOT
ATOM      1  C   UNL     1       0.696  10.818  19.045  0.00  0.00    +0.000 A 
ATOM      2  C   UNL     1       1.347  10.097  18.040  0.00  0.00    +0.000 A 
ATOM      3  C   UNL     1       1.835   8.808  18.286  0.00  0.00    +0.000 A 
ATOM      4  C   UNL     1       1.665   8.206  19.540  0.00  0.00    +0.000 A 
ATOM      5  C   UNL     1       1.045   8.952  20.558  0.00  0.00    +0.000 A 
ATOM      6  C   UNL     1       0.563  10.260  20.332  0.00  0.00    +0.000 A 
ATOM      7  C   UNL     1      -0.107  10.989  21.463  0.00  0.00    +0.000 C 
ENDROOT
BRANCH   4   8
ATOM      8  C   UNL     1       2.164   6.834  19.747  0.00  0.00    +0.000 A 
ATOM      9  N   UNL     1       1.730   6.030  20.695  0.00  0.00    +0.000 NA
ATOM     10  C   UNL     1       2.382   4.810  20.628  0.00  0.00    +0.000 A 
ATOM     11  C   UNL     1       2.134   3.695  21.455  0.00  0.00    +0.000 A 
ATOM     12  C   UNL     1       2.858   2.513  21.269  0.00  0.00    +0.000 A 
ATOM     13  C   UNL     1       3.832   2.434  20.278  0.00  0.00    +0.000 A 
ATOM     14  C   UNL     1       4.105   3.529  19.451  0.00  0.00    +0.000 A 
ATOM     15  C   UNL     1       3.359   4.707  19.639  0.00  0.00    +0.000 A 
ATOM     16  S   UNL     1       3.439   6.196  18.781  0.00  0.00    +0.000 S 
ENDBRANCH   4   8
BRANCH   1  17
ATOM     17  N   UNL     1       0.128  12.056  18.696  0.00  0.00    +0.000 N 
ATOM     18  C   UNL     1       0.620  13.319  18.965  0.00  0.00    +0.000 C 
ATOM     19  C   UNL     1       1.962  13.419  19.649  0.00  0.00    +0.000 C 
ATOM     20  O   UNL     1       0.033  14.356  18.635  0.00  0.00    +0.000 OA
BRANCH  17  21
ATOM     21  O   UNL     1      -1.010  12.022  17.856  0.00  0.00    +0.000 OA
BRANCH  21  23
ATOM     22  C   UNL     1      -2.593  10.287  17.902  0.00  0.00    +0.000 C 
ATOM     23  C   UNL     1      -2.129  11.575  18.517  0.00  0.00    +0.000 C 
ATOM     24  O   UNL     1      -2.686  12.140  19.449  0.00  0.00    +0.000 OA
ENDBRANCH  21  23
ENDBRANCH  17  21
ENDBRANCH   1  17
TORSDOF 4
ENDMDL
