MODEL 1
REMARK VINA RESULT:      -9.1      0.000      0.000
REMARK  Name = 
REMARK  9 active torsions:
REMARK  status: ('A' for Active; 'I' for Inactive)
REMARK    1  A    between atoms: C_1  and  O_2
REMARK    2  A    between atoms: O_2  and  C_3
REMARK    3  A    between atoms: C_5  and  C_6
REMARK    4  A    between atoms: C_7  and  C_8
REMARK    5  A    between atoms: N_10  and  C_11
REMARK    6  A    between atoms: C_24  and  O_25
REMARK    7  A    between atoms: O_25  and  C_26
REMARK    8  A    between atoms: C_27  and  O_28
REMARK    9  A    between atoms: O_28  and  C_29
REMARK                            x       y       z     vdW  Elec       q    Type
REMARK                         _______ _______ _______ _____ _____    ______ ____
ROOT
ATOM      1  C   UNL     1       7.835   7.858  17.917  0.00  0.00    +0.000 C 
ATOM      2  O   UNL     1       8.187   6.977  18.693  0.00  0.00    +0.000 OA
ATOM      3  N   UNL     1       6.856   7.756  16.952  0.00  0.00    +0.000 N 
ATOM      4  H   UNL     1       6.565   8.601  16.480  0.00  0.00    +0.000 HD
ENDROOT
BRANCH   3   5
ATOM      5  C   UNL     1       6.037   6.613  16.772  0.00  0.00    +0.000 A 
ATOM      6  C   UNL     1       6.492   5.445  16.137  0.00  0.00    +0.000 A 
ATOM      7  C   UNL     1       5.773   4.254  16.217  0.00  0.00    +0.000 A 
ATOM      8  C   UNL     1       4.580   4.245  16.917  0.00  0.00    +0.000 A 
ATOM      9  C   UNL     1       4.026   5.445  17.389  0.00  0.00    +0.000 A 
ATOM     10  C   UNL     1       4.753   6.631  17.325  0.00  0.00    +0.000 A 
ATOM     11  C   UNL     1       2.702   5.343  18.033  0.00  0.00    +0.000 C 
ATOM     12  C   UNL     1       2.797   4.493  19.074  0.00  0.00    +0.000 C 
ATOM     13  S   UNL     1       3.142   2.821  18.581  0.00  0.00    +0.000 S 
ATOM     14  O   UNL     1       4.057   2.256  19.553  0.00  0.00    +0.000 OA
ATOM     15  O   UNL     1       1.891   2.173  18.271  0.00  0.00    +0.000 OA
ATOM     16  O   UNL     1       3.968   3.038  17.170  0.00  0.00    +0.000 OA
ENDBRANCH   3   5
BRANCH   1  18
ATOM     17  C   UNL     1       8.962   9.580  19.179  0.00  0.00    +0.000 C 
ATOM     18  C   UNL     1       8.461   9.210  17.990  0.00  0.00    +0.000 C 
BRANCH  17  21
ATOM     19  C   UNL     1      11.277  12.473  18.565  0.00  0.00    +0.000 A 
ATOM     20  C   UNL     1      10.675  11.207  18.484  0.00  0.00    +0.000 A 
ATOM     21  C   UNL     1       9.779  10.764  19.459  0.00  0.00    +0.000 A 
ATOM     22  C   UNL     1       9.556  11.573  20.568  0.00  0.00    +0.000 A 
ATOM     23  C   UNL     1      10.199  12.812  20.712  0.00  0.00    +0.000 A 
ATOM     24  C   UNL     1      11.071  13.283  19.704  0.00  0.00    +0.000 A 
BRANCH  19  26
ATOM     25  C   UNL     1      11.407  13.504  16.428  0.00  0.00    +0.000 C 
ATOM     26  O   UNL     1      12.081  12.920  17.545  0.00  0.00    +0.000 OA
ENDBRANCH  19  26
BRANCH  23  27
ATOM     27  O   UNL     1       9.811  13.426  21.877  0.00  0.00    +0.000 OA
ATOM     28  C   UNL     1       8.752  12.877  22.642  0.00  0.00    +0.000 C 
ENDBRANCH  23  27
BRANCH  24  29
ATOM     29  O   UNL     1      11.650  14.500  19.939  0.00  0.00    +0.000 OA
ATOM     30  C   UNL     1      11.051  15.697  19.473  0.00  0.00    +0.000 C 
ENDBRANCH  24  29
ENDBRANCH  17  21
ENDBRANCH   1  18
TORSDOF 6
ENDMDL
MODEL 2
REMARK VINA RESULT:      -8.9      0.581      2.371
REMARK  Name = 
REMARK  9 active torsions:
REMARK  status: ('A' for Active; 'I' for Inactive)
REMARK    1  A    between atoms: C_1  and  O_2
REMARK    2  A    between atoms: O_2  and  C_3
REMARK    3  A    between atoms: C_5  and  C_6
REMARK    4  A    between atoms: C_7  and  C_8
REMARK    5  A    between atoms: N_10  and  C_11
REMARK    6  A    between atoms: C_24  and  O_25
REMARK    7  A    between atoms: O_25  and  C_26
REMARK    8  A    between atoms: C_27  and  O_28
REMARK    9  A    between atoms: O_28  and  C_29
REMARK                            x       y       z     vdW  Elec       q    Type
REMARK                         _______ _______ _______ _____ _____    ______ ____
ROOT
ATOM      1  C   UNL     1       7.791   7.894  17.799  0.00  0.00    +0.000 C 
ATOM      2  O   UNL     1       8.245   7.093  18.607  0.00  0.00    +0.000 OA
ATOM      3  N   UNL     1       6.770   7.663  16.902  0.00  0.00    +0.000 N 
ATOM      4  H   UNL     1       6.396   8.453  16.395  0.00  0.00    +0.000 HD
ENDROOT
BRANCH   3   5
ATOM      5  C   UNL     1       6.023   6.459  16.845  0.00  0.00    +0.000 A 
ATOM      6  C   UNL     1       6.490   5.306  16.191  0.00  0.00    +0.000 A 
ATOM      7  C   UNL     1       5.875   4.070  16.382  0.00  0.00    +0.000 A 
ATOM      8  C   UNL     1       4.772   4.000  17.213  0.00  0.00    +0.000 A 
ATOM      9  C   UNL     1       4.186   5.172  17.716  0.00  0.00    +0.000 A 
ATOM     10  C   UNL     1       4.811   6.405  17.540  0.00  0.00    +0.000 A 
ATOM     11  C   UNL     1       2.954   4.998  18.508  0.00  0.00    +0.000 C 
ATOM     12  C   UNL     1       3.227   4.191  19.552  0.00  0.00    +0.000 C 
ATOM     13  S   UNL     1       3.638   2.533  19.065  0.00  0.00    +0.000 S 
ATOM     14  O   UNL     1       4.695   2.067  19.940  0.00  0.00    +0.000 OA
ATOM     15  O   UNL     1       2.412   1.788  18.915  0.00  0.00    +0.000 OA
ATOM     16  O   UNL     1       4.284   2.762  17.564  0.00  0.00    +0.000 OA
ENDBRANCH   3   5
BRANCH   1  18
ATOM     17  C   UNL     1       8.780   9.801  18.900  0.00  0.00    +0.000 C 
ATOM     18  C   UNL     1       8.325   9.286  17.747  0.00  0.00    +0.000 C 
BRANCH  17  21
ATOM     19  C   UNL     1      10.159  12.857  20.593  0.00  0.00    +0.000 A 
ATOM     20  C   UNL     1       9.301  11.805  20.234  0.00  0.00    +0.000 A 
ATOM     21  C   UNL     1       9.512  11.058  19.073  0.00  0.00    +0.000 A 
ATOM     22  C   UNL     1      10.550  11.433  18.226  0.00  0.00    +0.000 A 
ATOM     23  C   UNL     1      11.380  12.526  18.523  0.00  0.00    +0.000 A 
ATOM     24  C   UNL     1      11.195  13.255  19.720  0.00  0.00    +0.000 A 
BRANCH  19  26
ATOM     25  C   UNL     1       9.022  14.572  21.781  0.00  0.00    +0.000 C 
ATOM     26  O   UNL     1       9.982  13.513  21.787  0.00  0.00    +0.000 OA
ENDBRANCH  19  26
BRANCH  23  27
ATOM     27  O   UNL     1      12.331  12.691  17.547  0.00  0.00    +0.000 OA
ATOM     28  C   UNL     1      11.993  13.353  16.341  0.00  0.00    +0.000 C 
ENDBRANCH  23  27
BRANCH  24  29
ATOM     29  O   UNL     1      12.053  14.302  19.917  0.00  0.00    +0.000 OA
ATOM     30  C   UNL     1      11.748  15.599  19.434  0.00  0.00    +0.000 C 
ENDBRANCH  24  29
ENDBRANCH  17  21
ENDBRANCH   1  18
TORSDOF 6
ENDMDL
MODEL 3
REMARK VINA RESULT:      -8.3      1.917      2.224
REMARK  Name = 
REMARK  9 active torsions:
REMARK  status: ('A' for Active; 'I' for Inactive)
REMARK    1  A    between atoms: C_1  and  O_2
REMARK    2  A    between atoms: O_2  and  C_3
REMARK    3  A    between atoms: C_5  and  C_6
REMARK    4  A    between atoms: C_7  and  C_8
REMARK    5  A    between atoms: N_10  and  C_11
REMARK    6  A    between atoms: C_24  and  O_25
REMARK    7  A    between atoms: O_25  and  C_26
REMARK    8  A    between atoms: C_27  and  O_28
REMARK    9  A    between atoms: O_28  and  C_29
REMARK                            x       y       z     vdW  Elec       q    Type
REMARK                         _______ _______ _______ _____ _____    ______ ____
ROOT
ATOM      1  C   UNL     1       7.823   7.749  18.030  0.00  0.00    +0.000 C 
ATOM      2  O   UNL     1       7.966   6.830  18.828  0.00  0.00    +0.000 OA
ATOM      3  N   UNL     1       6.922   7.794  16.987  0.00  0.00    +0.000 N 
ATOM      4  H   UNL     1       6.808   8.670  16.497  0.00  0.00    +0.000 HD
ENDROOT
BRANCH   3   5
ATOM      5  C   UNL     1       5.949   6.794  16.736  0.00  0.00    +0.000 A 
ATOM      6  C   UNL     1       6.190   5.694  15.895  0.00  0.00    +0.000 A 
ATOM      7  C   UNL     1       5.333   4.595  15.883  0.00  0.00    +0.000 A 
ATOM      8  C   UNL     1       4.218   4.614  16.700  0.00  0.00    +0.000 A 
ATOM      9  C   UNL     1       3.869   5.781  17.396  0.00  0.00    +0.000 A 
ATOM     10  C   UNL     1       4.733   6.873  17.424  0.00  0.00    +0.000 A 
ATOM     11  C   UNL     1       2.607   5.733  18.159  0.00  0.00    +0.000 C 
ATOM     12  C   UNL     1       2.684   4.726  19.052  0.00  0.00    +0.000 C 
ATOM     13  S   UNL     1       2.764   3.123  18.291  0.00  0.00    +0.000 S 
ATOM     14  O   UNL     1       3.683   2.313  19.067  0.00  0.00    +0.000 OA
ATOM     15  O   UNL     1       1.417   2.678  18.030  0.00  0.00    +0.000 OA
ATOM     16  O   UNL     1       3.481   3.460  16.843  0.00  0.00    +0.000 OA
ENDBRANCH   3   5
BRANCH   1  18
ATOM     17  C   UNL     1       8.110  10.120  17.685  0.00  0.00    +0.000 C 
ATOM     18  C   UNL     1       8.648   8.985  18.158  0.00  0.00    +0.000 C 
BRANCH  17  21
ATOM     19  C   UNL     1       8.158  13.873  17.817  0.00  0.00    +0.000 A 
ATOM     20  C   UNL     1       7.853  12.557  17.436  0.00  0.00    +0.000 A 
ATOM     21  C   UNL     1       8.633  11.478  17.857  0.00  0.00    +0.000 A 
ATOM     22  C   UNL     1       9.779  11.742  18.600  0.00  0.00    +0.000 A 
ATOM     23  C   UNL     1      10.149  13.054  18.935  0.00  0.00    +0.000 A 
ATOM     24  C   UNL     1       9.336  14.144  18.548  0.00  0.00    +0.000 A 
BRANCH  19  26
ATOM     25  C   UNL     1       5.970  14.794  17.918  0.00  0.00    +0.000 C 
ATOM     26  O   UNL     1       7.321  14.904  17.465  0.00  0.00    +0.000 OA
ENDBRANCH  19  26
BRANCH  23  27
ATOM     27  O   UNL     1      11.305  13.057  19.676  0.00  0.00    +0.000 OA
ATOM     28  C   UNL     1      12.157  11.925  19.653  0.00  0.00    +0.000 C 
ENDBRANCH  23  27
BRANCH  24  29
ATOM     29  O   UNL     1       9.783  15.382  18.920  0.00  0.00    +0.000 OA
ATOM     30  C   UNL     1      10.375  16.261  17.978  0.00  0.00    +0.000 C 
ENDBRANCH  24  29
ENDBRANCH  17  21
ENDBRANCH   1  18
TORSDOF 6
ENDMDL
MODEL 4
REMARK VINA RESULT:      -8.3      1.256      2.723
REMARK  Name = 
REMARK  9 active torsions:
REMARK  status: ('A' for Active; 'I' for Inactive)
REMARK    1  A    between atoms: C_1  and  O_2
REMARK    2  A    between atoms: O_2  and  C_3
REMARK    3  A    between atoms: C_5  and  C_6
REMARK    4  A    between atoms: C_7  and  C_8
REMARK    5  A    between atoms: N_10  and  C_11
REMARK    6  A    between atoms: C_24  and  O_25
REMARK    7  A    between atoms: O_25  and  C_26
REMARK    8  A    between atoms: C_27  and  O_28
REMARK    9  A    between atoms: O_28  and  C_29
REMARK                            x       y       z     vdW  Elec       q    Type
REMARK                         _______ _______ _______ _____ _____    ______ ____
ROOT
ATOM      1  C   UNL     1       7.354   7.073  17.491  0.00  0.00    +0.000 C 
ATOM      2  O   UNL     1       7.587   6.718  16.342  0.00  0.00    +0.000 OA
ATOM      3  N   UNL     1       6.287   6.678  18.270  0.00  0.00    +0.000 N 
ATOM      4  H   UNL     1       6.295   6.930  19.248  0.00  0.00    +0.000 HD
ENDROOT
BRANCH   3   5
ATOM      5  C   UNL     1       5.328   5.713  17.870  0.00  0.00    +0.000 A 
ATOM      6  C   UNL     1       5.683   4.493  17.271  0.00  0.00    +0.000 A 
ATOM      7  C   UNL     1       4.759   3.457  17.142  0.00  0.00    +0.000 A 
ATOM      8  C   UNL     1       3.469   3.660  17.596  0.00  0.00    +0.000 A 
ATOM      9  C   UNL     1       3.057   4.933  18.018  0.00  0.00    +0.000 A 
ATOM     10  C   UNL     1       3.983   5.963  18.164  0.00  0.00    +0.000 A 
ATOM     11  C   UNL     1       1.634   5.070  18.385  0.00  0.00    +0.000 C 
ATOM     12  C   UNL     1       1.362   4.197  19.375  0.00  0.00    +0.000 C 
ATOM     13  S   UNL     1       1.491   2.500  18.865  0.00  0.00    +0.000 S 
ATOM     14  O   UNL     1       2.074   1.755  19.964  0.00  0.00    +0.000 OA
ATOM     15  O   UNL     1       0.232   2.106  18.282  0.00  0.00    +0.000 OA
ATOM     16  O   UNL     1       2.611   2.585  17.656  0.00  0.00    +0.000 OA
ENDBRANCH   3   5
BRANCH   1  18
ATOM     17  C   UNL     1       8.361   9.254  17.729  0.00  0.00    +0.000 C 
ATOM     18  C   UNL     1       8.293   7.996  18.192  0.00  0.00    +0.000 C 
BRANCH  17  21
ATOM     19  C   UNL     1       9.676  11.513  20.425  0.00  0.00    +0.000 A 
ATOM     20  C   UNL     1       8.844  10.638  19.707  0.00  0.00    +0.000 A 
ATOM     21  C   UNL     1       9.057  10.383  18.351  0.00  0.00    +0.000 A 
ATOM     22  C   UNL     1      10.065  11.083  17.697  0.00  0.00    +0.000 A 
ATOM     23  C   UNL     1      10.866  12.017  18.372  0.00  0.00    +0.000 A 
ATOM     24  C   UNL     1      10.682  12.243  19.756  0.00  0.00    +0.000 A 
BRANCH  19  26
ATOM     25  C   UNL     1       8.338  12.402  22.176  0.00  0.00    +0.000 C 
ATOM     26  O   UNL     1       9.501  11.673  21.779  0.00  0.00    +0.000 OA
ENDBRANCH  19  26
BRANCH  23  27
ATOM     27  O   UNL     1      11.792  12.567  17.521  0.00  0.00    +0.000 OA
ATOM     28  C   UNL     1      11.410  13.617  16.650  0.00  0.00    +0.000 C 
ENDBRANCH  23  27
BRANCH  24  29
ATOM     29  O   UNL     1      11.510  13.174  20.322  0.00  0.00    +0.000 OA
ATOM     30  C   UNL     1      11.131  14.537  20.405  0.00  0.00    +0.000 C 
ENDBRANCH  24  29
ENDBRANCH  17  21
ENDBRANCH   1  18
TORSDOF 6
ENDMDL
MODEL 5
REMARK VINA RESULT:      -8.1      1.275      1.466
REMARK  Name = 
REMARK  9 active torsions:
REMARK  status: ('A' for Active; 'I' for Inactive)
REMARK    1  A    between atoms: C_1  and  O_2
REMARK    2  A    between atoms: O_2  and  C_3
REMARK    3  A    between atoms: C_5  and  C_6
REMARK    4  A    between atoms: C_7  and  C_8
REMARK    5  A    between atoms: N_10  and  C_11
REMARK    6  A    between atoms: C_24  and  O_25
REMARK    7  A    between atoms: O_25  and  C_26
REMARK    8  A    between atoms: C_27  and  O_28
REMARK    9  A    between atoms: O_28  and  C_29
REMARK                            x       y       z     vdW  Elec       q    Type
REMARK                         _______ _______ _______ _____ _____    ______ ____
ROOT
ATOM      1  C   UNL     1       7.579   6.409  18.421  0.00  0.00    +0.000 C 
ATOM      2  O   UNL     1       7.861   5.236  18.638  0.00  0.00    +0.000 OA
ATOM      3  N   UNL     1       6.421   6.878  17.839  0.00  0.00    +0.000 N 
ATOM      4  H   UNL     1       6.253   7.875  17.854  0.00  0.00    +0.000 HD
ENDROOT
BRANCH   3   5
ATOM      5  C   UNL     1       5.326   6.054  17.475  0.00  0.00    +0.000 A 
ATOM      6  C   UNL     1       5.404   5.097  16.450  0.00  0.00    +0.000 A 
ATOM      7  C   UNL     1       4.420   4.122  16.298  0.00  0.00    +0.000 A 
ATOM      8  C   UNL     1       3.343   4.126  17.165  0.00  0.00    +0.000 A 
ATOM      9  C   UNL     1       3.161   5.187  18.066  0.00  0.00    +0.000 A 
ATOM     10  C   UNL     1       4.153   6.151  18.230  0.00  0.00    +0.000 A 
ATOM     11  C   UNL     1       1.928   5.151  18.876  0.00  0.00    +0.000 C 
ATOM     12  C   UNL     1       1.913   4.002  19.581  0.00  0.00    +0.000 C 
ATOM     13  S   UNL     1       1.772   2.557  18.557  0.00  0.00    +0.000 S 
ATOM     14  O   UNL     1       2.611   1.526  19.136  0.00  0.00    +0.000 OA
ATOM     15  O   UNL     1       0.373   2.321  18.298  0.00  0.00    +0.000 OA
ATOM     16  O   UNL     1       2.476   3.056  17.151  0.00  0.00    +0.000 OA
ENDBRANCH   3   5
BRANCH   1  18
ATOM     17  C   UNL     1       8.279   8.717  18.343  0.00  0.00    +0.000 C 
ATOM     18  C   UNL     1       8.520   7.491  18.832  0.00  0.00    +0.000 C 
BRANCH  17  21
ATOM     19  C   UNL     1       9.645  12.205  18.070  0.00  0.00    +0.000 A 
ATOM     20  C   UNL     1       9.275  10.889  17.748  0.00  0.00    +0.000 A 
ATOM     21  C   UNL     1       8.937   9.966  18.738  0.00  0.00    +0.000 A 
ATOM     22  C   UNL     1       9.056  10.351  20.070  0.00  0.00    +0.000 A 
ATOM     23  C   UNL     1       9.492  11.637  20.424  0.00  0.00    +0.000 A 
ATOM     24  C   UNL     1       9.792  12.588  19.422  0.00  0.00    +0.000 A 
BRANCH  19  26
ATOM     25  C   UNL     1      11.235  13.214  16.621  0.00  0.00    +0.000 C 
ATOM     26  O   UNL     1       9.882  13.119  17.072  0.00  0.00    +0.000 OA
ENDBRANCH  19  26
BRANCH  23  27
ATOM     27  O   UNL     1       9.518  11.781  21.789  0.00  0.00    +0.000 OA
ATOM     28  C   UNL     1       8.300  11.858  22.510  0.00  0.00    +0.000 C 
ENDBRANCH  23  27
BRANCH  24  29
ATOM     29  O   UNL     1      10.211  13.812  19.869  0.00  0.00    +0.000 OA
ATOM     30  C   UNL     1      11.587  14.085  20.070  0.00  0.00    +0.000 C 
ENDBRANCH  24  29
ENDBRANCH  17  21
ENDBRANCH   1  18
TORSDOF 6
ENDMDL
MODEL 6
REMARK VINA RESULT:      -8.1      1.378      2.817
REMARK  Name = 
REMARK  9 active torsions:
REMARK  status: ('A' for Active; 'I' for Inactive)
REMARK    1  A    between atoms: C_1  and  O_2
REMARK    2  A    between atoms: O_2  and  C_3
REMARK    3  A    between atoms: C_5  and  C_6
REMARK    4  A    between atoms: C_7  and  C_8
REMARK    5  A    between atoms: N_10  and  C_11
REMARK    6  A    between atoms: C_24  and  O_25
REMARK    7  A    between atoms: O_25  and  C_26
REMARK    8  A    between atoms: C_27  and  O_28
REMARK    9  A    between atoms: O_28  and  C_29
REMARK                            x       y       z     vdW  Elec       q    Type
REMARK                         _______ _______ _______ _____ _____    ______ ____
ROOT
ATOM      1  C   UNL     1       7.343   7.394  17.258  0.00  0.00    +0.000 C 
ATOM      2  O   UNL     1       7.892   6.569  16.538  0.00  0.00    +0.000 OA
ATOM      3  N   UNL     1       6.231   7.181  18.046  0.00  0.00    +0.000 N 
ATOM      4  H   UNL     1       5.970   7.904  18.702  0.00  0.00    +0.000 HD
ENDROOT
BRANCH   3   5
ATOM      5  C   UNL     1       5.599   5.922  18.203  0.00  0.00    +0.000 A 
ATOM      6  C   UNL     1       6.036   4.965  19.135  0.00  0.00    +0.000 A 
ATOM      7  C   UNL     1       5.244   3.865  19.463  0.00  0.00    +0.000 A 
ATOM      8  C   UNL     1       4.023   3.715  18.832  0.00  0.00    +0.000 A 
ATOM      9  C   UNL     1       3.666   4.557  17.767  0.00  0.00    +0.000 A 
ATOM     10  C   UNL     1       4.447   5.666  17.452  0.00  0.00    +0.000 A 
ATOM     11  C   UNL     1       2.390   4.251  17.094  0.00  0.00    +0.000 C 
ATOM     12  C   UNL     1       1.401   4.300  18.008  0.00  0.00    +0.000 C 
ATOM     13  S   UNL     1       1.528   3.027  19.242  0.00  0.00    +0.000 S 
ATOM     14  O   UNL     1       1.133   3.605  20.511  0.00  0.00    +0.000 OA
ATOM     15  O   UNL     1       0.888   1.839  18.733  0.00  0.00    +0.000 OA
ATOM     16  O   UNL     1       3.154   2.751  19.290  0.00  0.00    +0.000 OA
ENDBRANCH   3   5
BRANCH   1  18
ATOM     17  C   UNL     1       8.417   9.121  18.557  0.00  0.00    +0.000 C 
ATOM     18  C   UNL     1       7.896   8.774  17.370  0.00  0.00    +0.000 C 
BRANCH  17  21
ATOM     19  C   UNL     1      10.056  11.819  20.591  0.00  0.00    +0.000 A 
ATOM     20  C   UNL     1       9.145  10.840  20.163  0.00  0.00    +0.000 A 
ATOM     21  C   UNL     1       9.179  10.335  18.862  0.00  0.00    +0.000 A 
ATOM     22  C   UNL     1      10.085  10.887  17.962  0.00  0.00    +0.000 A 
ATOM     23  C   UNL     1      10.959  11.917  18.341  0.00  0.00    +0.000 A 
ATOM     24  C   UNL     1      10.958  12.398  19.671  0.00  0.00    +0.000 A 
BRANCH  19  26
ATOM     25  C   UNL     1       9.011  13.124  22.280  0.00  0.00    +0.000 C 
ATOM     26  O   UNL     1      10.061  12.230  21.902  0.00  0.00    +0.000 OA
ENDBRANCH  19  26
BRANCH  23  27
ATOM     27  O   UNL     1      11.760  12.285  17.289  0.00  0.00    +0.000 OA
ATOM     28  C   UNL     1      11.399  13.396  16.487  0.00  0.00    +0.000 C 
ENDBRANCH  23  27
BRANCH  24  29
ATOM     29  O   UNL     1      11.845  13.405  19.940  0.00  0.00    +0.000 OA
ATOM     30  C   UNL     1      11.443  14.763  19.905  0.00  0.00    +0.000 C 
ENDBRANCH  24  29
ENDBRANCH  17  21
ENDBRANCH   1  18
TORSDOF 6
ENDMDL
MODEL 7
REMARK VINA RESULT:      -8.0      0.772      2.468
REMARK  Name = 
REMARK  9 active torsions:
REMARK  status: ('A' for Active; 'I' for Inactive)
REMARK    1  A    between atoms: C_1  and  O_2
REMARK    2  A    between atoms: O_2  and  C_3
REMARK    3  A    between atoms: C_5  and  C_6
REMARK    4  A    between atoms: C_7  and  C_8
REMARK    5  A    between atoms: N_10  and  C_11
REMARK    6  A    between atoms: C_24  and  O_25
REMARK    7  A    between atoms: O_25  and  C_26
REMARK    8  A    between atoms: C_27  and  O_28
REMARK    9  A    between atoms: O_28  and  C_29
REMARK                            x       y       z     vdW  Elec       q    Type
REMARK                         _______ _______ _______ _____ _____    ______ ____
ROOT
ATOM      1  C   UNL     1       7.898   7.308  18.243  0.00  0.00    +0.000 C 
ATOM      2  O   UNL     1       7.911   6.379  19.042  0.00  0.00    +0.000 OA
ATOM      3  N   UNL     1       7.042   7.453  17.172  0.00  0.00    +0.000 N 
ATOM      4  H   UNL     1       7.043   8.337  16.681  0.00  0.00    +0.000 HD
ENDROOT
BRANCH   3   5
ATOM      5  C   UNL     1       5.973   6.568  16.885  0.00  0.00    +0.000 A 
ATOM      6  C   UNL     1       6.107   5.471  16.018  0.00  0.00    +0.000 A 
ATOM      7  C   UNL     1       5.139   4.468  15.968  0.00  0.00    +0.000 A 
ATOM      8  C   UNL     1       4.023   4.584  16.776  0.00  0.00    +0.000 A 
ATOM      9  C   UNL     1       3.790   5.764  17.499  0.00  0.00    +0.000 A 
ATOM     10  C   UNL     1       4.764   6.757  17.564  0.00  0.00    +0.000 A 
ATOM     11  C   UNL     1       2.521   5.829  18.249  0.00  0.00    +0.000 C 
ATOM     12  C   UNL     1       2.482   4.797  19.115  0.00  0.00    +0.000 C 
ATOM     13  S   UNL     1       2.402   3.214  18.313  0.00  0.00    +0.000 S 
ATOM     14  O   UNL     1       3.221   2.293  19.076  0.00  0.00    +0.000 OA
ATOM     15  O   UNL     1       1.019   2.921  18.028  0.00  0.00    +0.000 OA
ATOM     16  O   UNL     1       3.167   3.511  16.881  0.00  0.00    +0.000 OA
ENDBRANCH   3   5
BRANCH   1  18
ATOM     17  C   UNL     1       8.357   9.677  18.207  0.00  0.00    +0.000 C 
ATOM     18  C   UNL     1       8.851   8.444  18.403  0.00  0.00    +0.000 C 
BRANCH  17  21
ATOM     19  C   UNL     1       9.316  12.823  20.019  0.00  0.00    +0.000 A 
ATOM     20  C   UNL     1       8.562  11.747  19.525  0.00  0.00    +0.000 A 
ATOM     21  C   UNL     1       9.032  10.948  18.481  0.00  0.00    +0.000 A 
ATOM     22  C   UNL     1      10.237  11.293  17.877  0.00  0.00    +0.000 A 
ATOM     23  C   UNL     1      10.978  12.406  18.302  0.00  0.00    +0.000 A 
ATOM     24  C   UNL     1      10.526  13.189  19.389  0.00  0.00    +0.000 A 
BRANCH  19  26
ATOM     25  C   UNL     1       9.178  12.975  22.387  0.00  0.00    +0.000 C 
ATOM     26  O   UNL     1       8.871  13.534  21.108  0.00  0.00    +0.000 OA
ENDBRANCH  19  26
BRANCH  23  27
ATOM     27  O   UNL     1      12.128  12.533  17.563  0.00  0.00    +0.000 OA
ATOM     28  C   UNL     1      12.170  13.446  16.480  0.00  0.00    +0.000 C 
ENDBRANCH  23  27
BRANCH  24  29
ATOM     29  O   UNL     1      11.317  14.253  19.726  0.00  0.00    +0.000 OA
ATOM     30  C   UNL     1      11.026  15.559  19.258  0.00  0.00    +0.000 C 
ENDBRANCH  24  29
ENDBRANCH  17  21
ENDBRANCH   1  18
TORSDOF 6
ENDMDL
MODEL 8
REMARK VINA RESULT:      -7.9      7.173     11.332
REMARK  Name = 
REMARK  9 active torsions:
REMARK  status: ('A' for Active; 'I' for Inactive)
REMARK    1  A    between atoms: C_1  and  O_2
REMARK    2  A    between atoms: O_2  and  C_3
REMARK    3  A    between atoms: C_5  and  C_6
REMARK    4  A    between atoms: C_7  and  C_8
REMARK    5  A    between atoms: N_10  and  C_11
REMARK    6  A    between atoms: C_24  and  O_25
REMARK    7  A    between atoms: O_25  and  C_26
REMARK    8  A    between atoms: C_27  and  O_28
REMARK    9  A    between atoms: O_28  and  C_29
REMARK                            x       y       z     vdW  Elec       q    Type
REMARK                         _______ _______ _______ _____ _____    ______ ____
ROOT
ATOM      1  C   UNL     1       1.421   9.759  18.514  0.00  0.00    +0.000 C 
ATOM      2  O   UNL     1       2.050  10.774  18.240  0.00  0.00    +0.000 OA
ATOM      3  N   UNL     1       0.243   9.693  19.227  0.00  0.00    +0.000 N 
ATOM      4  H   UNL     1      -0.246   8.810  19.254  0.00  0.00    +0.000 HD
ENDROOT
BRANCH   3   5
ATOM      5  C   UNL     1      -0.472  10.829  19.683  0.00  0.00    +0.000 A 
ATOM      6  C   UNL     1      -1.248  11.631  18.829  0.00  0.00    +0.000 A 
ATOM      7  C   UNL     1      -2.151  12.563  19.339  0.00  0.00    +0.000 A 
ATOM      8  C   UNL     1      -2.255  12.705  20.710  0.00  0.00    +0.000 A 
ATOM      9  C   UNL     1      -1.353  12.048  21.562  0.00  0.00    +0.000 A 
ATOM     10  C   UNL     1      -0.463  11.104  21.055  0.00  0.00    +0.000 A 
ATOM     11  C   UNL     1      -1.482  12.344  23.001  0.00  0.00    +0.000 C 
ATOM     12  C   UNL     1      -2.730  12.023  23.394  0.00  0.00    +0.000 C 
ATOM     13  S   UNL     1      -3.980  13.045  22.653  0.00  0.00    +0.000 S 
ATOM     14  O   UNL     1      -5.121  12.200  22.358  0.00  0.00    +0.000 OA
ATOM     15  O   UNL     1      -4.123  14.237  23.453  0.00  0.00    +0.000 OA
ATOM     16  O   UNL     1      -3.278  13.471  21.222  0.00  0.00    +0.000 OA
ENDBRANCH   3   5
BRANCH   1  18
ATOM     17  C   UNL     1       2.305   7.560  18.971  0.00  0.00    +0.000 C 
ATOM     18  C   UNL     1       1.901   8.431  18.033  0.00  0.00    +0.000 C 
BRANCH  17  21
ATOM     19  C   UNL     1       2.015   3.822  19.173  0.00  0.00    +0.000 A 
ATOM     20  C   UNL     1       1.948   5.184  19.508  0.00  0.00    +0.000 A 
ATOM     21  C   UNL     1       2.640   6.147  18.772  0.00  0.00    +0.000 A 
ATOM     22  C   UNL     1       3.473   5.721  17.743  0.00  0.00    +0.000 A 
ATOM     23  C   UNL     1       3.616   4.360  17.431  0.00  0.00    +0.000 A 
ATOM     24  C   UNL     1       2.881   3.386  18.146  0.00  0.00    +0.000 A 
BRANCH  19  26
ATOM     25  C   UNL     1       1.388   2.916  21.279  0.00  0.00    +0.000 C 
ATOM     26  O   UNL     1       1.252   2.906  19.856  0.00  0.00    +0.000 OA
ENDBRANCH  19  26
BRANCH  23  27
ATOM     27  O   UNL     1       4.479   4.192  16.377  0.00  0.00    +0.000 OA
ATOM     28  C   UNL     1       5.872   4.353  16.578  0.00  0.00    +0.000 C 
ENDBRANCH  23  27
BRANCH  24  29
ATOM     29  O   UNL     1       3.092   2.088  17.769  0.00  0.00    +0.000 OA
ATOM     30  C   UNL     1       3.794   1.186  18.608  0.00  0.00    +0.000 C 
ENDBRANCH  24  29
ENDBRANCH  17  21
ENDBRANCH   1  18
TORSDOF 6
ENDMDL
MODEL 9
REMARK VINA RESULT:      -7.8      6.879     10.310
REMARK  Name = 
REMARK  9 active torsions:
REMARK  status: ('A' for Active; 'I' for Inactive)
REMARK    1  A    between atoms: C_1  and  O_2
REMARK    2  A    between atoms: O_2  and  C_3
REMARK    3  A    between atoms: C_5  and  C_6
REMARK    4  A    between atoms: C_7  and  C_8
REMARK    5  A    between atoms: N_10  and  C_11
REMARK    6  A    between atoms: C_24  and  O_25
REMARK    7  A    between atoms: O_25  and  C_26
REMARK    8  A    between atoms: C_27  and  O_28
REMARK    9  A    between atoms: O_28  and  C_29
REMARK                            x       y       z     vdW  Elec       q    Type
REMARK                         _______ _______ _______ _____ _____    ______ ____
ROOT
ATOM      1  C   UNL     1       0.718   9.633  18.554  0.00  0.00    +0.000 C 
ATOM      2  O   UNL     1      -0.275  10.010  17.944  0.00  0.00    +0.000 OA
ATOM      3  N   UNL     1       0.937   9.749  19.911  0.00  0.00    +0.000 N 
ATOM      4  H   UNL     1       1.732   9.265  20.305  0.00  0.00    +0.000 HD
ENDROOT
BRANCH   3   5
ATOM      5  C   UNL     1      -0.017  10.258  20.828  0.00  0.00    +0.000 A 
ATOM      6  C   UNL     1      -0.157   9.757  22.133  0.00  0.00    +0.000 A 
ATOM      7  C   UNL     1      -0.897  10.445  23.093  0.00  0.00    +0.000 A 
ATOM      8  C   UNL     1      -1.517  11.627  22.732  0.00  0.00    +0.000 A 
ATOM      9  C   UNL     1      -1.541  12.033  21.388  0.00  0.00    +0.000 A 
ATOM     10  C   UNL     1      -0.787  11.356  20.432  0.00  0.00    +0.000 A 
ATOM     11  C   UNL     1      -2.315  13.253  21.090  0.00  0.00    +0.000 C 
ATOM     12  C   UNL     1      -1.813  14.268  21.820  0.00  0.00    +0.000 C 
ATOM     13  S   UNL     1      -2.047  14.053  23.568  0.00  0.00    +0.000 S 
ATOM     14  O   UNL     1      -0.855  14.539  24.234  0.00  0.00    +0.000 OA
ATOM     15  O   UNL     1      -3.353  14.558  23.915  0.00  0.00    +0.000 OA
ATOM     16  O   UNL     1      -2.078  12.410  23.715  0.00  0.00    +0.000 OA
ENDBRANCH   3   5
BRANCH   1  18
ATOM     17  C   UNL     1       2.272   7.796  18.365  0.00  0.00    +0.000 C 
ATOM     18  C   UNL     1       1.823   8.942  17.829  0.00  0.00    +0.000 C 
BRANCH  17  21
ATOM     19  C   UNL     1       5.468   6.456  16.919  0.00  0.00    +0.000 A 
ATOM     20  C   UNL     1       4.421   7.328  17.257  0.00  0.00    +0.000 A 
ATOM     21  C   UNL     1       3.208   6.848  17.754  0.00  0.00    +0.000 A 
ATOM     22  C   UNL     1       3.023   5.472  17.830  0.00  0.00    +0.000 A 
ATOM     23  C   UNL     1       4.025   4.574  17.431  0.00  0.00    +0.000 A 
ATOM     24  C   UNL     1       5.271   5.059  16.970  0.00  0.00    +0.000 A 
BRANCH  19  26
ATOM     25  C   UNL     1       7.523   7.463  17.562  0.00  0.00    +0.000 C 
ATOM     26  O   UNL     1       6.683   6.960  16.521  0.00  0.00    +0.000 OA
ENDBRANCH  19  26
BRANCH  23  27
ATOM     27  O   UNL     1       3.613   3.277  17.608  0.00  0.00    +0.000 OA
ATOM     28  C   UNL     1       3.723   2.673  18.886  0.00  0.00    +0.000 C 
ENDBRANCH  23  27
BRANCH  24  29
ATOM     29  O   UNL     1       6.181   4.105  16.603  0.00  0.00    +0.000 OA
ATOM     30  C   UNL     1       6.353   3.741  15.244  0.00  0.00    +0.000 C 
ENDBRANCH  24  29
ENDBRANCH  17  21
ENDBRANCH   1  18
TORSDOF 6
ENDMDL
