MODEL 1
REMARK VINA RESULT:      -8.2      0.000      0.000
REMARK  Name = 
REMARK  7 active torsions:
REMARK  status: ('A' for Active; 'I' for Inactive)
REMARK    1  A    between atoms: C_1  and  N_2
REMARK    2  A    between atoms: N_2  and  C_3
REMARK    3  A    between atoms: N_2  and  C_12
REMARK    4  A    between atoms: C_3  and  C_4
REMARK    5  A    between atoms: C_8  and  C_9
REMARK    6  A    between atoms: C_18  and  N_19
REMARK    7  A    between atoms: C_20  and  C_22
REMARK                            x       y       z     vdW  Elec       q    Type
REMARK                         _______ _______ _______ _____ _____    ______ ____
ROOT
ATOM      1  C   UNL     1       2.342   4.403  19.121  0.00  0.00    +0.000 C 
ATOM      2  C   UNL     1       2.686   5.541  18.128  0.00  0.00    +0.000 C 
ATOM      3  C   UNL     1       3.125   6.793  18.876  0.00  0.00    +0.000 C 
ATOM      4  N   UNL     1       2.060   7.220  19.769  0.00  0.00    +0.000 N 
ATOM      5  C   UNL     1       1.395   8.403  19.513  0.00  0.00    +0.000 A 
ATOM      6  C   UNL     1       0.856   9.123  20.574  0.00  0.00    +0.000 A 
ATOM      7  C   UNL     1       0.228  10.352  20.377  0.00  0.00    +0.000 A 
ATOM      8  C   UNL     1       0.133  10.829  19.076  0.00  0.00    +0.000 A 
ATOM      9  C   UNL     1       0.687  10.062  18.062  0.00  0.00    +0.000 A 
ATOM     10  N   UNL     1       1.319   8.882  18.257  0.00  0.00    +0.000 NA
ATOM     11  C   UNL     1       1.529   6.235  20.711  0.00  0.00    +0.000 C 
ATOM     12  C   UNL     1       1.172   4.937  19.981  0.00  0.00    +0.000 C 
ENDROOT
BRANCH   7  13
ATOM     13  N   UNL     1      -0.289  11.129  21.445  0.00  0.00    +0.000 N 
ATOM     14  C   UNL     1      -1.060  12.275  21.297  0.00  0.00    +0.000 C 
ATOM     15  O   UNL     1      -1.402  12.789  20.236  0.00  0.00    +0.000 OA
ATOM     16  H   UNL     1      -0.120  10.777  22.377  0.00  0.00    +0.000 HD
BRANCH  14  17
ATOM     17  C   UNL     1      -1.529  12.963  22.525  0.00  0.00    +0.000 A 
ATOM     18  C   UNL     1      -0.896  14.087  23.068  0.00  0.00    +0.000 A 
ATOM     19  C   UNL     1      -1.480  14.745  24.156  0.00  0.00    +0.000 A 
ATOM     20  C   UNL     1      -2.682  14.287  24.686  0.00  0.00    +0.000 A 
ATOM     21  F   UNL     1      -3.252  14.952  25.701  0.00  0.00    +0.000 F 
ATOM     22  C   UNL     1      -3.315  13.167  24.168  0.00  0.00    +0.000 A 
ATOM     23  C   UNL     1      -2.736  12.502  23.090  0.00  0.00    +0.000 A 
ENDBRANCH  14  17
ENDBRANCH   7  13
BRANCH   1  25
ATOM     24  C   UNL     1       3.094   3.005  20.990  0.00  0.00    +0.000 C 
ATOM     25  N   UNL     1       3.515   3.925  19.922  0.00  0.00    +0.000 NA
BRANCH  25  26
ATOM     26  C   UNL     1       4.516   3.264  19.058  0.00  0.00    +0.000 C 
BRANCH  26  27
ATOM     27  C   UNL     1       5.593   4.175  18.504  0.00  0.00    +0.000 A 
ATOM     28  C   UNL     1       6.277   5.072  19.339  0.00  0.00    +0.000 A 
ATOM     29  C   UNL     1       7.194   5.980  18.807  0.00  0.00    +0.000 A 
ATOM     30  C   UNL     1       7.433   6.006  17.433  0.00  0.00    +0.000 A 
ATOM     31  C   UNL     1       6.764   5.114  16.590  0.00  0.00    +0.000 A 
ATOM     32  C   UNL     1       5.852   4.198  17.125  0.00  0.00    +0.000 A 
BRANCH  31  33
ATOM     33  C   UNL     1       6.989   5.154  15.175  0.00  0.00    +0.000 C 
ATOM     34  N   UNL     1       7.177   5.176  14.030  0.00  0.00    +0.000 NA
ENDBRANCH  31  33
ENDBRANCH  26  27
ENDBRANCH  25  26
ENDBRANCH   1  25
TORSDOF 6
ENDMDL
MODEL 2
REMARK VINA RESULT:      -8.1      4.270     11.528
REMARK  Name = 
REMARK  7 active torsions:
REMARK  status: ('A' for Active; 'I' for Inactive)
REMARK    1  A    between atoms: C_1  and  N_2
REMARK    2  A    between atoms: N_2  and  C_3
REMARK    3  A    between atoms: N_2  and  C_12
REMARK    4  A    between atoms: C_3  and  C_4
REMARK    5  A    between atoms: C_8  and  C_9
REMARK    6  A    between atoms: C_18  and  N_19
REMARK    7  A    between atoms: C_20  and  C_22
REMARK                            x       y       z     vdW  Elec       q    Type
REMARK                         _______ _______ _______ _____ _____    ______ ____
ROOT
ATOM      1  C   UNL     1      -0.802  10.898  20.554  0.00  0.00    +0.000 C 
ATOM      2  C   UNL     1      -0.237   9.907  21.602  0.00  0.00    +0.000 C 
ATOM      3  C   UNL     1       1.226   9.596  21.314  0.00  0.00    +0.000 C 
ATOM      4  N   UNL     1       1.345   9.027  19.981  0.00  0.00    +0.000 N 
ATOM      5  C   UNL     1       1.718   7.706  19.839  0.00  0.00    +0.000 A 
ATOM      6  C   UNL     1       2.407   7.312  18.697  0.00  0.00    +0.000 A 
ATOM      7  C   UNL     1       2.858   6.004  18.532  0.00  0.00    +0.000 A 
ATOM      8  C   UNL     1       2.577   5.090  19.538  0.00  0.00    +0.000 A 
ATOM      9  C   UNL     1       1.884   5.544  20.650  0.00  0.00    +0.000 A 
ATOM     10  N   UNL     1       1.468   6.820  20.822  0.00  0.00    +0.000 NA
ATOM     11  C   UNL     1       0.765   9.781  18.868  0.00  0.00    +0.000 C 
ATOM     12  C   UNL     1      -0.677  10.179  19.189  0.00  0.00    +0.000 C 
ENDROOT
BRANCH   7  13
ATOM     13  N   UNL     1       3.602   5.587  17.398  0.00  0.00    +0.000 N 
ATOM     14  C   UNL     1       4.981   5.420  17.366  0.00  0.00    +0.000 C 
ATOM     15  O   UNL     1       5.758   5.613  18.297  0.00  0.00    +0.000 OA
ATOM     16  H   UNL     1       3.067   5.344  16.576  0.00  0.00    +0.000 HD
BRANCH  14  17
ATOM     17  C   UNL     1       5.599   4.966  16.096  0.00  0.00    +0.000 A 
ATOM     18  C   UNL     1       4.921   4.203  15.138  0.00  0.00    +0.000 A 
ATOM     19  C   UNL     1       5.541   3.928  13.915  0.00  0.00    +0.000 A 
ATOM     20  C   UNL     1       6.819   4.414  13.655  0.00  0.00    +0.000 A 
ATOM     21  F   UNL     1       7.386   4.177  12.463  0.00  0.00    +0.000 F 
ATOM     22  C   UNL     1       7.510   5.159  14.599  0.00  0.00    +0.000 A 
ATOM     23  C   UNL     1       6.901   5.432  15.822  0.00  0.00    +0.000 A 
ENDBRANCH  14  17
ENDBRANCH   7  13
BRANCH   1  25
ATOM     24  C   UNL     1      -0.974  13.253  19.891  0.00  0.00    +0.000 C 
ATOM     25  N   UNL     1      -0.155  12.249  20.589  0.00  0.00    +0.000 NA
BRANCH  25  26
ATOM     26  C   UNL     1       0.092  12.685  21.979  0.00  0.00    +0.000 C 
BRANCH  26  27
ATOM     27  C   UNL     1      -1.051  13.436  22.634  0.00  0.00    +0.000 A 
ATOM     28  C   UNL     1      -0.965  14.817  22.866  0.00  0.00    +0.000 A 
ATOM     29  C   UNL     1      -1.975  15.484  23.561  0.00  0.00    +0.000 A 
ATOM     30  C   UNL     1      -3.079  14.776  24.038  0.00  0.00    +0.000 A 
ATOM     31  C   UNL     1      -3.180  13.402  23.809  0.00  0.00    +0.000 A 
ATOM     32  C   UNL     1      -2.172  12.735  23.103  0.00  0.00    +0.000 A 
BRANCH  31  33
ATOM     33  C   UNL     1      -4.301  12.667  24.317  0.00  0.00    +0.000 C 
ATOM     34  N   UNL     1      -5.206  12.064  24.722  0.00  0.00    +0.000 NA
ENDBRANCH  31  33
ENDBRANCH  26  27
ENDBRANCH  25  26
ENDBRANCH   1  25
TORSDOF 6
ENDMDL
MODEL 3
REMARK VINA RESULT:      -7.9      4.315     11.363
REMARK  Name = 
REMARK  7 active torsions:
REMARK  status: ('A' for Active; 'I' for Inactive)
REMARK    1  A    between atoms: C_1  and  N_2
REMARK    2  A    between atoms: N_2  and  C_3
REMARK    3  A    between atoms: N_2  and  C_12
REMARK    4  A    between atoms: C_3  and  C_4
REMARK    5  A    between atoms: C_8  and  C_9
REMARK    6  A    between atoms: C_18  and  N_19
REMARK    7  A    between atoms: C_20  and  C_22
REMARK                            x       y       z     vdW  Elec       q    Type
REMARK                         _______ _______ _______ _____ _____    ______ ____
ROOT
ATOM      1  C   UNL     1      -0.140  10.835  21.096  0.00  0.00    +0.000 C 
ATOM      2  C   UNL     1       0.166   9.636  22.026  0.00  0.00    +0.000 C 
ATOM      3  C   UNL     1       1.570   9.103  21.773  0.00  0.00    +0.000 C 
ATOM      4  N   UNL     1       1.687   8.693  20.383  0.00  0.00    +0.000 N 
ATOM      5  C   UNL     1       1.835   7.354  20.082  0.00  0.00    +0.000 A 
ATOM      6  C   UNL     1       2.528   6.987  18.934  0.00  0.00    +0.000 A 
ATOM      7  C   UNL     1       2.757   5.650  18.615  0.00  0.00    +0.000 A 
ATOM      8  C   UNL     1       2.248   4.684  19.473  0.00  0.00    +0.000 A 
ATOM      9  C   UNL     1       1.564   5.114  20.600  0.00  0.00    +0.000 A 
ATOM     10  N   UNL     1       1.364   6.412  20.922  0.00  0.00    +0.000 NA
ATOM     11  C   UNL     1       1.331   9.672  19.355  0.00  0.00    +0.000 C 
ATOM     12  C   UNL     1      -0.041  10.282  19.654  0.00  0.00    +0.000 C 
ENDROOT
BRANCH   7  13
ATOM     13  N   UNL     1       3.500   5.249  17.474  0.00  0.00    +0.000 N 
ATOM     14  C   UNL     1       4.865   5.437  17.306  0.00  0.00    +0.000 C 
ATOM     15  O   UNL     1       5.629   5.977  18.102  0.00  0.00    +0.000 OA
ATOM     16  H   UNL     1       2.990   4.741  16.764  0.00  0.00    +0.000 HD
BRANCH  14  17
ATOM     17  C   UNL     1       5.487   4.946  16.051  0.00  0.00    +0.000 A 
ATOM     18  C   UNL     1       4.780   4.254  15.061  0.00  0.00    +0.000 A 
ATOM     19  C   UNL     1       5.417   3.940  13.855  0.00  0.00    +0.000 A 
ATOM     20  C   UNL     1       6.739   4.318  13.645  0.00  0.00    +0.000 A 
ATOM     21  F   UNL     1       7.325   4.047  12.469  0.00  0.00    +0.000 F 
ATOM     22  C   UNL     1       7.457   4.991  14.622  0.00  0.00    +0.000 A 
ATOM     23  C   UNL     1       6.832   5.302  15.827  0.00  0.00    +0.000 A 
ENDBRANCH  14  17
ENDBRANCH   7  13
BRANCH   1  25
ATOM     24  C   UNL     1       1.474  12.414  20.138  0.00  0.00    +0.000 C 
ATOM     25  N   UNL     1       0.726  12.032  21.346  0.00  0.00    +0.000 NA
BRANCH  25  26
ATOM     26  C   UNL     1      -0.075  13.179  21.821  0.00  0.00    +0.000 C 
BRANCH  26  27
ATOM     27  C   UNL     1      -1.578  12.976  21.787  0.00  0.00    +0.000 A 
ATOM     28  C   UNL     1      -2.305  13.186  20.606  0.00  0.00    +0.000 A 
ATOM     29  C   UNL     1      -3.698  13.098  20.604  0.00  0.00    +0.000 A 
ATOM     30  C   UNL     1      -4.380  12.807  21.786  0.00  0.00    +0.000 A 
ATOM     31  C   UNL     1      -3.668  12.590  22.968  0.00  0.00    +0.000 A 
ATOM     32  C   UNL     1      -2.271  12.668  22.967  0.00  0.00    +0.000 A 
BRANCH  31  33
ATOM     33  C   UNL     1      -4.366  12.314  24.189  0.00  0.00    +0.000 C 
ATOM     34  N   UNL     1      -4.935  12.102  25.179  0.00  0.00    +0.000 NA
ENDBRANCH  31  33
ENDBRANCH  26  27
ENDBRANCH  25  26
ENDBRANCH   1  25
TORSDOF 6
ENDMDL
MODEL 4
REMARK VINA RESULT:      -7.9      1.047      1.482
REMARK  Name = 
REMARK  7 active torsions:
REMARK  status: ('A' for Active; 'I' for Inactive)
REMARK    1  A    between atoms: C_1  and  N_2
REMARK    2  A    between atoms: N_2  and  C_3
REMARK    3  A    between atoms: N_2  and  C_12
REMARK    4  A    between atoms: C_3  and  C_4
REMARK    5  A    between atoms: C_8  and  C_9
REMARK    6  A    between atoms: C_18  and  N_19
REMARK    7  A    between atoms: C_20  and  C_22
REMARK                            x       y       z     vdW  Elec       q    Type
REMARK                         _______ _______ _______ _____ _____    ______ ____
ROOT
ATOM      1  C   UNL     1       2.173   4.462  19.218  0.00  0.00    +0.000 C 
ATOM      2  C   UNL     1       2.519   5.561  18.183  0.00  0.00    +0.000 C 
ATOM      3  C   UNL     1       3.015   6.820  18.882  0.00  0.00    +0.000 C 
ATOM      4  N   UNL     1       1.990   7.304  19.792  0.00  0.00    +0.000 N 
ATOM      5  C   UNL     1       1.351   8.498  19.521  0.00  0.00    +0.000 A 
ATOM      6  C   UNL     1       0.866   9.263  20.576  0.00  0.00    +0.000 A 
ATOM      7  C   UNL     1       0.267  10.503  20.362  0.00  0.00    +0.000 A 
ATOM      8  C   UNL     1       0.146  10.946  19.051  0.00  0.00    +0.000 A 
ATOM      9  C   UNL     1       0.648  10.135  18.044  0.00  0.00    +0.000 A 
ATOM     10  N   UNL     1       1.252   8.943  18.254  0.00  0.00    +0.000 NA
ATOM     11  C   UNL     1       1.460   6.361  20.778  0.00  0.00    +0.000 C 
ATOM     12  C   UNL     1       1.045   5.055  20.097  0.00  0.00    +0.000 C 
ENDROOT
BRANCH   7  13
ATOM     13  N   UNL     1      -0.196  11.325  21.422  0.00  0.00    +0.000 N 
ATOM     14  C   UNL     1      -1.414  11.992  21.439  0.00  0.00    +0.000 C 
ATOM     15  O   UNL     1      -2.262  11.981  20.552  0.00  0.00    +0.000 OA
ATOM     16  H   UNL     1       0.394  11.373  22.241  0.00  0.00    +0.000 HD
BRANCH  14  17
ATOM     17  C   UNL     1      -1.746  12.804  22.636  0.00  0.00    +0.000 A 
ATOM     18  C   UNL     1      -0.936  13.841  23.113  0.00  0.00    +0.000 A 
ATOM     19  C   UNL     1      -1.389  14.635  24.172  0.00  0.00    +0.000 A 
ATOM     20  C   UNL     1      -2.638  14.397  24.739  0.00  0.00    +0.000 A 
ATOM     21  F   UNL     1      -3.077  15.191  25.726  0.00  0.00    +0.000 F 
ATOM     22  C   UNL     1      -3.446  13.364  24.287  0.00  0.00    +0.000 A 
ATOM     23  C   UNL     1      -2.998  12.565  23.238  0.00  0.00    +0.000 A 
ENDBRANCH  14  17
ENDBRANCH   7  13
BRANCH   1  25
ATOM     24  C   UNL     1       2.935   3.181  21.166  0.00  0.00    +0.000 C 
ATOM     25  N   UNL     1       3.355   3.973  19.998  0.00  0.00    +0.000 NA
BRANCH  25  26
ATOM     26  C   UNL     1       4.259   3.170  19.148  0.00  0.00    +0.000 C 
BRANCH  26  27
ATOM     27  C   UNL     1       5.100   3.965  18.169  0.00  0.00    +0.000 A 
ATOM     28  C   UNL     1       5.121   3.635  16.805  0.00  0.00    +0.000 A 
ATOM     29  C   UNL     1       5.974   4.304  15.926  0.00  0.00    +0.000 A 
ATOM     30  C   UNL     1       6.823   5.304  16.402  0.00  0.00    +0.000 A 
ATOM     31  C   UNL     1       6.809   5.646  17.756  0.00  0.00    +0.000 A 
ATOM     32  C   UNL     1       5.945   4.983  18.635  0.00  0.00    +0.000 A 
BRANCH  31  33
ATOM     33  C   UNL     1       7.695   6.657  18.253  0.00  0.00    +0.000 C 
ATOM     34  N   UNL     1       8.414   7.469  18.665  0.00  0.00    +0.000 NA
ENDBRANCH  31  33
ENDBRANCH  26  27
ENDBRANCH  25  26
ENDBRANCH   1  25
TORSDOF 6
ENDMDL
MODEL 5
REMARK VINA RESULT:      -7.9      4.293     10.748
REMARK  Name = 
REMARK  7 active torsions:
REMARK  status: ('A' for Active; 'I' for Inactive)
REMARK    1  A    between atoms: C_1  and  N_2
REMARK    2  A    between atoms: N_2  and  C_3
REMARK    3  A    between atoms: N_2  and  C_12
REMARK    4  A    between atoms: C_3  and  C_4
REMARK    5  A    between atoms: C_8  and  C_9
REMARK    6  A    between atoms: C_18  and  N_19
REMARK    7  A    between atoms: C_20  and  C_22
REMARK                            x       y       z     vdW  Elec       q    Type
REMARK                         _______ _______ _______ _____ _____    ______ ____
ROOT
ATOM      1  C   UNL     1      -1.854  12.900  21.986  0.00  0.00    +0.000 C 
ATOM      2  C   UNL     1      -1.607  12.914  20.457  0.00  0.00    +0.000 C 
ATOM      3  C   UNL     1      -1.700  11.505  19.886  0.00  0.00    +0.000 C 
ATOM      4  N   UNL     1      -0.718  10.654  20.537  0.00  0.00    +0.000 N 
ATOM      5  C   UNL     1       0.351  10.171  19.809  0.00  0.00    +0.000 A 
ATOM      6  C   UNL     1       0.921   8.953  20.164  0.00  0.00    +0.000 A 
ATOM      7  C   UNL     1       1.962   8.393  19.426  0.00  0.00    +0.000 A 
ATOM      8  C   UNL     1       2.435   9.103  18.331  0.00  0.00    +0.000 A 
ATOM      9  C   UNL     1       1.826  10.312  18.031  0.00  0.00    +0.000 A 
ATOM     10  N   UNL     1       0.798  10.844  18.732  0.00  0.00    +0.000 NA
ATOM     11  C   UNL     1      -0.732  10.602  22.000  0.00  0.00    +0.000 C 
ATOM     12  C   UNL     1      -0.733  12.017  22.584  0.00  0.00    +0.000 C 
ENDROOT
BRANCH   7  13
ATOM     13  N   UNL     1       2.531   7.131  19.739  0.00  0.00    +0.000 N 
ATOM     14  C   UNL     1       2.387   5.981  18.975  0.00  0.00    +0.000 C 
ATOM     15  O   UNL     1       1.749   5.876  17.932  0.00  0.00    +0.000 OA
ATOM     16  H   UNL     1       3.129   7.100  20.554  0.00  0.00    +0.000 HD
BRANCH  14  17
ATOM     17  C   UNL     1       3.061   4.744  19.444  0.00  0.00    +0.000 A 
ATOM     18  C   UNL     1       2.410   3.740  20.171  0.00  0.00    +0.000 A 
ATOM     19  C   UNL     1       3.090   2.553  20.462  0.00  0.00    +0.000 A 
ATOM     20  C   UNL     1       4.399   2.373  20.027  0.00  0.00    +0.000 A 
ATOM     21  F   UNL     1       5.025   1.214  20.277  0.00  0.00    +0.000 F 
ATOM     22  C   UNL     1       5.063   3.364  19.318  0.00  0.00    +0.000 A 
ATOM     23  C   UNL     1       4.395   4.551  19.030  0.00  0.00    +0.000 A 
ENDBRANCH  14  17
ENDBRANCH   7  13
BRANCH   1  25
ATOM     24  C   UNL     1      -3.407  12.461  23.833  0.00  0.00    +0.000 C 
ATOM     25  N   UNL     1      -3.236  12.469  22.372  0.00  0.00    +0.000 NA
BRANCH  25  26
ATOM     26  C   UNL     1      -4.258  13.341  21.754  0.00  0.00    +0.000 C 
BRANCH  26  27
ATOM     27  C   UNL     1      -5.177  12.656  20.761  0.00  0.00    +0.000 A 
ATOM     28  C   UNL     1      -6.441  12.192  21.153  0.00  0.00    +0.000 A 
ATOM     29  C   UNL     1      -7.241  11.473  20.263  0.00  0.00    +0.000 A 
ATOM     30  C   UNL     1      -6.781  11.202  18.973  0.00  0.00    +0.000 A 
ATOM     31  C   UNL     1      -5.526  11.663  18.568  0.00  0.00    +0.000 A 
ATOM     32  C   UNL     1      -4.729  12.393  19.457  0.00  0.00    +0.000 A 
BRANCH  31  33
ATOM     33  C   UNL     1      -5.040  11.367  17.253  0.00  0.00    +0.000 C 
ATOM     34  N   UNL     1      -4.657  11.123  16.185  0.00  0.00    +0.000 NA
ENDBRANCH  31  33
ENDBRANCH  26  27
ENDBRANCH  25  26
ENDBRANCH   1  25
TORSDOF 6
ENDMDL
MODEL 6
REMARK VINA RESULT:      -7.9      4.286     10.673
REMARK  Name = 
REMARK  7 active torsions:
REMARK  status: ('A' for Active; 'I' for Inactive)
REMARK    1  A    between atoms: C_1  and  N_2
REMARK    2  A    between atoms: N_2  and  C_3
REMARK    3  A    between atoms: N_2  and  C_12
REMARK    4  A    between atoms: C_3  and  C_4
REMARK    5  A    between atoms: C_8  and  C_9
REMARK    6  A    between atoms: C_18  and  N_19
REMARK    7  A    between atoms: C_20  and  C_22
REMARK                            x       y       z     vdW  Elec       q    Type
REMARK                         _______ _______ _______ _____ _____    ______ ____
ROOT
ATOM      1  C   UNL     1      -2.086  12.799  22.642  0.00  0.00    +0.000 C 
ATOM      2  C   UNL     1      -1.687  13.587  21.370  0.00  0.00    +0.000 C 
ATOM      3  C   UNL     1      -1.768  12.695  20.138  0.00  0.00    +0.000 C 
ATOM      4  N   UNL     1      -0.886  11.553  20.310  0.00  0.00    +0.000 N 
ATOM      5  C   UNL     1       0.234  11.435  19.511  0.00  0.00    +0.000 A 
ATOM      6  C   UNL     1       0.725  10.169  19.210  0.00  0.00    +0.000 A 
ATOM      7  C   UNL     1       1.816   9.993  18.361  0.00  0.00    +0.000 A 
ATOM      8  C   UNL     1       2.420  11.128  17.838  0.00  0.00    +0.000 A 
ATOM      9  C   UNL     1       1.884  12.362  18.178  0.00  0.00    +0.000 A 
ATOM     10  N   UNL     1       0.810  12.532  18.982  0.00  0.00    +0.000 NA
ATOM     11  C   UNL     1      -1.048  10.748  21.521  0.00  0.00    +0.000 C 
ATOM     12  C   UNL     1      -1.060  11.646  22.760  0.00  0.00    +0.000 C 
ENDROOT
BRANCH   7  13
ATOM     13  N   UNL     1       2.309   8.712  18.002  0.00  0.00    +0.000 N 
ATOM     14  C   UNL     1       2.463   7.643  18.875  0.00  0.00    +0.000 C 
ATOM     15  O   UNL     1       2.208   7.642  20.076  0.00  0.00    +0.000 OA
ATOM     16  H   UNL     1       2.506   8.567  17.021  0.00  0.00    +0.000 HD
BRANCH  14  17
ATOM     17  C   UNL     1       2.985   6.366  18.328  0.00  0.00    +0.000 A 
ATOM     18  C   UNL     1       2.209   5.208  18.199  0.00  0.00    +0.000 A 
ATOM     19  C   UNL     1       2.748   4.088  17.557  0.00  0.00    +0.000 A 
ATOM     20  C   UNL     1       4.042   4.130  17.048  0.00  0.00    +0.000 A 
ATOM     21  F   UNL     1       4.532   3.064  16.399  0.00  0.00    +0.000 F 
ATOM     22  C   UNL     1       4.829   5.264  17.182  0.00  0.00    +0.000 A 
ATOM     23  C   UNL     1       4.302   6.381  17.825  0.00  0.00    +0.000 A 
ENDBRANCH  14  17
ENDBRANCH   7  13
BRANCH   1  25
ATOM     24  C   UNL     1      -4.042  12.257  24.018  0.00  0.00    +0.000 C 
ATOM     25  N   UNL     1      -3.514  12.344  22.648  0.00  0.00    +0.000 NA
BRANCH  25  26
ATOM     26  C   UNL     1      -4.363  13.244  21.841  0.00  0.00    +0.000 C 
BRANCH  26  27
ATOM     27  C   UNL     1      -5.238  12.556  20.811  0.00  0.00    +0.000 A 
ATOM     28  C   UNL     1      -6.499  12.051  21.160  0.00  0.00    +0.000 A 
ATOM     29  C   UNL     1      -7.256  11.329  20.236  0.00  0.00    +0.000 A 
ATOM     30  C   UNL     1      -6.757  11.098  18.954  0.00  0.00    +0.000 A 
ATOM     31  C   UNL     1      -5.505  11.600  18.591  0.00  0.00    +0.000 A 
ATOM     32  C   UNL     1      -4.751  12.333  19.514  0.00  0.00    +0.000 A 
BRANCH  31  33
ATOM     33  C   UNL     1      -4.978  11.344  17.282  0.00  0.00    +0.000 C 
ATOM     34  N   UNL     1      -4.543  11.131  16.227  0.00  0.00    +0.000 NA
ENDBRANCH  31  33
ENDBRANCH  26  27
ENDBRANCH  25  26
ENDBRANCH   1  25
TORSDOF 6
ENDMDL
MODEL 7
REMARK VINA RESULT:      -7.7      4.381     11.448
REMARK  Name = 
REMARK  7 active torsions:
REMARK  status: ('A' for Active; 'I' for Inactive)
REMARK    1  A    between atoms: C_1  and  N_2
REMARK    2  A    between atoms: N_2  and  C_3
REMARK    3  A    between atoms: N_2  and  C_12
REMARK    4  A    between atoms: C_3  and  C_4
REMARK    5  A    between atoms: C_8  and  C_9
REMARK    6  A    between atoms: C_18  and  N_19
REMARK    7  A    between atoms: C_20  and  C_22
REMARK                            x       y       z     vdW  Elec       q    Type
REMARK                         _______ _______ _______ _____ _____    ______ ____
ROOT
ATOM      1  C   UNL     1      -0.606  10.760  20.623  0.00  0.00    +0.000 C 
ATOM      2  C   UNL     1      -0.062   9.739  21.652  0.00  0.00    +0.000 C 
ATOM      3  C   UNL     1       1.389   9.391  21.349  0.00  0.00    +0.000 C 
ATOM      4  N   UNL     1       1.484   8.839  20.008  0.00  0.00    +0.000 N 
ATOM      5  C   UNL     1       1.819   7.510  19.843  0.00  0.00    +0.000 A 
ATOM      6  C   UNL     1       2.489   7.115  18.691  0.00  0.00    +0.000 A 
ATOM      7  C   UNL     1       2.903   5.798  18.503  0.00  0.00    +0.000 A 
ATOM      8  C   UNL     1       2.602   4.876  19.498  0.00  0.00    +0.000 A 
ATOM      9  C   UNL     1       1.929   5.333  20.621  0.00  0.00    +0.000 A 
ATOM     10  N   UNL     1       1.551   6.617  20.815  0.00  0.00    +0.000 NA
ATOM     11  C   UNL     1       0.919   9.626  18.910  0.00  0.00    +0.000 C 
ATOM     12  C   UNL     1      -0.510  10.059  19.246  0.00  0.00    +0.000 C 
ENDROOT
BRANCH   7  13
ATOM     13  N   UNL     1       3.628   5.377  17.358  0.00  0.00    +0.000 N 
ATOM     14  C   UNL     1       5.000   5.510  17.190  0.00  0.00    +0.000 C 
ATOM     15  O   UNL     1       5.785   6.012  17.990  0.00  0.00    +0.000 OA
ATOM     16  H   UNL     1       3.098   4.896  16.644  0.00  0.00    +0.000 HD
BRANCH  14  17
ATOM     17  C   UNL     1       5.600   5.005  15.930  0.00  0.00    +0.000 A 
ATOM     18  C   UNL     1       4.911   4.199  15.017  0.00  0.00    +0.000 A 
ATOM     19  C   UNL     1       5.513   3.874  13.797  0.00  0.00    +0.000 A 
ATOM     20  C   UNL     1       6.784   4.354  13.496  0.00  0.00    +0.000 A 
ATOM     21  F   UNL     1       7.333   4.070  12.306  0.00  0.00    +0.000 F 
ATOM     22  C   UNL     1       7.486   5.142  14.396  0.00  0.00    +0.000 A 
ATOM     23  C   UNL     1       6.896   5.464  15.616  0.00  0.00    +0.000 A 
ENDBRANCH  14  17
ENDBRANCH   7  13
BRANCH   1  25
ATOM     24  C   UNL     1      -0.323  12.944  19.542  0.00  0.00    +0.000 C 
ATOM     25  N   UNL     1       0.079  12.092  20.673  0.00  0.00    +0.000 NA
BRANCH  25  26
ATOM     26  C   UNL     1      -0.203  12.787  21.947  0.00  0.00    +0.000 C 
BRANCH  26  27
ATOM     27  C   UNL     1      -1.672  12.960  22.278  0.00  0.00    +0.000 A 
ATOM     28  C   UNL     1      -2.273  12.210  23.300  0.00  0.00    +0.000 A 
ATOM     29  C   UNL     1      -3.647  12.298  23.532  0.00  0.00    +0.000 A 
ATOM     30  C   UNL     1      -4.437  13.131  22.739  0.00  0.00    +0.000 A 
ATOM     31  C   UNL     1      -3.851  13.888  21.722  0.00  0.00    +0.000 A 
ATOM     32  C   UNL     1      -2.472  13.808  21.496  0.00  0.00    +0.000 A 
BRANCH  31  33
ATOM     33  C   UNL     1      -4.662  14.727  20.890  0.00  0.00    +0.000 C 
ATOM     34  N   UNL     1      -5.323  15.398  20.211  0.00  0.00    +0.000 NA
ENDBRANCH  31  33
ENDBRANCH  26  27
ENDBRANCH  25  26
ENDBRANCH   1  25
TORSDOF 6
ENDMDL
MODEL 8
REMARK VINA RESULT:      -7.7      0.958      1.130
REMARK  Name = 
REMARK  7 active torsions:
REMARK  status: ('A' for Active; 'I' for Inactive)
REMARK    1  A    between atoms: C_1  and  N_2
REMARK    2  A    between atoms: N_2  and  C_3
REMARK    3  A    between atoms: N_2  and  C_12
REMARK    4  A    between atoms: C_3  and  C_4
REMARK    5  A    between atoms: C_8  and  C_9
REMARK    6  A    between atoms: C_18  and  N_19
REMARK    7  A    between atoms: C_20  and  C_22
REMARK                            x       y       z     vdW  Elec       q    Type
REMARK                         _______ _______ _______ _____ _____    ______ ____
ROOT
ATOM      1  C   UNL     1       2.099   4.725  19.309  0.00  0.00    +0.000 C 
ATOM      2  C   UNL     1       2.315   5.707  18.132  0.00  0.00    +0.000 C 
ATOM      3  C   UNL     1       2.896   7.024  18.630  0.00  0.00    +0.000 C 
ATOM      4  N   UNL     1       1.991   7.612  19.604  0.00  0.00    +0.000 N 
ATOM      5  C   UNL     1       1.326   8.781  19.293  0.00  0.00    +0.000 A 
ATOM      6  C   UNL     1       0.975   9.657  20.315  0.00  0.00    +0.000 A 
ATOM      7  C   UNL     1       0.356  10.877  20.049  0.00  0.00    +0.000 A 
ATOM      8  C   UNL     1       0.075  11.186  18.725  0.00  0.00    +0.000 A 
ATOM      9  C   UNL     1       0.447  10.269  17.753  0.00  0.00    +0.000 A 
ATOM     10  N   UNL     1       1.071   9.096  18.009  0.00  0.00    +0.000 NA
ATOM     11  C   UNL     1       1.587   6.783  20.740  0.00  0.00    +0.000 C 
ATOM     12  C   UNL     1       1.088   5.420  20.254  0.00  0.00    +0.000 C 
ENDROOT
BRANCH   7  13
ATOM     13  N   UNL     1       0.029  11.809  21.067  0.00  0.00    +0.000 N 
ATOM     14  C   UNL     1       0.428  13.139  21.088  0.00  0.00    +0.000 C 
ATOM     15  O   UNL     1       1.120  13.704  20.246  0.00  0.00    +0.000 OA
ATOM     16  H   UNL     1      -0.587  11.478  21.797  0.00  0.00    +0.000 HD
BRANCH  14  17
ATOM     17  C   UNL     1      -0.013  13.982  22.228  0.00  0.00    +0.000 A 
ATOM     18  C   UNL     1       0.410  15.302  22.420  0.00  0.00    +0.000 A 
ATOM     19  C   UNL     1      -0.154  16.061  23.451  0.00  0.00    +0.000 A 
ATOM     20  C   UNL     1      -1.131  15.506  24.272  0.00  0.00    +0.000 A 
ATOM     21  F   UNL     1      -1.693  16.258  25.230  0.00  0.00    +0.000 F 
ATOM     22  C   UNL     1      -1.550  14.195  24.104  0.00  0.00    +0.000 A 
ATOM     23  C   UNL     1      -0.988  13.431  23.084  0.00  0.00    +0.000 A 
ENDBRANCH  14  17
ENDBRANCH   7  13
BRANCH   1  25
ATOM     24  C   UNL     1       3.093   3.484  21.176  0.00  0.00    +0.000 C 
ATOM     25  N   UNL     1       3.367   4.302  19.984  0.00  0.00    +0.000 NA
BRANCH  25  26
ATOM     26  C   UNL     1       4.241   3.553  19.056  0.00  0.00    +0.000 C 
BRANCH  26  27
ATOM     27  C   UNL     1       5.399   4.344  18.480  0.00  0.00    +0.000 A 
ATOM     28  C   UNL     1       6.168   5.190  19.294  0.00  0.00    +0.000 A 
ATOM     29  C   UNL     1       7.167   5.993  18.740  0.00  0.00    +0.000 A 
ATOM     30  C   UNL     1       7.404   5.964  17.365  0.00  0.00    +0.000 A 
ATOM     31  C   UNL     1       6.650   5.121  16.544  0.00  0.00    +0.000 A 
ATOM     32  C   UNL     1       5.656   4.309  17.101  0.00  0.00    +0.000 A 
BRANCH  31  33
ATOM     33  C   UNL     1       6.874   5.106  15.129  0.00  0.00    +0.000 C 
ATOM     34  N   UNL     1       7.066   5.088  13.984  0.00  0.00    +0.000 NA
ENDBRANCH  31  33
ENDBRANCH  26  27
ENDBRANCH  25  26
ENDBRANCH   1  25
TORSDOF 6
ENDMDL
MODEL 9
REMARK VINA RESULT:      -7.7      4.349     11.303
REMARK  Name = 
REMARK  7 active torsions:
REMARK  status: ('A' for Active; 'I' for Inactive)
REMARK    1  A    between atoms: C_1  and  N_2
REMARK    2  A    between atoms: N_2  and  C_3
REMARK    3  A    between atoms: N_2  and  C_12
REMARK    4  A    between atoms: C_3  and  C_4
REMARK    5  A    between atoms: C_8  and  C_9
REMARK    6  A    between atoms: C_18  and  N_19
REMARK    7  A    between atoms: C_20  and  C_22
REMARK                            x       y       z     vdW  Elec       q    Type
REMARK                         _______ _______ _______ _____ _____    ______ ____
ROOT
ATOM      1  C   UNL     1      -0.701  10.871  20.962  0.00  0.00    +0.000 C 
ATOM      2  C   UNL     1      -0.190   9.794  21.950  0.00  0.00    +0.000 C 
ATOM      3  C   UNL     1       1.264   9.445  21.661  0.00  0.00    +0.000 C 
ATOM      4  N   UNL     1       1.381   8.959  20.295  0.00  0.00    +0.000 N 
ATOM      5  C   UNL     1       1.705   7.636  20.072  0.00  0.00    +0.000 A 
ATOM      6  C   UNL     1       2.395   7.291  18.915  0.00  0.00    +0.000 A 
ATOM      7  C   UNL     1       2.799   5.979  18.671  0.00  0.00    +0.000 A 
ATOM      8  C   UNL     1       2.468   5.013  19.612  0.00  0.00    +0.000 A 
ATOM      9  C   UNL     1       1.776   5.421  20.743  0.00  0.00    +0.000 A 
ATOM     10  N   UNL     1       1.407   6.698  20.992  0.00  0.00    +0.000 NA
ATOM     11  C   UNL     1       0.847   9.805  19.227  0.00  0.00    +0.000 C 
ATOM     12  C   UNL     1      -0.584  10.238  19.555  0.00  0.00    +0.000 C 
ENDROOT
BRANCH   7  13
ATOM     13  N   UNL     1       3.543   5.607  17.521  0.00  0.00    +0.000 N 
ATOM     14  C   UNL     1       4.920   5.730  17.390  0.00  0.00    +0.000 C 
ATOM     15  O   UNL     1       5.694   6.178  18.231  0.00  0.00    +0.000 OA
ATOM     16  H   UNL     1       3.023   5.172  16.772  0.00  0.00    +0.000 HD
BRANCH  14  17
ATOM     17  C   UNL     1       5.542   5.281  16.118  0.00  0.00    +0.000 A 
ATOM     18  C   UNL     1       6.911   5.390  15.850  0.00  0.00    +0.000 A 
ATOM     19  C   UNL     1       7.427   4.827  14.678  0.00  0.00    +0.000 A 
ATOM     20  C   UNL     1       6.585   4.161  13.793  0.00  0.00    +0.000 A 
ATOM     21  F   UNL     1       7.100   3.590  12.694  0.00  0.00    +0.000 F 
ATOM     22  C   UNL     1       5.224   4.057  14.038  0.00  0.00    +0.000 A 
ATOM     23  C   UNL     1       4.701   4.621  15.199  0.00  0.00    +0.000 A 
ENDBRANCH  14  17
ENDBRANCH   7  13
BRANCH   1  25
ATOM     24  C   UNL     1      -0.146  12.995  19.869  0.00  0.00    +0.000 C 
ATOM     25  N   UNL     1      -0.004  12.191  21.093  0.00  0.00    +0.000 NA
BRANCH  25  26
ATOM     26  C   UNL     1      -0.516  12.950  22.253  0.00  0.00    +0.000 C 
BRANCH  26  27
ATOM     27  C   UNL     1      -2.024  12.949  22.412  0.00  0.00    +0.000 A 
ATOM     28  C   UNL     1      -2.617  12.642  23.646  0.00  0.00    +0.000 A 
ATOM     29  C   UNL     1      -4.005  12.543  23.761  0.00  0.00    +0.000 A 
ATOM     30  C   UNL     1      -4.814  12.741  22.642  0.00  0.00    +0.000 A 
ATOM     31  C   UNL     1      -4.237  13.052  21.409  0.00  0.00    +0.000 A 
ATOM     32  C   UNL     1      -2.847  13.163  21.296  0.00  0.00    +0.000 A 
BRANCH  31  33
ATOM     33  C   UNL     1      -5.063  13.233  20.252  0.00  0.00    +0.000 C 
ATOM     34  N   UNL     1      -5.728  13.390  19.313  0.00  0.00    +0.000 NA
ENDBRANCH  31  33
ENDBRANCH  26  27
ENDBRANCH  25  26
ENDBRANCH   1  25
TORSDOF 6
ENDMDL
