MODEL 1
REMARK VINA RESULT:      -7.0      0.000      0.000
REMARK  Name = 
REMARK  16 active torsions:
REMARK  status: ('A' for Active; 'I' for Inactive)
REMARK    1  A    between atoms: C_1  and  O_2
REMARK    2  A    between atoms: O_2  and  C_3
REMARK    3  A    between atoms: C_6  and  C_7
REMARK    4  A    between atoms: C_7  and  C_8
REMARK    5  A    between atoms: C_8  and  C_9
REMARK    6  A    between atoms: N_11  and  C_12
REMARK    7  A    between atoms: C_12  and  C_13
REMARK    8  A    between atoms: C_13  and  C_14
REMARK    9  A    between atoms: C_14  and  C_15
REMARK   10  A    between atoms: C_15  and  N_16
REMARK   11  A    between atoms: N_19  and  C_20
REMARK   12  A    between atoms: C_20  and  C_21
REMARK   13  A    between atoms: C_22  and  C_23
REMARK   14  A    between atoms: C_22  and  C_24
REMARK   15  A    between atoms: C_26  and  O_27
REMARK   16  A    between atoms: O_27  and  C_28
REMARK                            x       y       z     vdW  Elec       q    Type
REMARK                         _______ _______ _______ _____ _____    ______ ____
ROOT
ATOM      1  C   UNL     1       2.606   3.676  20.652  0.00  0.00    +0.000 C 
ATOM      2  O   UNL     1       2.054   3.311  21.682  0.00  0.00    +0.000 OA
ATOM      3  N   UNL     1       2.405   4.896  20.065  0.00  0.00    +0.000 N 
ATOM      4  H   UNL     1       2.932   5.149  19.235  0.00  0.00    +0.000 HD
ENDROOT
BRANCH   1   5
ATOM      5  C   UNL     1       3.564   2.782  19.886  0.00  0.00    +0.000 C 
BRANCH   5   6
ATOM      6  C   UNL     1       3.488   2.994  18.367  0.00  0.00    +0.000 C 
BRANCH   6  10
ATOM      7  C   UNL     1       6.613   5.625  16.983  0.00  0.00    +0.000 A 
ATOM      8  C   UNL     1       6.551   5.213  18.324  0.00  0.00    +0.000 A 
ATOM      9  C   UNL     1       5.599   4.298  18.760  0.00  0.00    +0.000 A 
ATOM     10  C   UNL     1       4.672   3.775  17.860  0.00  0.00    +0.000 A 
ATOM     11  C   UNL     1       4.813   4.081  16.503  0.00  0.00    +0.000 A 
ATOM     12  C   UNL     1       5.781   4.994  16.045  0.00  0.00    +0.000 A 
BRANCH   7  14
ATOM     13  C   UNL     1       7.671   7.687  17.502  0.00  0.00    +0.000 C 
ATOM     14  O   UNL     1       7.472   6.615  16.579  0.00  0.00    +0.000 OA
ENDBRANCH   7  14
BRANCH  12  15
ATOM     15  O   UNL     1       5.737   5.120  14.684  0.00  0.00    +0.000 OA
ATOM     16  C   UNL     1       6.487   4.257  13.849  0.00  0.00    +0.000 C 
ENDBRANCH  12  15
ENDBRANCH   6  10
ENDBRANCH   5   6
ENDBRANCH   1   5
BRANCH   3  17
ATOM     17  C   UNL     1       1.613   5.928  20.694  0.00  0.00    +0.000 C 
BRANCH  17  18
ATOM     18  C   UNL     1       1.945   7.306  20.136  0.00  0.00    +0.000 C 
BRANCH  18  19
ATOM     19  C   UNL     1       2.585   7.143  18.768  0.00  0.00    +0.000 C 
BRANCH  19  20
ATOM     20  C   UNL     1       2.581   8.434  17.959  0.00  0.00    +0.000 C 
BRANCH  20  21
ATOM     21  N   UNL     1       1.345   9.150  18.251  0.00  0.00    +0.000 NA
ATOM     22  C   UNL     1       1.310  10.429  18.152  0.00  0.00    +0.000 C 
ATOM     23  N   UNL     1       2.307  11.256  17.762  0.00  0.00    +0.000 N 
ATOM     24  N   UNL     1       0.200  11.139  18.463  0.00  0.00    +0.000 N 
ATOM     25  H   UNL     1       3.241  10.890  17.633  0.00  0.00    +0.000 HD
ATOM     26  H   UNL     1       2.239  12.253  17.895  0.00  0.00    +0.000 HD
ATOM     27  H   UNL     1       0.166  12.124  18.267  0.00  0.00    +0.000 HD
BRANCH  24  28
ATOM     28  C   UNL     1      -0.919  10.606  19.194  0.00  0.00    +0.000 C 
BRANCH  28  29
ATOM     29  C   UNL     1      -1.096  11.425  20.434  0.00  0.00    +0.000 C 
ATOM     30  C   UNL     1      -0.788  11.077  21.700  0.00  0.00    +0.000 C 
ATOM     31  C   UNL     1      -0.118   9.788  22.086  0.00  0.00    +0.000 C 
ATOM     32  C   UNL     1      -1.092  11.999  22.849  0.00  0.00    +0.000 C 
ENDBRANCH  28  29
ENDBRANCH  24  28
ENDBRANCH  20  21
ENDBRANCH  19  20
ENDBRANCH  18  19
ENDBRANCH  17  18
ENDBRANCH   3  17
TORSDOF 12
ENDMDL
MODEL 2
REMARK VINA RESULT:      -7.0      4.589      8.079
REMARK  Name = 
REMARK  16 active torsions:
REMARK  status: ('A' for Active; 'I' for Inactive)
REMARK    1  A    between atoms: C_1  and  O_2
REMARK    2  A    between atoms: O_2  and  C_3
REMARK    3  A    between atoms: C_6  and  C_7
REMARK    4  A    between atoms: C_7  and  C_8
REMARK    5  A    between atoms: C_8  and  C_9
REMARK    6  A    between atoms: N_11  and  C_12
REMARK    7  A    between atoms: C_12  and  C_13
REMARK    8  A    between atoms: C_13  and  C_14
REMARK    9  A    between atoms: C_14  and  C_15
REMARK   10  A    between atoms: C_15  and  N_16
REMARK   11  A    between atoms: N_19  and  C_20
REMARK   12  A    between atoms: C_20  and  C_21
REMARK   13  A    between atoms: C_22  and  C_23
REMARK   14  A    between atoms: C_22  and  C_24
REMARK   15  A    between atoms: C_26  and  O_27
REMARK   16  A    between atoms: O_27  and  C_28
REMARK                            x       y       z     vdW  Elec       q    Type
REMARK                         _______ _______ _______ _____ _____    ______ ____
ROOT
ATOM      1  C   UNL     1       7.903   8.097  17.888  0.00  0.00    +0.000 C 
ATOM      2  O   UNL     1       8.449   7.424  18.754  0.00  0.00    +0.000 OA
ATOM      3  N   UNL     1       7.137   7.575  16.881  0.00  0.00    +0.000 N 
ATOM      4  H   UNL     1       6.676   8.196  16.224  0.00  0.00    +0.000 HD
ENDROOT
BRANCH   1   5
ATOM      5  C   UNL     1       8.047   9.606  17.824  0.00  0.00    +0.000 C 
BRANCH   5   6
ATOM      6  C   UNL     1       9.325  10.109  18.510  0.00  0.00    +0.000 C 
BRANCH   6  10
ATOM      7  C   UNL     1      10.321  14.267  17.931  0.00  0.00    +0.000 A 
ATOM      8  C   UNL     1      11.219  13.247  17.572  0.00  0.00    +0.000 A 
ATOM      9  C   UNL     1      10.872  11.905  17.674  0.00  0.00    +0.000 A 
ATOM     10  C   UNL     1       9.613  11.544  18.152  0.00  0.00    +0.000 A 
ATOM     11  C   UNL     1       8.674  12.554  18.385  0.00  0.00    +0.000 A 
ATOM     12  C   UNL     1       9.005  13.916  18.271  0.00  0.00    +0.000 A 
BRANCH   7  14
ATOM     13  C   UNL     1      11.164  16.115  16.699  0.00  0.00    +0.000 C 
ATOM     14  O   UNL     1      10.704  15.584  17.943  0.00  0.00    +0.000 OA
ENDBRANCH   7  14
BRANCH  12  15
ATOM     15  O   UNL     1       7.924  14.711  18.532  0.00  0.00    +0.000 OA
ATOM     16  C   UNL     1       6.742  14.610  17.758  0.00  0.00    +0.000 C 
ENDBRANCH  12  15
ENDBRANCH   6  10
ENDBRANCH   5   6
ENDBRANCH   1   5
BRANCH   3  17
ATOM     17  C   UNL     1       6.792   6.173  16.828  0.00  0.00    +0.000 C 
BRANCH  17  18
ATOM     18  C   UNL     1       5.774   5.888  15.730  0.00  0.00    +0.000 C 
BRANCH  18  19
ATOM     19  C   UNL     1       5.092   4.562  16.023  0.00  0.00    +0.000 C 
BRANCH  19  20
ATOM     20  C   UNL     1       5.457   4.003  17.392  0.00  0.00    +0.000 C 
BRANCH  20  21
ATOM     21  N   UNL     1       4.283   4.097  18.250  0.00  0.00    +0.000 NA
ATOM     22  C   UNL     1       4.221   3.399  19.326  0.00  0.00    +0.000 C 
ATOM     23  N   UNL     1       5.159   2.560  19.823  0.00  0.00    +0.000 N 
ATOM     24  N   UNL     1       3.129   3.416  20.125  0.00  0.00    +0.000 N 
ATOM     25  H   UNL     1       5.972   2.332  19.267  0.00  0.00    +0.000 HD
ATOM     26  H   UNL     1       4.941   1.921  20.570  0.00  0.00    +0.000 HD
ATOM     27  H   UNL     1       3.154   2.950  21.015  0.00  0.00    +0.000 HD
BRANCH  24  28
ATOM     28  C   UNL     1       1.851   3.952  19.735  0.00  0.00    +0.000 C 
BRANCH  28  29
ATOM     29  C   UNL     1       1.668   5.267  20.425  0.00  0.00    +0.000 C 
ATOM     30  C   UNL     1       1.927   6.496  19.934  0.00  0.00    +0.000 C 
ATOM     31  C   UNL     1       2.390   6.769  18.531  0.00  0.00    +0.000 C 
ATOM     32  C   UNL     1       1.747   7.721  20.788  0.00  0.00    +0.000 C 
ENDBRANCH  28  29
ENDBRANCH  24  28
ENDBRANCH  20  21
ENDBRANCH  19  20
ENDBRANCH  18  19
ENDBRANCH  17  18
ENDBRANCH   3  17
TORSDOF 12
ENDMDL
MODEL 3
REMARK VINA RESULT:      -6.8      3.055      8.604
REMARK  Name = 
REMARK  16 active torsions:
REMARK  status: ('A' for Active; 'I' for Inactive)
REMARK    1  A    between atoms: C_1  and  O_2
REMARK    2  A    between atoms: O_2  and  C_3
REMARK    3  A    between atoms: C_6  and  C_7
REMARK    4  A    between atoms: C_7  and  C_8
REMARK    5  A    between atoms: C_8  and  C_9
REMARK    6  A    between atoms: N_11  and  C_12
REMARK    7  A    between atoms: C_12  and  C_13
REMARK    8  A    between atoms: C_13  and  C_14
REMARK    9  A    between atoms: C_14  and  C_15
REMARK   10  A    between atoms: C_15  and  N_16
REMARK   11  A    between atoms: N_19  and  C_20
REMARK   12  A    between atoms: C_20  and  C_21
REMARK   13  A    between atoms: C_22  and  C_23
REMARK   14  A    between atoms: C_22  and  C_24
REMARK   15  A    between atoms: C_26  and  O_27
REMARK   16  A    between atoms: O_27  and  C_28
REMARK                            x       y       z     vdW  Elec       q    Type
REMARK                         _______ _______ _______ _____ _____    ______ ____
ROOT
ATOM      1  C   UNL     1       2.469   7.178  18.693  0.00  0.00    +0.000 C 
ATOM      2  O   UNL     1       2.606   6.424  17.738  0.00  0.00    +0.000 OA
ATOM      3  N   UNL     1       2.346   6.758  19.990  0.00  0.00    +0.000 N 
ATOM      4  H   UNL     1       2.281   7.442  20.737  0.00  0.00    +0.000 HD
ENDROOT
BRANCH   1   5
ATOM      5  C   UNL     1       2.389   8.685  18.530  0.00  0.00    +0.000 C 
BRANCH   5   6
ATOM      6  C   UNL     1       1.090   9.140  17.849  0.00  0.00    +0.000 C 
BRANCH   6  10
ATOM      7  C   UNL     1      -1.241  11.596  20.522  0.00  0.00    +0.000 A 
ATOM      8  C   UNL     1      -1.632  11.400  19.187  0.00  0.00    +0.000 A 
ATOM      9  C   UNL     1      -0.936  10.542  18.344  0.00  0.00    +0.000 A 
ATOM     10  C   UNL     1       0.186   9.860  18.815  0.00  0.00    +0.000 A 
ATOM     11  C   UNL     1       0.500   9.952  20.174  0.00  0.00    +0.000 A 
ATOM     12  C   UNL     1      -0.206  10.804  21.043  0.00  0.00    +0.000 A 
BRANCH   7  14
ATOM     13  C   UNL     1      -2.597  13.543  20.634  0.00  0.00    +0.000 C 
ATOM     14  O   UNL     1      -1.855  12.531  21.316  0.00  0.00    +0.000 OA
ENDBRANCH   7  14
BRANCH  12  15
ATOM     15  O   UNL     1       0.272  10.713  22.321  0.00  0.00    +0.000 OA
ATOM     16  C   UNL     1      -0.239   9.746  23.221  0.00  0.00    +0.000 C 
ENDBRANCH  12  15
ENDBRANCH   6  10
ENDBRANCH   5   6
ENDBRANCH   1   5
BRANCH   3  17
ATOM     17  C   UNL     1       2.503   5.372  20.366  0.00  0.00    +0.000 C 
BRANCH  17  18
ATOM     18  C   UNL     1       1.170   4.634  20.353  0.00  0.00    +0.000 C 
BRANCH  18  19
ATOM     19  C   UNL     1       1.433   3.145  20.203  0.00  0.00    +0.000 C 
BRANCH  19  20
ATOM     20  C   UNL     1       1.354   2.676  18.756  0.00  0.00    +0.000 C 
BRANCH  20  21
ATOM     21  N   UNL     1       2.539   3.156  18.056  0.00  0.00    +0.000 NA
ATOM     22  C   UNL     1       3.566   2.394  17.943  0.00  0.00    +0.000 C 
ATOM     23  N   UNL     1       3.704   1.121  18.381  0.00  0.00    +0.000 N 
ATOM     24  N   UNL     1       4.705   2.816  17.348  0.00  0.00    +0.000 N 
ATOM     25  H   UNL     1       2.991   0.714  18.971  0.00  0.00    +0.000 HD
ATOM     26  H   UNL     1       4.607   0.676  18.409  0.00  0.00    +0.000 HD
ATOM     27  H   UNL     1       5.450   2.164  17.173  0.00  0.00    +0.000 HD
BRANCH  24  28
ATOM     28  C   UNL     1       4.999   4.194  17.054  0.00  0.00    +0.000 C 
BRANCH  28  29
ATOM     29  C   UNL     1       6.104   4.638  17.960  0.00  0.00    +0.000 C 
ATOM     30  C   UNL     1       6.709   5.843  17.991  0.00  0.00    +0.000 C 
ATOM     31  C   UNL     1       6.310   7.014  17.138  0.00  0.00    +0.000 C 
ATOM     32  C   UNL     1       7.856   6.107  18.928  0.00  0.00    +0.000 C 
ENDBRANCH  28  29
ENDBRANCH  24  28
ENDBRANCH  20  21
ENDBRANCH  19  20
ENDBRANCH  18  19
ENDBRANCH  17  18
ENDBRANCH   3  17
TORSDOF 12
ENDMDL
MODEL 4
REMARK VINA RESULT:      -6.7      2.286      3.531
REMARK  Name = 
REMARK  16 active torsions:
REMARK  status: ('A' for Active; 'I' for Inactive)
REMARK    1  A    between atoms: C_1  and  O_2
REMARK    2  A    between atoms: O_2  and  C_3
REMARK    3  A    between atoms: C_6  and  C_7
REMARK    4  A    between atoms: C_7  and  C_8
REMARK    5  A    between atoms: C_8  and  C_9
REMARK    6  A    between atoms: N_11  and  C_12
REMARK    7  A    between atoms: C_12  and  C_13
REMARK    8  A    between atoms: C_13  and  C_14
REMARK    9  A    between atoms: C_14  and  C_15
REMARK   10  A    between atoms: C_15  and  N_16
REMARK   11  A    between atoms: N_19  and  C_20
REMARK   12  A    between atoms: C_20  and  C_21
REMARK   13  A    between atoms: C_22  and  C_23
REMARK   14  A    between atoms: C_22  and  C_24
REMARK   15  A    between atoms: C_26  and  O_27
REMARK   16  A    between atoms: O_27  and  C_28
REMARK                            x       y       z     vdW  Elec       q    Type
REMARK                         _______ _______ _______ _____ _____    ______ ____
ROOT
ATOM      1  C   UNL     1       2.362   6.014  18.736  0.00  0.00    +0.000 C 
ATOM      2  O   UNL     1       2.482   6.160  19.946  0.00  0.00    +0.000 OA
ATOM      3  N   UNL     1       2.237   7.046  17.847  0.00  0.00    +0.000 N 
ATOM      4  H   UNL     1       2.187   6.852  16.852  0.00  0.00    +0.000 HD
ENDROOT
BRANCH   1   5
ATOM      5  C   UNL     1       2.306   4.642  18.089  0.00  0.00    +0.000 C 
BRANCH   5   6
ATOM      6  C   UNL     1       3.535   3.782  18.414  0.00  0.00    +0.000 C 
BRANCH   6  10
ATOM      7  C   UNL     1       6.943   6.165  17.268  0.00  0.00    +0.000 A 
ATOM      8  C   UNL     1       6.704   5.838  18.614  0.00  0.00    +0.000 A 
ATOM      9  C   UNL     1       5.658   4.999  18.982  0.00  0.00    +0.000 A 
ATOM     10  C   UNL     1       4.812   4.471  18.009  0.00  0.00    +0.000 A 
ATOM     11  C   UNL     1       5.126   4.688  16.663  0.00  0.00    +0.000 A 
ATOM     12  C   UNL     1       6.190   5.522  16.275  0.00  0.00    +0.000 A 
BRANCH   7  14
ATOM     13  C   UNL     1       7.887   8.312  17.648  0.00  0.00    +0.000 C 
ATOM     14  O   UNL     1       7.898   7.085  16.917  0.00  0.00    +0.000 OA
ENDBRANCH   7  14
BRANCH  12  15
ATOM     15  O   UNL     1       6.310   5.569  14.913  0.00  0.00    +0.000 OA
ATOM     16  C   UNL     1       6.206   4.391  14.133  0.00  0.00    +0.000 C 
ENDBRANCH  12  15
ENDBRANCH   6  10
ENDBRANCH   5   6
ENDBRANCH   1   5
BRANCH   3  17
ATOM     17  C   UNL     1       2.373   8.427  18.252  0.00  0.00    +0.000 C 
BRANCH  17  18
ATOM     18  C   UNL     1       1.149   9.247  17.863  0.00  0.00    +0.000 C 
BRANCH  18  19
ATOM     19  C   UNL     1       1.112  10.508  18.709  0.00  0.00    +0.000 C 
BRANCH  19  20
ATOM     20  C   UNL     1      -0.048  10.520  19.696  0.00  0.00    +0.000 C 
BRANCH  20  21
ATOM     21  N   UNL     1      -1.276  10.767  18.951  0.00  0.00    +0.000 NA
ATOM     22  C   UNL     1      -1.612  11.969  18.653  0.00  0.00    +0.000 C 
ATOM     23  N   UNL     1      -0.933  13.108  18.920  0.00  0.00    +0.000 N 
ATOM     24  N   UNL     1      -2.769  12.248  18.009  0.00  0.00    +0.000 N 
ATOM     25  H   UNL     1      -0.120  13.078  19.520  0.00  0.00    +0.000 HD
ATOM     26  H   UNL     1      -1.367  14.011  18.810  0.00  0.00    +0.000 HD
ATOM     27  H   UNL     1      -2.950  13.183  17.689  0.00  0.00    +0.000 HD
BRANCH  24  28
ATOM     28  C   UNL     1      -3.853  11.313  17.856  0.00  0.00    +0.000 C 
BRANCH  28  29
ATOM     29  C   UNL     1      -4.065  11.081  16.393  0.00  0.00    +0.000 C 
ATOM     30  C   UNL     1      -3.360  10.268  15.579  0.00  0.00    +0.000 C 
ATOM     31  C   UNL     1      -2.248   9.366  16.037  0.00  0.00    +0.000 C 
ATOM     32  C   UNL     1      -3.664  10.198  14.108  0.00  0.00    +0.000 C 
ENDBRANCH  28  29
ENDBRANCH  24  28
ENDBRANCH  20  21
ENDBRANCH  19  20
ENDBRANCH  18  19
ENDBRANCH  17  18
ENDBRANCH   3  17
TORSDOF 12
ENDMDL
MODEL 5
REMARK VINA RESULT:      -6.6      3.413      8.968
REMARK  Name = 
REMARK  16 active torsions:
REMARK  status: ('A' for Active; 'I' for Inactive)
REMARK    1  A    between atoms: C_1  and  O_2
REMARK    2  A    between atoms: O_2  and  C_3
REMARK    3  A    between atoms: C_6  and  C_7
REMARK    4  A    between atoms: C_7  and  C_8
REMARK    5  A    between atoms: C_8  and  C_9
REMARK    6  A    between atoms: N_11  and  C_12
REMARK    7  A    between atoms: C_12  and  C_13
REMARK    8  A    between atoms: C_13  and  C_14
REMARK    9  A    between atoms: C_14  and  C_15
REMARK   10  A    between atoms: C_15  and  N_16
REMARK   11  A    between atoms: N_19  and  C_20
REMARK   12  A    between atoms: C_20  and  C_21
REMARK   13  A    between atoms: C_22  and  C_23
REMARK   14  A    between atoms: C_22  and  C_24
REMARK   15  A    between atoms: C_26  and  O_27
REMARK   16  A    between atoms: O_27  and  C_28
REMARK                            x       y       z     vdW  Elec       q    Type
REMARK                         _______ _______ _______ _____ _____    ______ ____
ROOT
ATOM      1  C   UNL     1       2.195   5.851  18.841  0.00  0.00    +0.000 C 
ATOM      2  O   UNL     1       1.910   5.650  17.667  0.00  0.00    +0.000 OA
ATOM      3  N   UNL     1       2.431   4.859  19.754  0.00  0.00    +0.000 N 
ATOM      4  H   UNL     1       2.708   5.100  20.700  0.00  0.00    +0.000 HD
ENDROOT
BRANCH   1   5
ATOM      5  C   UNL     1       2.288   7.249  19.424  0.00  0.00    +0.000 C 
BRANCH   5   6
ATOM      6  C   UNL     1       1.702   7.342  20.840  0.00  0.00    +0.000 C 
BRANCH   6  10
ATOM      7  C   UNL     1      -0.503  10.993  21.484  0.00  0.00    +0.000 A 
ATOM      8  C   UNL     1      -0.143  10.162  22.559  0.00  0.00    +0.000 A 
ATOM      9  C   UNL     1       0.642   9.030  22.370  0.00  0.00    +0.000 A 
ATOM     10  C   UNL     1       1.080   8.691  21.090  0.00  0.00    +0.000 A 
ATOM     11  C   UNL     1       0.834   9.584  20.042  0.00  0.00    +0.000 A 
ATOM     12  C   UNL     1       0.055  10.741  20.222  0.00  0.00    +0.000 A 
BRANCH   7  14
ATOM     13  C   UNL     1      -0.969  13.049  22.579  0.00  0.00    +0.000 C 
ATOM     14  O   UNL     1      -1.374  12.040  21.653  0.00  0.00    +0.000 OA
ENDBRANCH   7  14
BRANCH  12  15
ATOM     15  O   UNL     1      -0.034  11.462  19.063  0.00  0.00    +0.000 OA
ATOM     16  C   UNL     1      -1.230  11.475  18.304  0.00  0.00    +0.000 C 
ENDBRANCH  12  15
ENDBRANCH   6  10
ENDBRANCH   5   6
ENDBRANCH   1   5
BRANCH   3  17
ATOM     17  C   UNL     1       2.496   3.466  19.374  0.00  0.00    +0.000 C 
BRANCH  17  18
ATOM     18  C   UNL     1       3.730   3.172  18.532  0.00  0.00    +0.000 C 
BRANCH  18  19
ATOM     19  C   UNL     1       4.971   3.410  19.376  0.00  0.00    +0.000 C 
BRANCH  19  20
ATOM     20  C   UNL     1       5.693   4.700  19.009  0.00  0.00    +0.000 C 
BRANCH  20  21
ATOM     21  N   UNL     1       5.901   4.710  17.566  0.00  0.00    +0.000 NA
ATOM     22  C   UNL     1       7.077   4.514  17.089  0.00  0.00    +0.000 C 
ATOM     23  N   UNL     1       8.215   4.254  17.773  0.00  0.00    +0.000 N 
ATOM     24  N   UNL     1       7.325   4.566  15.760  0.00  0.00    +0.000 N 
ATOM     25  H   UNL     1       8.219   4.323  18.782  0.00  0.00    +0.000 HD
ATOM     26  H   UNL     1       9.115   4.300  17.323  0.00  0.00    +0.000 HD
ATOM     27  H   UNL     1       8.228   4.298  15.409  0.00  0.00    +0.000 HD
BRANCH  24  28
ATOM     28  C   UNL     1       6.416   5.118  14.790  0.00  0.00    +0.000 C 
BRANCH  28  29
ATOM     29  C   UNL     1       5.924   4.001  13.925  0.00  0.00    +0.000 C 
ATOM     30  C   UNL     1       6.282   3.727  12.653  0.00  0.00    +0.000 C 
ATOM     31  C   UNL     1       7.331   4.482  11.886  0.00  0.00    +0.000 C 
ATOM     32  C   UNL     1       5.640   2.596  11.898  0.00  0.00    +0.000 C 
ENDBRANCH  28  29
ENDBRANCH  24  28
ENDBRANCH  20  21
ENDBRANCH  19  20
ENDBRANCH  18  19
ENDBRANCH  17  18
ENDBRANCH   3  17
TORSDOF 12
ENDMDL
MODEL 6
REMARK VINA RESULT:      -6.5      3.962      9.700
REMARK  Name = 
REMARK  16 active torsions:
REMARK  status: ('A' for Active; 'I' for Inactive)
REMARK    1  A    between atoms: C_1  and  O_2
REMARK    2  A    between atoms: O_2  and  C_3
REMARK    3  A    between atoms: C_6  and  C_7
REMARK    4  A    between atoms: C_7  and  C_8
REMARK    5  A    between atoms: C_8  and  C_9
REMARK    6  A    between atoms: N_11  and  C_12
REMARK    7  A    between atoms: C_12  and  C_13
REMARK    8  A    between atoms: C_13  and  C_14
REMARK    9  A    between atoms: C_14  and  C_15
REMARK   10  A    between atoms: C_15  and  N_16
REMARK   11  A    between atoms: N_19  and  C_20
REMARK   12  A    between atoms: C_20  and  C_21
REMARK   13  A    between atoms: C_22  and  C_23
REMARK   14  A    between atoms: C_22  and  C_24
REMARK   15  A    between atoms: C_26  and  O_27
REMARK   16  A    between atoms: O_27  and  C_28
REMARK                            x       y       z     vdW  Elec       q    Type
REMARK                         _______ _______ _______ _____ _____    ______ ____
ROOT
ATOM      1  C   UNL     1       1.458  10.320  18.749  0.00  0.00    +0.000 C 
ATOM      2  O   UNL     1       2.176  11.055  18.083  0.00  0.00    +0.000 OA
ATOM      3  N   UNL     1       1.418   8.959  18.612  0.00  0.00    +0.000 N 
ATOM      4  H   UNL     1       0.832   8.407  19.230  0.00  0.00    +0.000 HD
ENDROOT
BRANCH   1   5
ATOM      5  C   UNL     1       0.497  10.856  19.794  0.00  0.00    +0.000 C 
BRANCH   5   6
ATOM      6  C   UNL     1      -0.076  12.231  19.423  0.00  0.00    +0.000 C 
BRANCH   6  10
ATOM      7  C   UNL     1      -4.002  11.421  17.829  0.00  0.00    +0.000 A 
ATOM      8  C   UNL     1      -3.830  11.851  19.156  0.00  0.00    +0.000 A 
ATOM      9  C   UNL     1      -2.578  12.197  19.651  0.00  0.00    +0.000 A 
ATOM     10  C   UNL     1      -1.455  12.111  18.829  0.00  0.00    +0.000 A 
ATOM     11  C   UNL     1      -1.640  11.811  17.476  0.00  0.00    +0.000 A 
ATOM     12  C   UNL     1      -2.903  11.474  16.957  0.00  0.00    +0.000 A 
BRANCH   7  14
ATOM     13  C   UNL     1      -6.236  10.818  18.365  0.00  0.00    +0.000 C 
ATOM     14  O   UNL     1      -5.215  10.967  17.378  0.00  0.00    +0.000 OA
ENDBRANCH   7  14
BRANCH  12  15
ATOM     15  O   UNL     1      -2.838  11.235  15.612  0.00  0.00    +0.000 OA
ATOM     16  C   UNL     1      -3.033   9.931  15.094  0.00  0.00    +0.000 C 
ENDBRANCH  12  15
ENDBRANCH   6  10
ENDBRANCH   5   6
ENDBRANCH   1   5
BRANCH   3  17
ATOM     17  C   UNL     1       2.332   8.247  17.748  0.00  0.00    +0.000 C 
BRANCH  17  18
ATOM     18  C   UNL     1       3.003   7.089  18.474  0.00  0.00    +0.000 C 
BRANCH  18  19
ATOM     19  C   UNL     1       2.216   5.817  18.206  0.00  0.00    +0.000 C 
BRANCH  19  20
ATOM     20  C   UNL     1       2.923   4.569  18.718  0.00  0.00    +0.000 C 
BRANCH  20  21
ATOM     21  N   UNL     1       4.307   4.612  18.264  0.00  0.00    +0.000 NA
ATOM     22  C   UNL     1       5.176   3.826  18.789  0.00  0.00    +0.000 C 
ATOM     23  N   UNL     1       4.973   2.885  19.740  0.00  0.00    +0.000 N 
ATOM     24  N   UNL     1       6.482   3.868  18.435  0.00  0.00    +0.000 N 
ATOM     25  H   UNL     1       4.078   2.831  20.208  0.00  0.00    +0.000 HD
ATOM     26  H   UNL     1       5.747   2.452  20.217  0.00  0.00    +0.000 HD
ATOM     27  H   UNL     1       7.115   3.167  18.779  0.00  0.00    +0.000 HD
BRANCH  24  28
ATOM     28  C   UNL     1       7.082   4.943  17.691  0.00  0.00    +0.000 C 
BRANCH  28  29
ATOM     29  C   UNL     1       7.122   4.546  16.249  0.00  0.00    +0.000 C 
ATOM     30  C   UNL     1       6.325   4.983  15.253  0.00  0.00    +0.000 C 
ATOM     31  C   UNL     1       5.269   6.042  15.414  0.00  0.00    +0.000 C 
ATOM     32  C   UNL     1       6.455   4.430  13.861  0.00  0.00    +0.000 C 
ENDBRANCH  28  29
ENDBRANCH  24  28
ENDBRANCH  20  21
ENDBRANCH  19  20
ENDBRANCH  18  19
ENDBRANCH  17  18
ENDBRANCH   3  17
TORSDOF 12
ENDMDL
MODEL 7
REMARK VINA RESULT:      -6.4      4.356      9.067
REMARK  Name = 
REMARK  16 active torsions:
REMARK  status: ('A' for Active; 'I' for Inactive)
REMARK    1  A    between atoms: C_1  and  O_2
REMARK    2  A    between atoms: O_2  and  C_3
REMARK    3  A    between atoms: C_6  and  C_7
REMARK    4  A    between atoms: C_7  and  C_8
REMARK    5  A    between atoms: C_8  and  C_9
REMARK    6  A    between atoms: N_11  and  C_12
REMARK    7  A    between atoms: C_12  and  C_13
REMARK    8  A    between atoms: C_13  and  C_14
REMARK    9  A    between atoms: C_14  and  C_15
REMARK   10  A    between atoms: C_15  and  N_16
REMARK   11  A    between atoms: N_19  and  C_20
REMARK   12  A    between atoms: C_20  and  C_21
REMARK   13  A    between atoms: C_22  and  C_23
REMARK   14  A    between atoms: C_22  and  C_24
REMARK   15  A    between atoms: C_26  and  O_27
REMARK   16  A    between atoms: O_27  and  C_28
REMARK                            x       y       z     vdW  Elec       q    Type
REMARK                         _______ _______ _______ _____ _____    ______ ____
ROOT
ATOM      1  C   UNL     1       0.800   9.650  19.818  0.00  0.00    +0.000 C 
ATOM      2  O   UNL     1       1.598  10.474  19.388  0.00  0.00    +0.000 OA
ATOM      3  N   UNL     1       1.066   8.313  19.935  0.00  0.00    +0.000 N 
ATOM      4  H   UNL     1       0.373   7.694  20.343  0.00  0.00    +0.000 HD
ENDROOT
BRANCH   1   5
ATOM      5  C   UNL     1      -0.605  10.031  20.247  0.00  0.00    +0.000 C 
BRANCH   5   6
ATOM      6  C   UNL     1      -1.134  11.271  19.512  0.00  0.00    +0.000 C 
BRANCH   6  10
ATOM      7  C   UNL     1      -3.517  10.516  15.995  0.00  0.00    +0.000 A 
ATOM      8  C   UNL     1      -2.346   9.783  16.251  0.00  0.00    +0.000 A 
ATOM      9  C   UNL     1      -1.620   9.959  17.424  0.00  0.00    +0.000 A 
ATOM     10  C   UNL     1      -2.044  10.888  18.373  0.00  0.00    +0.000 A 
ATOM     11  C   UNL     1      -3.275  11.523  18.182  0.00  0.00    +0.000 A 
ATOM     12  C   UNL     1      -4.028  11.343  17.008  0.00  0.00    +0.000 A 
BRANCH   7  14
ATOM     13  C   UNL     1      -3.367  10.018  13.678  0.00  0.00    +0.000 C 
ATOM     14  O   UNL     1      -4.165  10.429  14.789  0.00  0.00    +0.000 OA
ENDBRANCH   7  14
BRANCH  12  15
ATOM     15  O   UNL     1      -5.197  12.052  17.056  0.00  0.00    +0.000 OA
ATOM     16  C   UNL     1      -6.300  11.584  17.811  0.00  0.00    +0.000 C 
ENDBRANCH  12  15
ENDBRANCH   6  10
ENDBRANCH   5   6
ENDBRANCH   1   5
BRANCH   3  17
ATOM     17  C   UNL     1       2.380   7.767  19.679  0.00  0.00    +0.000 C 
BRANCH  17  18
ATOM     18  C   UNL     1       2.519   7.294  18.238  0.00  0.00    +0.000 C 
BRANCH  18  19
ATOM     19  C   UNL     1       3.996   7.186  17.896  0.00  0.00    +0.000 C 
BRANCH  19  20
ATOM     20  C   UNL     1       4.281   6.115  16.852  0.00  0.00    +0.000 C 
BRANCH  20  21
ATOM     21  N   UNL     1       3.770   4.845  17.351  0.00  0.00    +0.000 NA
ATOM     22  C   UNL     1       4.564   3.845  17.484  0.00  0.00    +0.000 C 
ATOM     23  N   UNL     1       5.895   3.807  17.242  0.00  0.00    +0.000 N 
ATOM     24  N   UNL     1       4.122   2.633  17.894  0.00  0.00    +0.000 N 
ATOM     25  H   UNL     1       6.345   4.595  16.795  0.00  0.00    +0.000 HD
ATOM     26  H   UNL     1       6.391   2.932  17.199  0.00  0.00    +0.000 HD
ATOM     27  H   UNL     1       4.783   1.904  18.098  0.00  0.00    +0.000 HD
BRANCH  24  28
ATOM     28  C   UNL     1       2.735   2.252  17.937  0.00  0.00    +0.000 C 
BRANCH  28  29
ATOM     29  C   UNL     1       2.358   2.030  19.368  0.00  0.00    +0.000 C 
ATOM     30  C   UNL     1       1.728   2.889  20.195  0.00  0.00    +0.000 C 
ATOM     31  C   UNL     1       1.212   4.239  19.783  0.00  0.00    +0.000 C 
ATOM     32  C   UNL     1       1.479   2.532  21.634  0.00  0.00    +0.000 C 
ENDBRANCH  28  29
ENDBRANCH  24  28
ENDBRANCH  20  21
ENDBRANCH  19  20
ENDBRANCH  18  19
ENDBRANCH  17  18
ENDBRANCH   3  17
TORSDOF 12
ENDMDL
MODEL 8
REMARK VINA RESULT:      -6.4      3.544      8.690
REMARK  Name = 
REMARK  16 active torsions:
REMARK  status: ('A' for Active; 'I' for Inactive)
REMARK    1  A    between atoms: C_1  and  O_2
REMARK    2  A    between atoms: O_2  and  C_3
REMARK    3  A    between atoms: C_6  and  C_7
REMARK    4  A    between atoms: C_7  and  C_8
REMARK    5  A    between atoms: C_8  and  C_9
REMARK    6  A    between atoms: N_11  and  C_12
REMARK    7  A    between atoms: C_12  and  C_13
REMARK    8  A    between atoms: C_13  and  C_14
REMARK    9  A    between atoms: C_14  and  C_15
REMARK   10  A    between atoms: C_15  and  N_16
REMARK   11  A    between atoms: N_19  and  C_20
REMARK   12  A    between atoms: C_20  and  C_21
REMARK   13  A    between atoms: C_22  and  C_23
REMARK   14  A    between atoms: C_22  and  C_24
REMARK   15  A    between atoms: C_26  and  O_27
REMARK   16  A    between atoms: O_27  and  C_28
REMARK                            x       y       z     vdW  Elec       q    Type
REMARK                         _______ _______ _______ _____ _____    ______ ____
ROOT
ATOM      1  C   UNL     1       2.319   5.614  18.563  0.00  0.00    +0.000 C 
ATOM      2  O   UNL     1       1.912   5.411  19.700  0.00  0.00    +0.000 OA
ATOM      3  N   UNL     1       3.181   4.785  17.897  0.00  0.00    +0.000 N 
ATOM      4  H   UNL     1       3.441   4.993  16.939  0.00  0.00    +0.000 HD
ENDROOT
BRANCH   1   5
ATOM      5  C   UNL     1       1.927   6.848  17.771  0.00  0.00    +0.000 C 
BRANCH   5   6
ATOM      6  C   UNL     1       2.791   8.071  18.113  0.00  0.00    +0.000 C 
BRANCH   6  10
ATOM      7  C   UNL     1       0.122  11.025  19.774  0.00  0.00    +0.000 A 
ATOM      8  C   UNL     1       0.211   9.735  20.323  0.00  0.00    +0.000 A 
ATOM      9  C   UNL     1       1.130   8.805  19.849  0.00  0.00    +0.000 A 
ATOM     10  C   UNL     1       1.983   9.141  18.799  0.00  0.00    +0.000 A 
ATOM     11  C   UNL     1       1.987  10.462  18.339  0.00  0.00    +0.000 A 
ATOM     12  C   UNL     1       1.074  11.418  18.820  0.00  0.00    +0.000 A 
BRANCH   7  14
ATOM     13  C   UNL     1      -2.077  11.845  19.412  0.00  0.00    +0.000 C 
ATOM     14  O   UNL     1      -0.862  11.899  20.160  0.00  0.00    +0.000 OA
ENDBRANCH   7  14
BRANCH  12  15
ATOM     15  O   UNL     1       1.280  12.637  18.235  0.00  0.00    +0.000 OA
ATOM     16  C   UNL     1       2.560  13.242  18.246  0.00  0.00    +0.000 C 
ENDBRANCH  12  15
ENDBRANCH   6  10
ENDBRANCH   5   6
ENDBRANCH   1   5
BRANCH   3  17
ATOM     17  C   UNL     1       3.587   3.508  18.437  0.00  0.00    +0.000 C 
BRANCH  17  18
ATOM     18  C   UNL     1       4.761   3.653  19.396  0.00  0.00    +0.000 C 
BRANCH  18  19
ATOM     19  C   UNL     1       5.516   4.928  19.062  0.00  0.00    +0.000 C 
BRANCH  19  20
ATOM     20  C   UNL     1       6.814   4.664  18.312  0.00  0.00    +0.000 C 
BRANCH  20  21
ATOM     21  N   UNL     1       6.501   4.522  16.895  0.00  0.00    +0.000 NA
ATOM     22  C   UNL     1       6.874   5.427  16.065  0.00  0.00    +0.000 C 
ATOM     23  N   UNL     1       7.587   6.547  16.327  0.00  0.00    +0.000 N 
ATOM     24  N   UNL     1       6.560   5.362  14.750  0.00  0.00    +0.000 N 
ATOM     25  H   UNL     1       7.775   6.808  17.285  0.00  0.00    +0.000 HD
ATOM     26  H   UNL     1       7.670   7.283  15.644  0.00  0.00    +0.000 HD
ATOM     27  H   UNL     1       6.961   6.023  14.107  0.00  0.00    +0.000 HD
BRANCH  24  28
ATOM     28  C   UNL     1       5.564   4.480  14.201  0.00  0.00    +0.000 C 
BRANCH  28  29
ATOM     29  C   UNL     1       6.241   3.557  13.237  0.00  0.00    +0.000 C 
ATOM     30  C   UNL     1       5.723   3.011  12.118  0.00  0.00    +0.000 C 
ATOM     31  C   UNL     1       4.348   3.309  11.588  0.00  0.00    +0.000 C 
ATOM     32  C   UNL     1       6.523   2.045  11.289  0.00  0.00    +0.000 C 
ENDBRANCH  28  29
ENDBRANCH  24  28
ENDBRANCH  20  21
ENDBRANCH  19  20
ENDBRANCH  18  19
ENDBRANCH  17  18
ENDBRANCH   3  17
TORSDOF 12
ENDMDL
MODEL 9
REMARK VINA RESULT:      -6.4      3.789      8.990
REMARK  Name = 
REMARK  16 active torsions:
REMARK  status: ('A' for Active; 'I' for Inactive)
REMARK    1  A    between atoms: C_1  and  O_2
REMARK    2  A    between atoms: O_2  and  C_3
REMARK    3  A    between atoms: C_6  and  C_7
REMARK    4  A    between atoms: C_7  and  C_8
REMARK    5  A    between atoms: C_8  and  C_9
REMARK    6  A    between atoms: N_11  and  C_12
REMARK    7  A    between atoms: C_12  and  C_13
REMARK    8  A    between atoms: C_13  and  C_14
REMARK    9  A    between atoms: C_14  and  C_15
REMARK   10  A    between atoms: C_15  and  N_16
REMARK   11  A    between atoms: N_19  and  C_20
REMARK   12  A    between atoms: C_20  and  C_21
REMARK   13  A    between atoms: C_22  and  C_23
REMARK   14  A    between atoms: C_22  and  C_24
REMARK   15  A    between atoms: C_26  and  O_27
REMARK   16  A    between atoms: O_27  and  C_28
REMARK                            x       y       z     vdW  Elec       q    Type
REMARK                         _______ _______ _______ _____ _____    ______ ____
ROOT
ATOM      1  C   UNL     1       2.140   8.514  18.428  0.00  0.00    +0.000 C 
ATOM      2  O   UNL     1       1.951   8.263  19.612  0.00  0.00    +0.000 OA
ATOM      3  N   UNL     1       2.972   7.793  17.614  0.00  0.00    +0.000 N 
ATOM      4  H   UNL     1       3.045   8.031  16.631  0.00  0.00    +0.000 HD
ENDROOT
BRANCH   1   5
ATOM      5  C   UNL     1       1.482   9.694  17.735  0.00  0.00    +0.000 C 
BRANCH   5   6
ATOM      6  C   UNL     1       0.931  10.730  18.725  0.00  0.00    +0.000 C 
BRANCH   6  10
ATOM      7  C   UNL     1      -3.350  11.077  18.321  0.00  0.00    +0.000 A 
ATOM      8  C   UNL     1      -2.647  10.016  17.725  0.00  0.00    +0.000 A 
ATOM      9  C   UNL     1      -1.281   9.849  17.922  0.00  0.00    +0.000 A 
ATOM     10  C   UNL     1      -0.576  10.751  18.717  0.00  0.00    +0.000 A 
ATOM     11  C   UNL     1      -1.293  11.728  19.415  0.00  0.00    +0.000 A 
ATOM     12  C   UNL     1      -2.677  11.899  19.238  0.00  0.00    +0.000 A 
BRANCH   7  14
ATOM     13  C   UNL     1      -4.939  11.890  16.754  0.00  0.00    +0.000 C 
ATOM     14  O   UNL     1      -4.670  11.310  18.032  0.00  0.00    +0.000 OA
ENDBRANCH   7  14
BRANCH  12  15
ATOM     15  O   UNL     1      -3.157  12.903  20.035  0.00  0.00    +0.000 OA
ATOM     16  C   UNL     1      -3.135  12.784  21.446  0.00  0.00    +0.000 C 
ENDBRANCH  12  15
ENDBRANCH   6  10
ENDBRANCH   5   6
ENDBRANCH   1   5
BRANCH   3  17
ATOM     17  C   UNL     1       3.607   6.573  18.055  0.00  0.00    +0.000 C 
BRANCH  17  18
ATOM     18  C   UNL     1       4.379   5.904  16.925  0.00  0.00    +0.000 C 
BRANCH  18  19
ATOM     19  C   UNL     1       5.212   4.771  17.501  0.00  0.00    +0.000 C 
BRANCH  19  20
ATOM     20  C   UNL     1       4.752   3.400  17.022  0.00  0.00    +0.000 C 
BRANCH  20  21
ATOM     21  N   UNL     1       3.488   3.089  17.678  0.00  0.00    +0.000 NA
ATOM     22  C   UNL     1       3.281   1.910  18.140  0.00  0.00    +0.000 C 
ATOM     23  N   UNL     1       4.132   0.857  18.131  0.00  0.00    +0.000 N 
ATOM     24  N   UNL     1       2.104   1.562  18.709  0.00  0.00    +0.000 N 
ATOM     25  H   UNL     1       4.998   0.917  17.614  0.00  0.00    +0.000 HD
ATOM     26  H   UNL     1       3.811  -0.073  18.348  0.00  0.00    +0.000 HD
ATOM     27  H   UNL     1       2.012   0.670  19.162  0.00  0.00    +0.000 HD
BRANCH  24  28
ATOM     28  C   UNL     1       0.895   2.337  18.601  0.00  0.00    +0.000 C 
BRANCH  28  29
ATOM     29  C   UNL     1       1.144   3.676  19.222  0.00  0.00    +0.000 C 
ATOM     30  C   UNL     1       1.362   3.951  20.524  0.00  0.00    +0.000 C 
ATOM     31  C   UNL     1       1.470   2.911  21.604  0.00  0.00    +0.000 C 
ATOM     32  C   UNL     1       1.531   5.369  20.995  0.00  0.00    +0.000 C 
ENDBRANCH  28  29
ENDBRANCH  24  28
ENDBRANCH  20  21
ENDBRANCH  19  20
ENDBRANCH  18  19
ENDBRANCH  17  18
ENDBRANCH   3  17
TORSDOF 12
ENDMDL
