MODEL 1
REMARK VINA RESULT:      -8.0      0.000      0.000
REMARK  Name = 
REMARK  11 active torsions:
REMARK  status: ('A' for Active; 'I' for Inactive)
REMARK    1  A    between atoms: C_1  and  C_2
REMARK    2  A    between atoms: C_2  and  C_3
REMARK    3  A    between atoms: C_2  and  C_4
REMARK    4  A    between atoms: C_4  and  C_5
REMARK    5  A    between atoms: C_5  and  N_6
REMARK    6  A    between atoms: C_5  and  C_17
REMARK    7  A    between atoms: C_7  and  O_9
REMARK    8  A    between atoms: O_9  and  C_10
REMARK    9  A    between atoms: C_10  and  C_11
REMARK   10  A    between atoms: N_19  and  C_20
REMARK   11  A    between atoms: C_20  and  C_21
REMARK                            x       y       z     vdW  Elec       q    Type
REMARK                         _______ _______ _______ _____ _____    ______ ____
ROOT
ATOM      1  C   UNL     1       6.262   5.220  15.853  0.00  0.00    +0.000 C 
ENDROOT
BRANCH   1   2
ATOM      2  N   UNL     1       5.018   4.429  15.912  0.00  0.00    +0.000 N 
ATOM      3  C   UNL     1       4.405   4.139  17.100  0.00  0.00    +0.000 C 
ATOM      4  O   UNL     1       4.125   2.993  17.421  0.00  0.00    +0.000 OA
ATOM      5  H   UNL     1       4.339   4.855  15.288  0.00  0.00    +0.000 HD
BRANCH   3   6
ATOM      6  O   UNL     1       4.048   5.256  17.781  0.00  0.00    +0.000 OA
BRANCH   6   7
ATOM      7  C   UNL     1       2.631   5.422  17.970  0.00  0.00    +0.000 C 
BRANCH   7   8
ATOM      8  C   UNL     1       2.147   4.566  19.112  0.00  0.00    +0.000 A 
ATOM      9  C   UNL     1       2.646   4.751  20.409  0.00  0.00    +0.000 A 
ATOM     10  C   UNL     1       2.197   3.953  21.463  0.00  0.00    +0.000 A 
ATOM     11  C   UNL     1       1.246   2.962  21.233  0.00  0.00    +0.000 A 
ATOM     12  C   UNL     1       0.737   2.772  19.949  0.00  0.00    +0.000 A 
ATOM     13  C   UNL     1       1.185   3.568  18.893  0.00  0.00    +0.000 A 
ENDBRANCH   7   8
ENDBRANCH   6   7
ENDBRANCH   3   6
ENDBRANCH   1   2
BRANCH   1  14
ATOM     14  C   UNL     1       6.911   4.929  14.481  0.00  0.00    +0.000 C 
ATOM     15  O   UNL     1       7.915   5.533  14.103  0.00  0.00    +0.000 OA
ATOM     16  N   UNL     1       6.299   3.973  13.713  0.00  0.00    +0.000 N 
ATOM     17  H   UNL     1       5.616   3.354  14.126  0.00  0.00    +0.000 HD
BRANCH  16  18
ATOM     18  C   UNL     1       6.709   3.696  12.339  0.00  0.00    +0.000 C 
BRANCH  18  19
ATOM     19  C   UNL     1       6.057   2.474  11.687  0.00  0.00    +0.000 C 
ATOM     20  N   UNL     1       6.893   1.475  11.278  0.00  0.00    +0.000 N 
ATOM     21  O   UNL     1       4.855   2.409  11.447  0.00  0.00    +0.000 OA
ATOM     22  H   UNL     1       7.870   1.688  11.122  0.00  0.00    +0.000 HD
ATOM     23  H   UNL     1       6.474   0.757  10.698  0.00  0.00    +0.000 HD
ENDBRANCH  18  19
ENDBRANCH  16  18
ENDBRANCH   1  14
BRANCH   1  24
ATOM     24  C   UNL     1       7.150   4.751  17.023  0.00  0.00    +0.000 C 
BRANCH  24  26
ATOM     25  C   UNL     1       7.408   7.240  17.546  0.00  0.00    +0.000 C 
ATOM     26  C   UNL     1       7.714   5.811  17.988  0.00  0.00    +0.000 C 
ATOM     27  C   UNL     1       7.137   5.577  19.393  0.00  0.00    +0.000 C 
ENDBRANCH  24  26
ENDBRANCH   1  24
TORSDOF 9
ENDMDL
MODEL 2
REMARK VINA RESULT:      -7.8      1.956      2.736
REMARK  Name = 
REMARK  11 active torsions:
REMARK  status: ('A' for Active; 'I' for Inactive)
REMARK    1  A    between atoms: C_1  and  C_2
REMARK    2  A    between atoms: C_2  and  C_3
REMARK    3  A    between atoms: C_2  and  C_4
REMARK    4  A    between atoms: C_4  and  C_5
REMARK    5  A    between atoms: C_5  and  N_6
REMARK    6  A    between atoms: C_5  and  C_17
REMARK    7  A    between atoms: C_7  and  O_9
REMARK    8  A    between atoms: O_9  and  C_10
REMARK    9  A    between atoms: C_10  and  C_11
REMARK   10  A    between atoms: N_19  and  C_20
REMARK   11  A    between atoms: C_20  and  C_21
REMARK                            x       y       z     vdW  Elec       q    Type
REMARK                         _______ _______ _______ _____ _____    ______ ____
ROOT
ATOM      1  C   UNL     1       6.041   4.926  16.063  0.00  0.00    +0.000 C 
ENDROOT
BRANCH   1   2
ATOM      2  N   UNL     1       4.967   3.928  16.219  0.00  0.00    +0.000 N 
ATOM      3  C   UNL     1       4.159   3.906  17.322  0.00  0.00    +0.000 C 
ATOM      4  O   UNL     1       4.010   2.897  17.996  0.00  0.00    +0.000 OA
ATOM      5  H   UNL     1       4.383   3.952  15.386  0.00  0.00    +0.000 HD
BRANCH   3   6
ATOM      6  O   UNL     1       3.476   5.067  17.482  0.00  0.00    +0.000 OA
BRANCH   6   7
ATOM      7  C   UNL     1       3.707   5.735  18.737  0.00  0.00    +0.000 C 
BRANCH   7   8
ATOM      8  C   UNL     1       2.872   6.987  18.829  0.00  0.00    +0.000 A 
ATOM      9  C   UNL     1       2.802   7.884  17.754  0.00  0.00    +0.000 A 
ATOM     10  C   UNL     1       2.029   9.044  17.847  0.00  0.00    +0.000 A 
ATOM     11  C   UNL     1       1.320   9.319  19.014  0.00  0.00    +0.000 A 
ATOM     12  C   UNL     1       1.376   8.431  20.088  0.00  0.00    +0.000 A 
ATOM     13  C   UNL     1       2.148   7.271  19.997  0.00  0.00    +0.000 A 
ENDBRANCH   7   8
ENDBRANCH   6   7
ENDBRANCH   3   6
ENDBRANCH   1   2
BRANCH   1  14
ATOM     14  C   UNL     1       6.676   4.685  14.674  0.00  0.00    +0.000 C 
ATOM     15  O   UNL     1       7.635   5.349  14.280  0.00  0.00    +0.000 OA
ATOM     16  N   UNL     1       6.103   3.701  13.911  0.00  0.00    +0.000 N 
ATOM     17  H   UNL     1       5.466   3.040  14.332  0.00  0.00    +0.000 HD
BRANCH  16  18
ATOM     18  C   UNL     1       6.499   3.460  12.525  0.00  0.00    +0.000 C 
BRANCH  18  19
ATOM     19  C   UNL     1       5.507   2.651  11.685  0.00  0.00    +0.000 C 
ATOM     20  N   UNL     1       4.291   3.224  11.448  0.00  0.00    +0.000 N 
ATOM     21  O   UNL     1       5.733   1.504  11.309  0.00  0.00    +0.000 OA
ATOM     22  H   UNL     1       3.971   3.963  12.060  0.00  0.00    +0.000 HD
ATOM     23  H   UNL     1       3.587   2.616  11.044  0.00  0.00    +0.000 HD
ENDBRANCH  18  19
ENDBRANCH  16  18
ENDBRANCH   1  14
BRANCH   1  24
ATOM     24  C   UNL     1       7.046   4.690  17.207  0.00  0.00    +0.000 C 
BRANCH  24  26
ATOM     25  C   UNL     1       7.024   7.232  17.477  0.00  0.00    +0.000 C 
ATOM     26  C   UNL     1       7.668   5.915  17.903  0.00  0.00    +0.000 C 
ATOM     27  C   UNL     1       7.539   5.753  19.425  0.00  0.00    +0.000 C 
ENDBRANCH  24  26
ENDBRANCH   1  24
TORSDOF 9
ENDMDL
MODEL 3
REMARK VINA RESULT:      -7.7      1.451      2.085
REMARK  Name = 
REMARK  11 active torsions:
REMARK  status: ('A' for Active; 'I' for Inactive)
REMARK    1  A    between atoms: C_1  and  C_2
REMARK    2  A    between atoms: C_2  and  C_3
REMARK    3  A    between atoms: C_2  and  C_4
REMARK    4  A    between atoms: C_4  and  C_5
REMARK    5  A    between atoms: C_5  and  N_6
REMARK    6  A    between atoms: C_5  and  C_17
REMARK    7  A    between atoms: C_7  and  O_9
REMARK    8  A    between atoms: O_9  and  C_10
REMARK    9  A    between atoms: C_10  and  C_11
REMARK   10  A    between atoms: N_19  and  C_20
REMARK   11  A    between atoms: C_20  and  C_21
REMARK                            x       y       z     vdW  Elec       q    Type
REMARK                         _______ _______ _______ _____ _____    ______ ____
ROOT
ATOM      1  C   UNL     1       6.022   4.486  16.314  0.00  0.00    +0.000 C 
ENDROOT
BRANCH   1   2
ATOM      2  N   UNL     1       5.406   3.165  16.544  0.00  0.00    +0.000 N 
ATOM      3  C   UNL     1       4.256   3.024  17.271  0.00  0.00    +0.000 C 
ATOM      4  O   UNL     1       4.181   2.260  18.222  0.00  0.00    +0.000 OA
ATOM      5  H   UNL     1       5.281   2.710  15.643  0.00  0.00    +0.000 HD
BRANCH   3   6
ATOM      6  O   UNL     1       3.220   3.718  16.736  0.00  0.00    +0.000 OA
BRANCH   6   7
ATOM      7  C   UNL     1       2.039   3.769  17.558  0.00  0.00    +0.000 C 
BRANCH   7   8
ATOM      8  C   UNL     1       2.075   4.976  18.460  0.00  0.00    +0.000 A 
ATOM      9  C   UNL     1       1.764   4.864  19.822  0.00  0.00    +0.000 A 
ATOM     10  C   UNL     1       1.796   5.986  20.653  0.00  0.00    +0.000 A 
ATOM     11  C   UNL     1       2.137   7.231  20.130  0.00  0.00    +0.000 A 
ATOM     12  C   UNL     1       2.456   7.356  18.778  0.00  0.00    +0.000 A 
ATOM     13  C   UNL     1       2.424   6.234  17.946  0.00  0.00    +0.000 A 
ENDBRANCH   7   8
ENDBRANCH   6   7
ENDBRANCH   3   6
ENDBRANCH   1   2
BRANCH   1  14
ATOM     14  C   UNL     1       6.619   4.457  14.889  0.00  0.00    +0.000 C 
ATOM     15  O   UNL     1       7.563   5.183  14.571  0.00  0.00    +0.000 OA
ATOM     16  N   UNL     1       6.032   3.590  14.005  0.00  0.00    +0.000 N 
ATOM     17  H   UNL     1       5.411   2.868  14.341  0.00  0.00    +0.000 HD
BRANCH  16  18
ATOM     18  C   UNL     1       6.391   3.559  12.589  0.00  0.00    +0.000 C 
BRANCH  18  19
ATOM     19  C   UNL     1       5.493   2.695  11.698  0.00  0.00    +0.000 C 
ATOM     20  N   UNL     1       4.266   3.204  11.382  0.00  0.00    +0.000 N 
ATOM     21  O   UNL     1       5.798   1.559  11.348  0.00  0.00    +0.000 OA
ATOM     22  H   UNL     1       3.873   3.931  11.966  0.00  0.00    +0.000 HD
ATOM     23  H   UNL     1       3.620   2.560  10.942  0.00  0.00    +0.000 HD
ENDBRANCH  18  19
ENDBRANCH  16  18
ENDBRANCH   1  14
BRANCH   1  24
ATOM     24  C   UNL     1       7.108   4.669  17.392  0.00  0.00    +0.000 C 
BRANCH  24  26
ATOM     25  C   UNL     1       5.703   5.380  19.407  0.00  0.00    +0.000 C 
ATOM     26  C   UNL     1       6.879   5.721  18.495  0.00  0.00    +0.000 C 
ATOM     27  C   UNL     1       8.155   5.859  19.339  0.00  0.00    +0.000 C 
ENDBRANCH  24  26
ENDBRANCH   1  24
TORSDOF 9
ENDMDL
MODEL 4
REMARK VINA RESULT:      -7.7      1.578      2.375
REMARK  Name = 
REMARK  11 active torsions:
REMARK  status: ('A' for Active; 'I' for Inactive)
REMARK    1  A    between atoms: C_1  and  C_2
REMARK    2  A    between atoms: C_2  and  C_3
REMARK    3  A    between atoms: C_2  and  C_4
REMARK    4  A    between atoms: C_4  and  C_5
REMARK    5  A    between atoms: C_5  and  N_6
REMARK    6  A    between atoms: C_5  and  C_17
REMARK    7  A    between atoms: C_7  and  O_9
REMARK    8  A    between atoms: O_9  and  C_10
REMARK    9  A    between atoms: C_10  and  C_11
REMARK   10  A    between atoms: N_19  and  C_20
REMARK   11  A    between atoms: C_20  and  C_21
REMARK                            x       y       z     vdW  Elec       q    Type
REMARK                         _______ _______ _______ _____ _____    ______ ____
ROOT
ATOM      1  C   UNL     1       6.259   4.672  16.227  0.00  0.00    +0.000 C 
ENDROOT
BRANCH   1   2
ATOM      2  N   UNL     1       5.374   3.508  16.422  0.00  0.00    +0.000 N 
ATOM      3  C   UNL     1       4.459   3.461  17.438  0.00  0.00    +0.000 C 
ATOM      4  O   UNL     1       4.419   2.530  18.230  0.00  0.00    +0.000 OA
ATOM      5  H   UNL     1       4.897   3.318  15.544  0.00  0.00    +0.000 HD
BRANCH   3   6
ATOM      6  O   UNL     1       3.562   4.476  17.370  0.00  0.00    +0.000 OA
BRANCH   6   7
ATOM      7  C   UNL     1       2.699   4.597  18.517  0.00  0.00    +0.000 C 
BRANCH   7   8
ATOM      8  C   UNL     1       2.388   6.046  18.792  0.00  0.00    +0.000 A 
ATOM      9  C   UNL     1       2.046   6.473  20.083  0.00  0.00    +0.000 A 
ATOM     10  C   UNL     1       1.755   7.816  20.332  0.00  0.00    +0.000 A 
ATOM     11  C   UNL     1       1.802   8.745  19.294  0.00  0.00    +0.000 A 
ATOM     12  C   UNL     1       2.147   8.333  18.007  0.00  0.00    +0.000 A 
ATOM     13  C   UNL     1       2.438   6.991  17.757  0.00  0.00    +0.000 A 
ENDBRANCH   7   8
ENDBRANCH   6   7
ENDBRANCH   3   6
ENDBRANCH   1   2
BRANCH   1  14
ATOM     14  C   UNL     1       6.773   4.602  14.771  0.00  0.00    +0.000 C 
ATOM     15  O   UNL     1       7.636   5.376  14.356  0.00  0.00    +0.000 OA
ATOM     16  N   UNL     1       6.206   3.641  13.975  0.00  0.00    +0.000 N 
ATOM     17  H   UNL     1       5.664   2.896  14.389  0.00  0.00    +0.000 HD
BRANCH  16  18
ATOM     18  C   UNL     1       6.483   3.551  12.544  0.00  0.00    +0.000 C 
BRANCH  18  19
ATOM     19  C   UNL     1       5.486   2.725  11.727  0.00  0.00    +0.000 C 
ATOM     20  N   UNL     1       4.273   3.299  11.474  0.00  0.00    +0.000 N 
ATOM     21  O   UNL     1       5.704   1.567  11.383  0.00  0.00    +0.000 OA
ATOM     22  H   UNL     1       3.958   4.058  12.065  0.00  0.00    +0.000 HD
ATOM     23  H   UNL     1       3.565   2.685  11.088  0.00  0.00    +0.000 HD
ENDBRANCH  18  19
ENDBRANCH  16  18
ENDBRANCH   1  14
BRANCH   1  24
ATOM     24  C   UNL     1       7.404   4.544  17.251  0.00  0.00    +0.000 C 
BRANCH  24  26
ATOM     25  C   UNL     1       7.543   7.058  17.694  0.00  0.00    +0.000 C 
ATOM     26  C   UNL     1       7.578   5.657  18.301  0.00  0.00    +0.000 C 
ATOM     27  C   UNL     1       6.473   5.534  19.361  0.00  0.00    +0.000 C 
ENDBRANCH  24  26
ENDBRANCH   1  24
TORSDOF 9
ENDMDL
MODEL 5
REMARK VINA RESULT:      -7.6      1.257      1.894
REMARK  Name = 
REMARK  11 active torsions:
REMARK  status: ('A' for Active; 'I' for Inactive)
REMARK    1  A    between atoms: C_1  and  C_2
REMARK    2  A    between atoms: C_2  and  C_3
REMARK    3  A    between atoms: C_2  and  C_4
REMARK    4  A    between atoms: C_4  and  C_5
REMARK    5  A    between atoms: C_5  and  N_6
REMARK    6  A    between atoms: C_5  and  C_17
REMARK    7  A    between atoms: C_7  and  O_9
REMARK    8  A    between atoms: O_9  and  C_10
REMARK    9  A    between atoms: C_10  and  C_11
REMARK   10  A    between atoms: N_19  and  C_20
REMARK   11  A    between atoms: C_20  and  C_21
REMARK                            x       y       z     vdW  Elec       q    Type
REMARK                         _______ _______ _______ _____ _____    ______ ____
ROOT
ATOM      1  C   UNL     1       6.102   4.702  16.216  0.00  0.00    +0.000 C 
ENDROOT
BRANCH   1   2
ATOM      2  N   UNL     1       5.616   3.372  16.631  0.00  0.00    +0.000 N 
ATOM      3  C   UNL     1       4.488   3.223  17.390  0.00  0.00    +0.000 C 
ATOM      4  O   UNL     1       4.491   2.591  18.437  0.00  0.00    +0.000 OA
ATOM      5  H   UNL     1       5.532   2.790  15.802  0.00  0.00    +0.000 HD
BRANCH   3   6
ATOM      6  O   UNL     1       3.388   3.737  16.785  0.00  0.00    +0.000 OA
BRANCH   6   7
ATOM      7  C   UNL     1       2.198   3.738  17.595  0.00  0.00    +0.000 C 
BRANCH   7   8
ATOM      8  C   UNL     1       2.161   4.959  18.478  0.00  0.00    +0.000 A 
ATOM      9  C   UNL     1       1.833   4.853  19.837  0.00  0.00    +0.000 A 
ATOM     10  C   UNL     1       1.797   5.989  20.649  0.00  0.00    +0.000 A 
ATOM     11  C   UNL     1       2.086   7.241  20.111  0.00  0.00    +0.000 A 
ATOM     12  C   UNL     1       2.419   7.359  18.762  0.00  0.00    +0.000 A 
ATOM     13  C   UNL     1       2.456   6.225  17.949  0.00  0.00    +0.000 A 
ENDBRANCH   7   8
ENDBRANCH   6   7
ENDBRANCH   3   6
ENDBRANCH   1   2
BRANCH   1  14
ATOM     14  C   UNL     1       6.697   4.537  14.800  0.00  0.00    +0.000 C 
ATOM     15  O   UNL     1       7.650   5.217  14.418  0.00  0.00    +0.000 OA
ATOM     16  N   UNL     1       6.097   3.602  13.996  0.00  0.00    +0.000 N 
ATOM     17  H   UNL     1       5.466   2.922  14.396  0.00  0.00    +0.000 HD
BRANCH  16  18
ATOM     18  C   UNL     1       6.454   3.439  12.589  0.00  0.00    +0.000 C 
BRANCH  18  19
ATOM     19  C   UNL     1       5.463   2.632  11.745  0.00  0.00    +0.000 C 
ATOM     20  N   UNL     1       5.814   1.348  11.444  0.00  0.00    +0.000 N 
ATOM     21  O   UNL     1       4.440   3.120  11.271  0.00  0.00    +0.000 OA
ATOM     22  H   UNL     1       6.789   1.082  11.495  0.00  0.00    +0.000 HD
ATOM     23  H   UNL     1       5.241   0.884  10.748  0.00  0.00    +0.000 HD
ENDBRANCH  18  19
ENDBRANCH  16  18
ENDBRANCH   1  14
BRANCH   1  24
ATOM     24  C   UNL     1       7.166   5.134  17.244  0.00  0.00    +0.000 C 
BRANCH  24  26
ATOM     25  C   UNL     1       6.135   7.466  17.428  0.00  0.00    +0.000 C 
ATOM     26  C   UNL     1       7.419   6.639  17.452  0.00  0.00    +0.000 C 
ATOM     27  C   UNL     1       8.138   6.853  18.792  0.00  0.00    +0.000 C 
ENDBRANCH  24  26
ENDBRANCH   1  24
TORSDOF 9
ENDMDL
MODEL 6
REMARK VINA RESULT:      -7.5      2.154      4.741
REMARK  Name = 
REMARK  11 active torsions:
REMARK  status: ('A' for Active; 'I' for Inactive)
REMARK    1  A    between atoms: C_1  and  C_2
REMARK    2  A    between atoms: C_2  and  C_3
REMARK    3  A    between atoms: C_2  and  C_4
REMARK    4  A    between atoms: C_4  and  C_5
REMARK    5  A    between atoms: C_5  and  N_6
REMARK    6  A    between atoms: C_5  and  C_17
REMARK    7  A    between atoms: C_7  and  O_9
REMARK    8  A    between atoms: O_9  and  C_10
REMARK    9  A    between atoms: C_10  and  C_11
REMARK   10  A    between atoms: N_19  and  C_20
REMARK   11  A    between atoms: C_20  and  C_21
REMARK                            x       y       z     vdW  Elec       q    Type
REMARK                         _______ _______ _______ _____ _____    ______ ____
ROOT
ATOM      1  C   UNL     1       6.461   4.407  15.123  0.00  0.00    +0.000 C 
ENDROOT
BRANCH   1   2
ATOM      2  N   UNL     1       6.140   3.531  16.266  0.00  0.00    +0.000 N 
ATOM      3  C   UNL     1       5.331   3.948  17.287  0.00  0.00    +0.000 C 
ATOM      4  O   UNL     1       5.684   3.891  18.456  0.00  0.00    +0.000 OA
ATOM      5  H   UNL     1       5.784   2.651  15.904  0.00  0.00    +0.000 HD
BRANCH   3   6
ATOM      6  O   UNL     1       4.093   4.293  16.855  0.00  0.00    +0.000 OA
BRANCH   6   7
ATOM      7  C   UNL     1       3.401   5.235  17.695  0.00  0.00    +0.000 C 
BRANCH   7   8
ATOM      8  C   UNL     1       2.492   4.515  18.658  0.00  0.00    +0.000 A 
ATOM      9  C   UNL     1       2.439   4.885  20.009  0.00  0.00    +0.000 A 
ATOM     10  C   UNL     1       1.597   4.212  20.897  0.00  0.00    +0.000 A 
ATOM     11  C   UNL     1       0.801   3.162  20.444  0.00  0.00    +0.000 A 
ATOM     12  C   UNL     1       0.839   2.789  19.101  0.00  0.00    +0.000 A 
ATOM     13  C   UNL     1       1.680   3.461  18.212  0.00  0.00    +0.000 A 
ENDBRANCH   7   8
ENDBRANCH   6   7
ENDBRANCH   3   6
ENDBRANCH   1   2
BRANCH   1  14
ATOM     14  C   UNL     1       6.400   5.861  15.644  0.00  0.00    +0.000 C 
ATOM     15  O   UNL     1       5.574   6.666  15.211  0.00  0.00    +0.000 OA
ATOM     16  N   UNL     1       7.320   6.199  16.602  0.00  0.00    +0.000 N 
ATOM     17  H   UNL     1       7.837   5.477  17.084  0.00  0.00    +0.000 HD
BRANCH  16  18
ATOM     18  C   UNL     1       7.479   7.570  17.081  0.00  0.00    +0.000 C 
BRANCH  18  19
ATOM     19  C   UNL     1       8.232   7.725  18.405  0.00  0.00    +0.000 C 
ATOM     20  N   UNL     1       8.287   6.626  19.214  0.00  0.00    +0.000 N 
ATOM     21  O   UNL     1       8.694   8.796  18.788  0.00  0.00    +0.000 OA
ATOM     22  H   UNL     1       7.602   5.892  19.089  0.00  0.00    +0.000 HD
ATOM     23  H   UNL     1       8.633   6.785  20.153  0.00  0.00    +0.000 HD
ENDBRANCH  18  19
ENDBRANCH  16  18
ENDBRANCH   1  14
BRANCH   1  24
ATOM     24  C   UNL     1       5.400   4.137  14.037  0.00  0.00    +0.000 C 
BRANCH  24  26
ATOM     25  C   UNL     1       4.704   3.279  11.732  0.00  0.00    +0.000 C 
ATOM     26  C   UNL     1       5.838   3.425  12.743  0.00  0.00    +0.000 C 
ATOM     27  C   UNL     1       6.996   4.204  12.102  0.00  0.00    +0.000 C 
ENDBRANCH  24  26
ENDBRANCH   1  24
TORSDOF 9
ENDMDL
MODEL 7
REMARK VINA RESULT:      -7.4      2.707      5.228
REMARK  Name = 
REMARK  11 active torsions:
REMARK  status: ('A' for Active; 'I' for Inactive)
REMARK    1  A    between atoms: C_1  and  C_2
REMARK    2  A    between atoms: C_2  and  C_3
REMARK    3  A    between atoms: C_2  and  C_4
REMARK    4  A    between atoms: C_4  and  C_5
REMARK    5  A    between atoms: C_5  and  N_6
REMARK    6  A    between atoms: C_5  and  C_17
REMARK    7  A    between atoms: C_7  and  O_9
REMARK    8  A    between atoms: O_9  and  C_10
REMARK    9  A    between atoms: C_10  and  C_11
REMARK   10  A    between atoms: N_19  and  C_20
REMARK   11  A    between atoms: C_20  and  C_21
REMARK                            x       y       z     vdW  Elec       q    Type
REMARK                         _______ _______ _______ _____ _____    ______ ____
ROOT
ATOM      1  C   UNL     1       5.181   6.105  17.700  0.00  0.00    +0.000 C 
ENDROOT
BRANCH   1   2
ATOM      2  N   UNL     1       4.741   5.343  16.516  0.00  0.00    +0.000 N 
ATOM      3  C   UNL     1       5.058   4.023  16.351  0.00  0.00    +0.000 C 
ATOM      4  O   UNL     1       5.604   3.610  15.338  0.00  0.00    +0.000 OA
ATOM      5  H   UNL     1       3.735   5.453  16.421  0.00  0.00    +0.000 HD
BRANCH   3   6
ATOM      6  O   UNL     1       4.586   3.251  17.361  0.00  0.00    +0.000 OA
BRANCH   6   7
ATOM      7  C   UNL     1       3.168   3.007  17.324  0.00  0.00    +0.000 C 
BRANCH   7   8
ATOM      8  C   UNL     1       2.585   3.071  18.713  0.00  0.00    +0.000 A 
ATOM      9  C   UNL     1       1.303   3.596  18.930  0.00  0.00    +0.000 A 
ATOM     10  C   UNL     1       0.770   3.655  20.219  0.00  0.00    +0.000 A 
ATOM     11  C   UNL     1       1.511   3.192  21.304  0.00  0.00    +0.000 A 
ATOM     12  C   UNL     1       2.784   2.660  21.100  0.00  0.00    +0.000 A 
ATOM     13  C   UNL     1       3.320   2.601  19.812  0.00  0.00    +0.000 A 
ENDBRANCH   7   8
ENDBRANCH   6   7
ENDBRANCH   3   6
ENDBRANCH   1   2
BRANCH   1  14
ATOM     14  C   UNL     1       3.902   6.617  18.401  0.00  0.00    +0.000 C 
ATOM     15  O   UNL     1       3.503   6.121  19.455  0.00  0.00    +0.000 OA
ATOM     16  N   UNL     1       3.239   7.642  17.776  0.00  0.00    +0.000 N 
ATOM     17  H   UNL     1       3.693   8.162  17.039  0.00  0.00    +0.000 HD
BRANCH  16  18
ATOM     18  C   UNL     1       1.942   8.128  18.240  0.00  0.00    +0.000 C 
BRANCH  18  19
ATOM     19  C   UNL     1       1.618   9.583  17.889  0.00  0.00    +0.000 C 
ATOM     20  N   UNL     1       0.296   9.915  17.804  0.00  0.00    +0.000 N 
ATOM     21  O   UNL     1       2.481  10.408  17.603  0.00  0.00    +0.000 OA
ATOM     22  H   UNL     1      -0.385   9.181  17.657  0.00  0.00    +0.000 HD
ATOM     23  H   UNL     1       0.094  10.824  17.406  0.00  0.00    +0.000 HD
ENDBRANCH  18  19
ENDBRANCH  16  18
ENDBRANCH   1  14
BRANCH   1  24
ATOM     24  C   UNL     1       6.063   7.262  17.190  0.00  0.00    +0.000 C 
BRANCH  24  26
ATOM     25  C   UNL     1       8.108   8.629  17.888  0.00  0.00    +0.000 C 
ATOM     26  C   UNL     1       7.565   7.247  17.533  0.00  0.00    +0.000 C 
ATOM     27  C   UNL     1       7.808   6.286  18.706  0.00  0.00    +0.000 C 
ENDBRANCH  24  26
ENDBRANCH   1  24
TORSDOF 9
ENDMDL
MODEL 8
REMARK VINA RESULT:      -7.3      1.922      3.042
REMARK  Name = 
REMARK  11 active torsions:
REMARK  status: ('A' for Active; 'I' for Inactive)
REMARK    1  A    between atoms: C_1  and  C_2
REMARK    2  A    between atoms: C_2  and  C_3
REMARK    3  A    between atoms: C_2  and  C_4
REMARK    4  A    between atoms: C_4  and  C_5
REMARK    5  A    between atoms: C_5  and  N_6
REMARK    6  A    between atoms: C_5  and  C_17
REMARK    7  A    between atoms: C_7  and  O_9
REMARK    8  A    between atoms: O_9  and  C_10
REMARK    9  A    between atoms: C_10  and  C_11
REMARK   10  A    between atoms: N_19  and  C_20
REMARK   11  A    between atoms: C_20  and  C_21
REMARK                            x       y       z     vdW  Elec       q    Type
REMARK                         _______ _______ _______ _____ _____    ______ ____
ROOT
ATOM      1  C   UNL     1       4.863   5.760  17.040  0.00  0.00    +0.000 C 
ENDROOT
BRANCH   1   2
ATOM      2  N   UNL     1       5.957   5.418  17.968  0.00  0.00    +0.000 N 
ATOM      3  C   UNL     1       5.756   4.604  19.049  0.00  0.00    +0.000 C 
ATOM      4  O   UNL     1       6.064   4.944  20.182  0.00  0.00    +0.000 OA
ATOM      5  H   UNL     1       6.735   5.054  17.425  0.00  0.00    +0.000 HD
BRANCH   3   6
ATOM      6  O   UNL     1       5.309   3.374  18.691  0.00  0.00    +0.000 OA
BRANCH   6   7
ATOM      7  C   UNL     1       4.720   2.610  19.760  0.00  0.00    +0.000 C 
BRANCH   7   8
ATOM      8  C   UNL     1       3.223   2.783  19.770  0.00  0.00    +0.000 A 
ATOM      9  C   UNL     1       2.425   2.183  18.785  0.00  0.00    +0.000 A 
ATOM     10  C   UNL     1       1.039   2.349  18.797  0.00  0.00    +0.000 A 
ATOM     11  C   UNL     1       0.436   3.117  19.791  0.00  0.00    +0.000 A 
ATOM     12  C   UNL     1       1.217   3.713  20.779  0.00  0.00    +0.000 A 
ATOM     13  C   UNL     1       2.604   3.549  20.769  0.00  0.00    +0.000 A 
ENDBRANCH   7   8
ENDBRANCH   6   7
ENDBRANCH   3   6
ENDBRANCH   1   2
BRANCH   1  14
ATOM     14  C   UNL     1       5.481   5.818  15.625  0.00  0.00    +0.000 C 
ATOM     15  O   UNL     1       5.236   6.745  14.852  0.00  0.00    +0.000 OA
ATOM     16  N   UNL     1       6.304   4.777  15.281  0.00  0.00    +0.000 N 
ATOM     17  H   UNL     1       6.651   4.150  15.993  0.00  0.00    +0.000 HD
BRANCH  16  18
ATOM     18  C   UNL     1       6.841   4.620  13.931  0.00  0.00    +0.000 C 
BRANCH  18  19
ATOM     19  C   UNL     1       6.034   3.712  12.999  0.00  0.00    +0.000 C 
ATOM     20  N   UNL     1       6.724   3.084  12.003  0.00  0.00    +0.000 N 
ATOM     21  O   UNL     1       4.813   3.607  13.065  0.00  0.00    +0.000 OA
ATOM     22  H   UNL     1       7.619   3.459  11.715  0.00  0.00    +0.000 HD
ATOM     23  H   UNL     1       6.161   2.628  11.294  0.00  0.00    +0.000 HD
ENDBRANCH  18  19
ENDBRANCH  16  18
ENDBRANCH   1  14
BRANCH   1  24
ATOM     24  C   UNL     1       4.306   7.127  17.483  0.00  0.00    +0.000 C 
BRANCH  24  26
ATOM     25  C   UNL     1       2.062   8.331  17.710  0.00  0.00    +0.000 C 
ATOM     26  C   UNL     1       2.933   7.169  18.181  0.00  0.00    +0.000 C 
ATOM     27  C   UNL     1       2.195   5.845  17.931  0.00  0.00    +0.000 C 
ENDBRANCH  24  26
ENDBRANCH   1  24
TORSDOF 9
ENDMDL
MODEL 9
REMARK VINA RESULT:      -7.3      2.798      5.279
REMARK  Name = 
REMARK  11 active torsions:
REMARK  status: ('A' for Active; 'I' for Inactive)
REMARK    1  A    between atoms: C_1  and  C_2
REMARK    2  A    between atoms: C_2  and  C_3
REMARK    3  A    between atoms: C_2  and  C_4
REMARK    4  A    between atoms: C_4  and  C_5
REMARK    5  A    between atoms: C_5  and  N_6
REMARK    6  A    between atoms: C_5  and  C_17
REMARK    7  A    between atoms: C_7  and  O_9
REMARK    8  A    between atoms: O_9  and  C_10
REMARK    9  A    between atoms: C_10  and  C_11
REMARK   10  A    between atoms: N_19  and  C_20
REMARK   11  A    between atoms: C_20  and  C_21
REMARK                            x       y       z     vdW  Elec       q    Type
REMARK                         _______ _______ _______ _____ _____    ______ ____
ROOT
ATOM      1  C   UNL     1       4.956   6.141  17.841  0.00  0.00    +0.000 C 
ENDROOT
BRANCH   1   2
ATOM      2  N   UNL     1       4.622   5.226  16.733  0.00  0.00    +0.000 N 
ATOM      3  C   UNL     1       5.160   3.972  16.648  0.00  0.00    +0.000 C 
ATOM      4  O   UNL     1       5.742   3.583  15.645  0.00  0.00    +0.000 OA
ATOM      5  H   UNL     1       3.610   5.153  16.672  0.00  0.00    +0.000 HD
BRANCH   3   6
ATOM      6  O   UNL     1       4.861   3.209  17.729  0.00  0.00    +0.000 OA
BRANCH   6   7
ATOM      7  C   UNL     1       3.596   2.525  17.653  0.00  0.00    +0.000 C 
BRANCH   7   8
ATOM      8  C   UNL     1       2.799   2.748  18.913  0.00  0.00    +0.000 A 
ATOM      9  C   UNL     1       3.365   2.505  20.173  0.00  0.00    +0.000 A 
ATOM     10  C   UNL     1       2.621   2.711  21.336  0.00  0.00    +0.000 A 
ATOM     11  C   UNL     1       1.305   3.159  21.254  0.00  0.00    +0.000 A 
ATOM     12  C   UNL     1       0.732   3.411  20.007  0.00  0.00    +0.000 A 
ATOM     13  C   UNL     1       1.475   3.206  18.842  0.00  0.00    +0.000 A 
ENDBRANCH   7   8
ENDBRANCH   6   7
ENDBRANCH   3   6
ENDBRANCH   1   2
BRANCH   1  14
ATOM     14  C   UNL     1       3.618   6.701  18.374  0.00  0.00    +0.000 C 
ATOM     15  O   UNL     1       3.073   6.227  19.372  0.00  0.00    +0.000 OA
ATOM     16  N   UNL     1       3.074   7.742  17.668  0.00  0.00    +0.000 N 
ATOM     17  H   UNL     1       3.634   8.242  16.992  0.00  0.00    +0.000 HD
BRANCH  16  18
ATOM     18  C   UNL     1       1.747   8.276  17.964  0.00  0.00    +0.000 C 
BRANCH  18  19
ATOM     19  C   UNL     1       1.616   9.800  17.896  0.00  0.00    +0.000 C 
ATOM     20  N   UNL     1       0.361  10.318  18.044  0.00  0.00    +0.000 N 
ATOM     21  O   UNL     1       2.561  10.538  17.631  0.00  0.00    +0.000 OA
ATOM     22  H   UNL     1      -0.437   9.720  17.874  0.00  0.00    +0.000 HD
ATOM     23  H   UNL     1       0.261  11.302  17.826  0.00  0.00    +0.000 HD
ENDBRANCH  18  19
ENDBRANCH  16  18
ENDBRANCH   1  14
BRANCH   1  24
ATOM     24  C   UNL     1       5.854   7.248  17.257  0.00  0.00    +0.000 C 
BRANCH  24  26
ATOM     25  C   UNL     1       8.016   8.495  17.815  0.00  0.00    +0.000 C 
ATOM     26  C   UNL     1       7.376   7.151  17.475  0.00  0.00    +0.000 C 
ATOM     27  C   UNL     1       7.665   6.149  18.603  0.00  0.00    +0.000 C 
ENDBRANCH  24  26
ENDBRANCH   1  24
TORSDOF 9
ENDMDL
