MODEL 1
REMARK VINA RESULT:      -9.6      0.000      0.000
REMARK  Name = 
REMARK  1 active torsions:
REMARK  status: ('A' for Active; 'I' for Inactive)
REMARK    1  A    between atoms: C_14  and  C_15
REMARK                            x       y       z     vdW  Elec       q    Type
REMARK                         _______ _______ _______ _____ _____    ______ ____
ROOT
ATOM      1  O   UNL     1       0.919   4.390  17.218  0.00  0.00    +0.000 OA
ATOM      2  C   UNL     1       1.716   4.145  18.131  0.00  0.00    +0.000 C 
ATOM      3  C   UNL     1       1.171   3.734  19.475  0.00  0.00    +0.000 C 
ATOM      4  C   UNL     1       2.058   2.819  20.282  0.00  0.00    +0.000 C 
ATOM      5  C   UNL     1       3.550   2.958  20.096  0.00  0.00    +0.000 C 
ATOM      6  C   UNL     1       4.098   3.904  19.039  0.00  0.00    +0.000 C 
ATOM      7  N   UNL     1       5.381   4.037  19.152  0.00  0.00    +0.000 NA
ATOM      8  C   UNL     1       6.129   4.765  18.236  0.00  0.00    +0.000 A 
ATOM      9  N   UNL     1       7.428   4.498  18.145  0.00  0.00    +0.000 NA
ATOM     10  O   UNL     1       7.922   5.469  17.283  0.00  0.00    +0.000 OA
ATOM     11  N   UNL     1       6.914   6.321  16.853  0.00  0.00    +0.000 NA
ATOM     12  C   UNL     1       5.800   5.884  17.445  0.00  0.00    +0.000 A 
ATOM     13  N   UNL     1       4.610   6.493  17.304  0.00  0.00    +0.000 N 
ATOM     14  C   UNL     1       3.308   5.958  17.655  0.00  0.00    +0.000 C 
ATOM     15  C   UNL     1       3.196   4.445  17.953  0.00  0.00    +0.000 C 
ATOM     16  H   UNL     1       4.585   7.312  16.702  0.00  0.00    +0.000 HD
ENDROOT
BRANCH  14  17
ATOM     17  C   UNL     1       2.682   6.869  18.705  0.00  0.00    +0.000 A 
ATOM     18  C   UNL     1       2.517   6.474  20.041  0.00  0.00    +0.000 A 
ATOM     19  C   UNL     1       1.740   7.247  20.905  0.00  0.00    +0.000 A 
ATOM     20  C   UNL     1       1.187   8.441  20.447  0.00  0.00    +0.000 A 
ATOM     21  F   UNL     1       0.395   9.142  21.271  0.00  0.00    +0.000 F 
ATOM     22  C   UNL     1       1.425   8.902  19.170  0.00  0.00    +0.000 A 
ATOM     23  C   UNL     1       2.180   8.115  18.309  0.00  0.00    +0.000 A 
ATOM     24  F   UNL     1       2.398   8.562  17.067  0.00  0.00    +0.000 F 
ENDBRANCH  14  17
TORSDOF 1
ENDMDL
MODEL 2
REMARK VINA RESULT:      -8.6      2.703      4.171
REMARK  Name = 
REMARK  1 active torsions:
REMARK  status: ('A' for Active; 'I' for Inactive)
REMARK    1  A    between atoms: C_14  and  C_15
REMARK                            x       y       z     vdW  Elec       q    Type
REMARK                         _______ _______ _______ _____ _____    ______ ____
ROOT
ATOM      1  O   UNL     1       5.416   3.316  19.372  0.00  0.00    +0.000 OA
ATOM      2  C   UNL     1       6.028   4.257  18.852  0.00  0.00    +0.000 C 
ATOM      3  C   UNL     1       6.389   5.443  19.708  0.00  0.00    +0.000 C 
ATOM      4  C   UNL     1       7.643   6.177  19.302  0.00  0.00    +0.000 C 
ATOM      5  C   UNL     1       8.000   6.181  17.835  0.00  0.00    +0.000 C 
ATOM      6  C   UNL     1       7.176   5.367  16.851  0.00  0.00    +0.000 C 
ATOM      7  N   UNL     1       7.504   5.641  15.629  0.00  0.00    +0.000 NA
ATOM      8  C   UNL     1       6.967   4.949  14.550  0.00  0.00    +0.000 A 
ATOM      9  N   UNL     1       7.648   4.957  13.408  0.00  0.00    +0.000 NA
ATOM     10  O   UNL     1       6.806   4.331  12.498  0.00  0.00    +0.000 OA
ATOM     11  N   UNL     1       5.615   3.944  13.097  0.00  0.00    +0.000 NA
ATOM     12  C   UNL     1       5.715   4.328  14.372  0.00  0.00    +0.000 A 
ATOM     13  N   UNL     1       4.724   4.161  15.265  0.00  0.00    +0.000 N 
ATOM     14  C   UNL     1       4.822   4.271  16.708  0.00  0.00    +0.000 C 
ATOM     15  C   UNL     1       6.231   4.295  17.345  0.00  0.00    +0.000 C 
ATOM     16  H   UNL     1       3.879   3.707  14.930  0.00  0.00    +0.000 HD
ENDROOT
BRANCH  14  17
ATOM     17  C   UNL     1       3.889   5.385  17.169  0.00  0.00    +0.000 A 
ATOM     18  C   UNL     1       4.180   6.742  16.966  0.00  0.00    +0.000 A 
ATOM     19  C   UNL     1       3.414   7.722  17.601  0.00  0.00    +0.000 A 
ATOM     20  C   UNL     1       2.324   7.341  18.381  0.00  0.00    +0.000 A 
ATOM     21  F   UNL     1       1.634   8.289  19.031  0.00  0.00    +0.000 F 
ATOM     22  C   UNL     1       1.955   6.019  18.506  0.00  0.00    +0.000 A 
ATOM     23  C   UNL     1       2.737   5.049  17.891  0.00  0.00    +0.000 A 
ATOM     24  F   UNL     1       2.380   3.766  18.025  0.00  0.00    +0.000 F 
ENDBRANCH  14  17
TORSDOF 1
ENDMDL
MODEL 3
REMARK VINA RESULT:      -7.5      4.894      7.157
REMARK  Name = 
REMARK  1 active torsions:
REMARK  status: ('A' for Active; 'I' for Inactive)
REMARK    1  A    between atoms: C_14  and  C_15
REMARK                            x       y       z     vdW  Elec       q    Type
REMARK                         _______ _______ _______ _____ _____    ______ ____
ROOT
ATOM      1  O   UNL     1      -2.498  12.386  19.809  0.00  0.00    +0.000 OA
ATOM      2  C   UNL     1      -1.689  11.832  20.563  0.00  0.00    +0.000 C 
ATOM      3  C   UNL     1      -1.598  12.299  21.993  0.00  0.00    +0.000 C 
ATOM      4  C   UNL     1      -1.188  11.247  22.994  0.00  0.00    +0.000 C 
ATOM      5  C   UNL     1      -0.271  10.150  22.509  0.00  0.00    +0.000 C 
ATOM      6  C   UNL     1       0.105  10.069  21.038  0.00  0.00    +0.000 C 
ATOM      7  N   UNL     1       1.040   9.195  20.843  0.00  0.00    +0.000 NA
ATOM      8  C   UNL     1       1.481   8.861  19.568  0.00  0.00    +0.000 A 
ATOM      9  N   UNL     1       2.083   7.686  19.410  0.00  0.00    +0.000 NA
ATOM     10  O   UNL     1       2.538   7.705  18.097  0.00  0.00    +0.000 OA
ATOM     11  N   UNL     1       2.205   8.896  17.466  0.00  0.00    +0.000 NA
ATOM     12  C   UNL     1       1.549   9.614  18.380  0.00  0.00    +0.000 A 
ATOM     13  N   UNL     1       1.102  10.860  18.147  0.00  0.00    +0.000 N 
ATOM     14  C   UNL     1       0.148  11.608  18.943  0.00  0.00    +0.000 C 
ATOM     15  C   UNL     1      -0.678  10.844  20.003  0.00  0.00    +0.000 C 
ATOM     16  H   UNL     1       1.274  11.241  17.221  0.00  0.00    +0.000 HD
ENDROOT
BRANCH  14  17
ATOM     17  C   UNL     1       0.834  12.872  19.451  0.00  0.00    +0.000 A 
ATOM     18  C   UNL     1       1.846  12.840  20.422  0.00  0.00    +0.000 A 
ATOM     19  C   UNL     1       2.280  14.027  21.015  0.00  0.00    +0.000 A 
ATOM     20  C   UNL     1       1.746  15.242  20.589  0.00  0.00    +0.000 A 
ATOM     21  F   UNL     1       2.129  16.367  21.209  0.00  0.00    +0.000 F 
ATOM     22  C   UNL     1       0.829  15.305  19.562  0.00  0.00    +0.000 A 
ATOM     23  C   UNL     1       0.384  14.117  18.993  0.00  0.00    +0.000 A 
ATOM     24  F   UNL     1      -0.514  14.184  18.004  0.00  0.00    +0.000 F 
ENDBRANCH  14  17
TORSDOF 1
ENDMDL
MODEL 4
REMARK VINA RESULT:      -7.3      6.663      8.262
REMARK  Name = 
REMARK  1 active torsions:
REMARK  status: ('A' for Active; 'I' for Inactive)
REMARK    1  A    between atoms: C_14  and  C_15
REMARK                            x       y       z     vdW  Elec       q    Type
REMARK                         _______ _______ _______ _____ _____    ______ ____
ROOT
ATOM      1  O   UNL     1       1.041   9.552  21.054  0.00  0.00    +0.000 OA
ATOM      2  C   UNL     1       0.518  10.650  21.279  0.00  0.00    +0.000 C 
ATOM      3  C   UNL     1      -0.797  10.687  22.014  0.00  0.00    +0.000 C 
ATOM      4  C   UNL     1      -1.040  11.921  22.847  0.00  0.00    +0.000 C 
ATOM      5  C   UNL     1      -0.416  13.211  22.372  0.00  0.00    +0.000 C 
ATOM      6  C   UNL     1       0.513  13.208  21.169  0.00  0.00    +0.000 C 
ATOM      7  N   UNL     1       0.795  14.415  20.793  0.00  0.00    +0.000 NA
ATOM      8  C   UNL     1       1.711  14.675  19.782  0.00  0.00    +0.000 A 
ATOM      9  N   UNL     1       2.277  15.878  19.754  0.00  0.00    +0.000 NA
ATOM     10  O   UNL     1       3.005  15.891  18.570  0.00  0.00    +0.000 OA
ATOM     11  N   UNL     1       2.876  14.689  17.886  0.00  0.00    +0.000 NA
ATOM     12  C   UNL     1       2.071  13.935  18.638  0.00  0.00    +0.000 A 
ATOM     13  N   UNL     1       1.675  12.703  18.275  0.00  0.00    +0.000 N 
ATOM     14  C   UNL     1       1.054  11.701  19.120  0.00  0.00    +0.000 C 
ATOM     15  C   UNL     1       1.093  11.910  20.652  0.00  0.00    +0.000 C 
ATOM     16  H   UNL     1       2.030  12.351  17.390  0.00  0.00    +0.000 HD
ENDROOT
BRANCH  14  17
ATOM     17  C   UNL     1      -0.322  11.378  18.550  0.00  0.00    +0.000 A 
ATOM     18  C   UNL     1      -1.420  12.238  18.701  0.00  0.00    +0.000 A 
ATOM     19  C   UNL     1      -2.701  11.799  18.363  0.00  0.00    +0.000 A 
ATOM     20  C   UNL     1      -2.869  10.529  17.816  0.00  0.00    +0.000 A 
ATOM     21  F   UNL     1      -4.111  10.099  17.551  0.00  0.00    +0.000 F 
ATOM     22  C   UNL     1      -1.792   9.708  17.559  0.00  0.00    +0.000 A 
ATOM     23  C   UNL     1      -0.522  10.142  17.921  0.00  0.00    +0.000 A 
ATOM     24  F   UNL     1       0.518   9.337  17.679  0.00  0.00    +0.000 F 
ENDBRANCH  14  17
TORSDOF 1
ENDMDL
MODEL 5
REMARK VINA RESULT:      -7.1      3.260      5.599
REMARK  Name = 
REMARK  1 active torsions:
REMARK  status: ('A' for Active; 'I' for Inactive)
REMARK    1  A    between atoms: C_14  and  C_15
REMARK                            x       y       z     vdW  Elec       q    Type
REMARK                         _______ _______ _______ _____ _____    ______ ____
ROOT
ATOM      1  O   UNL     1       5.699   3.895  19.538  0.00  0.00    +0.000 OA
ATOM      2  C   UNL     1       4.639   3.892  18.902  0.00  0.00    +0.000 C 
ATOM      3  C   UNL     1       4.207   2.618  18.224  0.00  0.00    +0.000 C 
ATOM      4  C   UNL     1       2.717   2.429  18.087  0.00  0.00    +0.000 C 
ATOM      5  C   UNL     1       1.871   3.671  17.943  0.00  0.00    +0.000 C 
ATOM      6  C   UNL     1       2.513   5.044  18.059  0.00  0.00    +0.000 C 
ATOM      7  N   UNL     1       1.683   5.978  17.720  0.00  0.00    +0.000 NA
ATOM      8  C   UNL     1       1.999   7.325  17.845  0.00  0.00    +0.000 A 
ATOM      9  N   UNL     1       0.995   8.193  17.915  0.00  0.00    +0.000 NA
ATOM     10  O   UNL     1       1.610   9.439  17.876  0.00  0.00    +0.000 OA
ATOM     11  N   UNL     1       2.990   9.316  17.785  0.00  0.00    +0.000 NA
ATOM     12  C   UNL     1       3.232   8.004  17.765  0.00  0.00    +0.000 A 
ATOM     13  N   UNL     1       4.467   7.490  17.636  0.00  0.00    +0.000 N 
ATOM     14  C   UNL     1       4.874   6.120  17.887  0.00  0.00    +0.000 C 
ATOM     15  C   UNL     1       3.897   5.196  18.649  0.00  0.00    +0.000 C 
ATOM     16  H   UNL     1       5.233   8.155  17.567  0.00  0.00    +0.000 HD
ENDROOT
BRANCH  14  17
ATOM     17  C   UNL     1       5.429   5.540  16.591  0.00  0.00    +0.000 A 
ATOM     18  C   UNL     1       4.602   5.129  15.535  0.00  0.00    +0.000 A 
ATOM     19  C   UNL     1       5.138   4.401  14.472  0.00  0.00    +0.000 A 
ATOM     20  C   UNL     1       6.507   4.144  14.439  0.00  0.00    +0.000 A 
ATOM     21  F   UNL     1       6.998   3.393  13.442  0.00  0.00    +0.000 F 
ATOM     22  C   UNL     1       7.355   4.630  15.410  0.00  0.00    +0.000 A 
ATOM     23  C   UNL     1       6.810   5.334  16.478  0.00  0.00    +0.000 A 
ATOM     24  F   UNL     1       7.636   5.794  17.424  0.00  0.00    +0.000 F 
ENDBRANCH  14  17
TORSDOF 1
ENDMDL
MODEL 6
REMARK VINA RESULT:      -7.1      5.928      8.798
REMARK  Name = 
REMARK  1 active torsions:
REMARK  status: ('A' for Active; 'I' for Inactive)
REMARK    1  A    between atoms: C_14  and  C_15
REMARK                            x       y       z     vdW  Elec       q    Type
REMARK                         _______ _______ _______ _____ _____    ______ ____
ROOT
ATOM      1  O   UNL     1       1.217  13.306  19.596  0.00  0.00    +0.000 OA
ATOM      2  C   UNL     1       0.121  12.998  20.079  0.00  0.00    +0.000 C 
ATOM      3  C   UNL     1       0.003  12.861  21.575  0.00  0.00    +0.000 C 
ATOM      4  C   UNL     1      -1.355  13.179  22.151  0.00  0.00    +0.000 C 
ATOM      5  C   UNL     1      -2.558  12.901  21.282  0.00  0.00    +0.000 C 
ATOM      6  C   UNL     1      -2.367  12.438  19.846  0.00  0.00    +0.000 C 
ATOM      7  N   UNL     1      -3.491  12.067  19.322  0.00  0.00    +0.000 NA
ATOM      8  C   UNL     1      -3.595  11.704  17.985  0.00  0.00    +0.000 A 
ATOM      9  N   UNL     1      -4.795  11.774  17.416  0.00  0.00    +0.000 NA
ATOM     10  O   UNL     1      -4.614  11.213  16.158  0.00  0.00    +0.000 OA
ATOM     11  N   UNL     1      -3.300  10.805  15.971  0.00  0.00    +0.000 NA
ATOM     12  C   UNL     1      -2.668  11.110  17.107  0.00  0.00    +0.000 A 
ATOM     13  N   UNL     1      -1.372  10.821  17.321  0.00  0.00    +0.000 N 
ATOM     14  C   UNL     1      -0.523  11.348  18.372  0.00  0.00    +0.000 C 
ATOM     15  C   UNL     1      -1.022  12.575  19.169  0.00  0.00    +0.000 C 
ATOM     16  H   UNL     1      -0.875  10.362  16.563  0.00  0.00    +0.000 HD
ENDROOT
BRANCH  14  17
ATOM     17  C   UNL     1      -0.036  10.182  19.225  0.00  0.00    +0.000 A 
ATOM     18  C   UNL     1      -0.678   9.799  20.412  0.00  0.00    +0.000 A 
ATOM     19  C   UNL     1      -0.069   8.881  21.269  0.00  0.00    +0.000 A 
ATOM     20  C   UNL     1       1.146   8.304  20.905  0.00  0.00    +0.000 A 
ATOM     21  F   UNL     1       1.747   7.469  21.764  0.00  0.00    +0.000 F 
ATOM     22  C   UNL     1       1.741   8.584  19.694  0.00  0.00    +0.000 A 
ATOM     23  C   UNL     1       1.141   9.518  18.857  0.00  0.00    +0.000 A 
ATOM     24  F   UNL     1       1.729   9.795  17.688  0.00  0.00    +0.000 F 
ENDBRANCH  14  17
TORSDOF 1
ENDMDL
MODEL 7
REMARK VINA RESULT:      -7.0      3.064      4.802
REMARK  Name = 
REMARK  1 active torsions:
REMARK  status: ('A' for Active; 'I' for Inactive)
REMARK    1  A    between atoms: C_14  and  C_15
REMARK                            x       y       z     vdW  Elec       q    Type
REMARK                         _______ _______ _______ _____ _____    ______ ____
ROOT
ATOM      1  O   UNL     1       5.328   4.971  20.282  0.00  0.00    +0.000 OA
ATOM      2  C   UNL     1       4.776   5.559  19.344  0.00  0.00    +0.000 C 
ATOM      3  C   UNL     1       3.518   6.340  19.622  0.00  0.00    +0.000 C 
ATOM      4  C   UNL     1       3.285   7.533  18.729  0.00  0.00    +0.000 C 
ATOM      5  C   UNL     1       3.816   7.457  17.318  0.00  0.00    +0.000 C 
ATOM      6  C   UNL     1       4.656   6.265  16.885  0.00  0.00    +0.000 C 
ATOM      7  N   UNL     1       4.858   6.275  15.607  0.00  0.00    +0.000 NA
ATOM      8  C   UNL     1       5.686   5.349  14.985  0.00  0.00    +0.000 A 
ATOM      9  N   UNL     1       6.197   5.672  13.802  0.00  0.00    +0.000 NA
ATOM     10  O   UNL     1       6.836   4.514  13.373  0.00  0.00    +0.000 OA
ATOM     11  N   UNL     1       6.709   3.494  14.306  0.00  0.00    +0.000 NA
ATOM     12  C   UNL     1       5.994   4.012  15.307  0.00  0.00    +0.000 A 
ATOM     13  N   UNL     1       5.625   3.300  16.386  0.00  0.00    +0.000 N 
ATOM     14  C   UNL     1       5.110   3.818  17.639  0.00  0.00    +0.000 C 
ATOM     15  C   UNL     1       5.250   5.332  17.917  0.00  0.00    +0.000 C 
ATOM     16  H   UNL     1       5.929   2.331  16.419  0.00  0.00    +0.000 HD
ENDROOT
BRANCH  14  17
ATOM     17  C   UNL     1       3.710   3.252  17.853  0.00  0.00    +0.000 A 
ATOM     18  C   UNL     1       2.589   3.739  17.166  0.00  0.00    +0.000 A 
ATOM     19  C   UNL     1       1.308   3.349  17.558  0.00  0.00    +0.000 A 
ATOM     20  C   UNL     1       1.158   2.426  18.591  0.00  0.00    +0.000 A 
ATOM     21  F   UNL     1      -0.079   2.105  18.996  0.00  0.00    +0.000 F 
ATOM     22  C   UNL     1       2.249   1.852  19.208  0.00  0.00    +0.000 A 
ATOM     23  C   UNL     1       3.521   2.265  18.828  0.00  0.00    +0.000 A 
ATOM     24  F   UNL     1       4.576   1.714  19.439  0.00  0.00    +0.000 F 
ENDBRANCH  14  17
TORSDOF 1
ENDMDL
MODEL 8
REMARK VINA RESULT:      -7.0     10.236     12.185
REMARK  Name = 
REMARK  1 active torsions:
REMARK  status: ('A' for Active; 'I' for Inactive)
REMARK    1  A    between atoms: C_14  and  C_15
REMARK                            x       y       z     vdW  Elec       q    Type
REMARK                         _______ _______ _______ _____ _____    ______ ____
ROOT
ATOM      1  O   UNL     1      11.248  14.987  16.996  0.00  0.00    +0.000 OA
ATOM      2  C   UNL     1      11.099  15.416  18.147  0.00  0.00    +0.000 C 
ATOM      3  C   UNL     1      12.112  15.037  19.196  0.00  0.00    +0.000 C 
ATOM      4  C   UNL     1      12.316  16.050  20.296  0.00  0.00    +0.000 C 
ATOM      5  C   UNL     1      11.132  16.905  20.679  0.00  0.00    +0.000 C 
ATOM      6  C   UNL     1       9.838  16.810  19.886  0.00  0.00    +0.000 C 
ATOM      7  N   UNL     1       8.884  17.463  20.469  0.00  0.00    +0.000 NA
ATOM      8  C   UNL     1       7.633  17.615  19.885  0.00  0.00    +0.000 A 
ATOM      9  N   UNL     1       6.879  18.631  20.293  0.00  0.00    +0.000 NA
ATOM     10  O   UNL     1       5.658  18.433  19.659  0.00  0.00    +0.000 OA
ATOM     11  N   UNL     1       5.682  17.294  18.865  0.00  0.00    +0.000 NA
ATOM     12  C   UNL     1       6.908  16.786  19.006  0.00  0.00    +0.000 A 
ATOM     13  N   UNL     1       7.297  15.642  18.416  0.00  0.00    +0.000 N 
ATOM     14  C   UNL     1       8.656  15.156  18.265  0.00  0.00    +0.000 C 
ATOM     15  C   UNL     1       9.818  16.141  18.530  0.00  0.00    +0.000 C 
ATOM     16  H   UNL     1       6.610  15.173  17.833  0.00  0.00    +0.000 HD
ENDROOT
BRANCH  14  17
ATOM     17  C   UNL     1       8.770  13.818  18.985  0.00  0.00    +0.000 A 
ATOM     18  C   UNL     1       8.773  13.714  20.384  0.00  0.00    +0.000 A 
ATOM     19  C   UNL     1       9.106  12.503  20.992  0.00  0.00    +0.000 A 
ATOM     20  C   UNL     1       9.369  11.387  20.200  0.00  0.00    +0.000 A 
ATOM     21  F   UNL     1       9.745  10.247  20.797  0.00  0.00    +0.000 F 
ATOM     22  C   UNL     1       9.266  11.438  18.827  0.00  0.00    +0.000 A 
ATOM     23  C   UNL     1       8.958  12.654  18.228  0.00  0.00    +0.000 A 
ATOM     24  F   UNL     1       8.871  12.701  16.894  0.00  0.00    +0.000 F 
ENDBRANCH  14  17
TORSDOF 1
ENDMDL
MODEL 9
REMARK VINA RESULT:      -6.9      6.254      8.049
REMARK  Name = 
REMARK  1 active torsions:
REMARK  status: ('A' for Active; 'I' for Inactive)
REMARK    1  A    between atoms: C_14  and  C_15
REMARK                            x       y       z     vdW  Elec       q    Type
REMARK                         _______ _______ _______ _____ _____    ______ ____
ROOT
ATOM      1  O   UNL     1       1.546   8.875  20.019  0.00  0.00    +0.000 OA
ATOM      2  C   UNL     1       0.775   9.491  20.765  0.00  0.00    +0.000 C 
ATOM      3  C   UNL     1      -0.401   8.756  21.355  0.00  0.00    +0.000 C 
ATOM      4  C   UNL     1      -0.867   9.252  22.701  0.00  0.00    +0.000 C 
ATOM      5  C   UNL     1      -0.681  10.720  23.001  0.00  0.00    +0.000 C 
ATOM      6  C   UNL     1       0.062  11.608  22.016  0.00  0.00    +0.000 C 
ATOM      7  N   UNL     1      -0.043  12.857  22.342  0.00  0.00    +0.000 NA
ATOM      8  C   UNL     1       0.638  13.856  21.657  0.00  0.00    +0.000 A 
ATOM      9  N   UNL     1       0.848  15.007  22.289  0.00  0.00    +0.000 NA
ATOM     10  O   UNL     1       1.396  15.839  21.320  0.00  0.00    +0.000 OA
ATOM     11  N   UNL     1       1.516  15.183  20.103  0.00  0.00    +0.000 NA
ATOM     12  C   UNL     1       1.045  13.952  20.312  0.00  0.00    +0.000 A 
ATOM     13  N   UNL     1       0.957  13.028  19.339  0.00  0.00    +0.000 N 
ATOM     14  C   UNL     1       0.739  11.603  19.505  0.00  0.00    +0.000 C 
ATOM     15  C   UNL     1       0.905  10.998  20.918  0.00  0.00    +0.000 C 
ATOM     16  H   UNL     1       1.285  13.303  18.417  0.00  0.00    +0.000 HD
ENDROOT
BRANCH  14  17
ATOM     17  C   UNL     1      -0.556  11.230  18.793  0.00  0.00    +0.000 A 
ATOM     18  C   UNL     1      -1.790  11.809  19.125  0.00  0.00    +0.000 A 
ATOM     19  C   UNL     1      -2.971  11.275  18.607  0.00  0.00    +0.000 A 
ATOM     20  C   UNL     1      -2.908  10.208  17.713  0.00  0.00    +0.000 A 
ATOM     21  F   UNL     1      -4.053   9.669  17.271  0.00  0.00    +0.000 F 
ATOM     22  C   UNL     1      -1.701   9.694  17.290  0.00  0.00    +0.000 A 
ATOM     23  C   UNL     1      -0.530  10.215  17.828  0.00  0.00    +0.000 A 
ATOM     24  F   UNL     1       0.638   9.704  17.423  0.00  0.00    +0.000 F 
ENDBRANCH  14  17
TORSDOF 1
ENDMDL
