MODEL 1
REMARK VINA RESULT:      -6.9      0.000      0.000
REMARK  Name = 
REMARK  3 active torsions:
REMARK  status: ('A' for Active; 'I' for Inactive)
REMARK    1  A    between atoms: C_1  and  C_2
REMARK    2  A    between atoms: C_2  and  C_3
REMARK    3  A    between atoms: C_17  and  C_18
REMARK                            x       y       z     vdW  Elec       q    Type
REMARK                         _______ _______ _______ _____ _____    ______ ____
ROOT
ATOM      1  C   UNL     1       5.084   3.644  16.234  0.00  0.00    +0.000 C 
ATOM      2  O   UNL     1       5.147   2.428  15.999  0.00  0.00    +0.000 OA
ATOM      3  N   UNL     1       4.648   4.145  17.457  0.00  0.00    +0.000 N 
ATOM      4  C   UNL     1       4.494   3.130  18.604  0.00  0.00    +0.000 C 
ATOM      5  C   UNL     1       3.061   2.812  19.120  0.00  0.00    +0.000 A 
ATOM      6  C   UNL     1       2.264   1.921  18.358  0.00  0.00    +0.000 A 
ATOM      7  C   UNL     1       0.861   1.919  18.462  0.00  0.00    +0.000 A 
ATOM      8  C   UNL     1       0.232   2.719  19.408  0.00  0.00    +0.000 A 
ATOM      9  C   UNL     1       0.975   3.541  20.249  0.00  0.00    +0.000 A 
ATOM     10  C   UNL     1       2.396   3.659  20.081  0.00  0.00    +0.000 A 
ATOM     11  C   UNL     1       2.963   5.071  20.426  0.00  0.00    +0.000 C 
ATOM     12  N   UNL     1       2.460   6.002  19.374  0.00  0.00    +0.000 NA
ATOM     13  C   UNL     1       3.162   7.216  18.925  0.00  0.00    +0.000 C 
ATOM     14  C   UNL     1       3.673   6.853  17.294  0.00  0.00    +0.000 C 
ATOM     15  C   UNL     1       4.356   5.583  17.772  0.00  0.00    +0.000 C 
ATOM     16  C   UNL     1       2.736   5.346  18.140  0.00  0.00    +0.000 C 
ENDROOT
BRANCH  15  17
ATOM     17  C   UNL     1       5.768   6.460  18.164  0.00  0.00    +0.000 A 
ATOM     18  C   UNL     1       6.253   7.612  17.391  0.00  0.00    +0.000 A 
ATOM     19  C   UNL     1       7.541   8.155  17.407  0.00  0.00    +0.000 A 
ATOM     20  C   UNL     1       8.462   7.617  18.254  0.00  0.00    +0.000 A 
ATOM     21  C   UNL     1       8.067   6.552  19.075  0.00  0.00    +0.000 A 
ATOM     22  C   UNL     1       6.750   5.979  19.036  0.00  0.00    +0.000 A 
ENDBRANCH  15  17
BRANCH   1  24
ATOM     23  C   UNL     1       7.061   4.784  15.127  0.00  0.00    +0.000 C 
ATOM     24  C   UNL     1       5.548   4.677  15.218  0.00  0.00    +0.000 C 
ENDBRANCH   1  24
TORSDOF 2
ENDMDL
MODEL 2
REMARK VINA RESULT:      -6.4      8.358     10.684
REMARK  Name = 
REMARK  3 active torsions:
REMARK  status: ('A' for Active; 'I' for Inactive)
REMARK    1  A    between atoms: C_1  and  C_2
REMARK    2  A    between atoms: C_2  and  C_3
REMARK    3  A    between atoms: C_17  and  C_18
REMARK                            x       y       z     vdW  Elec       q    Type
REMARK                         _______ _______ _______ _____ _____    ______ ____
ROOT
ATOM      1  C   UNL     1       0.412  14.988  22.513  0.00  0.00    +0.000 C 
ATOM      2  O   UNL     1      -0.319  14.938  23.514  0.00  0.00    +0.000 OA
ATOM      3  N   UNL     1       0.212  14.169  21.405  0.00  0.00    +0.000 N 
ATOM      4  C   UNL     1      -1.109  13.382  21.356  0.00  0.00    +0.000 C 
ATOM      5  C   UNL     1      -1.050  11.833  21.498  0.00  0.00    +0.000 A 
ATOM      6  C   UNL     1      -0.890  11.293  22.799  0.00  0.00    +0.000 A 
ATOM      7  C   UNL     1      -0.380   9.997  22.998  0.00  0.00    +0.000 A 
ATOM      8  C   UNL     1      -0.129   9.172  21.907  0.00  0.00    +0.000 A 
ATOM      9  C   UNL     1      -0.360   9.621  20.611  0.00  0.00    +0.000 A 
ATOM     10  C   UNL     1      -0.760  10.979  20.371  0.00  0.00    +0.000 A 
ATOM     11  C   UNL     1      -0.217  11.577  19.037  0.00  0.00    +0.000 C 
ATOM     12  N   UNL     1       1.259  11.725  19.205  0.00  0.00    +0.000 NA
ATOM     13  C   UNL     1       2.081  12.743  18.529  0.00  0.00    +0.000 C 
ATOM     14  C   UNL     1       2.587  13.821  19.807  0.00  0.00    +0.000 C 
ATOM     15  C   UNL     1       1.143  14.018  20.237  0.00  0.00    +0.000 C 
ATOM     16  C   UNL     1       1.422  12.379  20.460  0.00  0.00    +0.000 C 
ENDROOT
BRANCH  15  17
ATOM     17  C   UNL     1       0.942  15.260  19.082  0.00  0.00    +0.000 A 
ATOM     18  C   UNL     1       2.006  16.202  18.705  0.00  0.00    +0.000 A 
ATOM     19  C   UNL     1       1.850  17.436  18.067  0.00  0.00    +0.000 A 
ATOM     20  C   UNL     1       0.598  17.822  17.694  0.00  0.00    +0.000 A 
ATOM     21  C   UNL     1      -0.470  16.955  17.960  0.00  0.00    +0.000 A 
ATOM     22  C   UNL     1      -0.311  15.698  18.641  0.00  0.00    +0.000 A 
ENDBRANCH  15  17
BRANCH   1  24
ATOM     23  C   UNL     1       1.051  17.404  22.086  0.00  0.00    +0.000 C 
ATOM     24  C   UNL     1       1.541  16.000  22.399  0.00  0.00    +0.000 C 
ENDBRANCH   1  24
TORSDOF 2
ENDMDL
MODEL 3
REMARK VINA RESULT:      -6.3     11.268     13.654
REMARK  Name = 
REMARK  3 active torsions:
REMARK  status: ('A' for Active; 'I' for Inactive)
REMARK    1  A    between atoms: C_1  and  C_2
REMARK    2  A    between atoms: C_2  and  C_3
REMARK    3  A    between atoms: C_17  and  C_18
REMARK                            x       y       z     vdW  Elec       q    Type
REMARK                         _______ _______ _______ _____ _____    ______ ____
ROOT
ATOM      1  C   UNL     1      -3.978  11.923  18.792  0.00  0.00    +0.000 C 
ATOM      2  O   UNL     1      -2.757  11.703  18.822  0.00  0.00    +0.000 OA
ATOM      3  N   UNL     1      -4.592  12.828  19.652  0.00  0.00    +0.000 N 
ATOM      4  C   UNL     1      -3.663  13.745  20.469  0.00  0.00    +0.000 C 
ATOM      5  C   UNL     1      -3.594  13.540  22.010  0.00  0.00    +0.000 A 
ATOM      6  C   UNL     1      -2.806  12.470  22.501  0.00  0.00    +0.000 A 
ATOM      7  C   UNL     1      -3.026  11.922  23.779  0.00  0.00    +0.000 A 
ATOM      8  C   UNL     1      -3.955  12.504  24.635  0.00  0.00    +0.000 A 
ATOM      9  C   UNL     1      -4.687  13.618  24.236  0.00  0.00    +0.000 A 
ATOM     10  C   UNL     1      -4.575  14.120  22.896  0.00  0.00    +0.000 A 
ATOM     11  C   UNL     1      -5.895  14.732  22.333  0.00  0.00    +0.000 C 
ATOM     12  N   UNL     1      -6.847  13.597  22.148  0.00  0.00    +0.000 NA
ATOM     13  C   UNL     1      -7.917  13.558  21.137  0.00  0.00    +0.000 C 
ATOM     14  C   UNL     1      -7.409  12.328  20.005  0.00  0.00    +0.000 C 
ATOM     15  C   UNL     1      -6.070  13.023  19.824  0.00  0.00    +0.000 C 
ATOM     16  C   UNL     1      -6.103  12.604  21.448  0.00  0.00    +0.000 C 
ENDROOT
BRANCH  15  17
ATOM     17  C   UNL     1      -6.734  14.044  18.627  0.00  0.00    +0.000 A 
ATOM     18  C   UNL     1      -7.196  13.569  17.315  0.00  0.00    +0.000 A 
ATOM     19  C   UNL     1      -7.410  14.339  16.168  0.00  0.00    +0.000 A 
ATOM     20  C   UNL     1      -7.226  15.687  16.247  0.00  0.00    +0.000 A 
ATOM     21  C   UNL     1      -6.844  16.234  17.479  0.00  0.00    +0.000 A 
ATOM     22  C   UNL     1      -6.600  15.436  18.650  0.00  0.00    +0.000 A 
ENDBRANCH  15  17
BRANCH   1  24
ATOM     23  C   UNL     1      -4.275  11.243  16.367  0.00  0.00    +0.000 C 
ATOM     24  C   UNL     1      -4.881  11.265  17.760  0.00  0.00    +0.000 C 
ENDBRANCH   1  24
TORSDOF 2
ENDMDL
MODEL 4
REMARK VINA RESULT:      -6.2      0.522      1.098
REMARK  Name = 
REMARK  3 active torsions:
REMARK  status: ('A' for Active; 'I' for Inactive)
REMARK    1  A    between atoms: C_1  and  C_2
REMARK    2  A    between atoms: C_2  and  C_3
REMARK    3  A    between atoms: C_17  and  C_18
REMARK                            x       y       z     vdW  Elec       q    Type
REMARK                         _______ _______ _______ _____ _____    ______ ____
ROOT
ATOM      1  C   UNL     1       5.188   3.546  15.891  0.00  0.00    +0.000 C 
ATOM      2  O   UNL     1       5.158   2.314  15.740  0.00  0.00    +0.000 OA
ATOM      3  N   UNL     1       4.883   4.154  17.105  0.00  0.00    +0.000 N 
ATOM      4  C   UNL     1       4.762   3.229  18.331  0.00  0.00    +0.000 C 
ATOM      5  C   UNL     1       3.358   3.042  18.976  0.00  0.00    +0.000 A 
ATOM      6  C   UNL     1       2.450   2.158  18.342  0.00  0.00    +0.000 A 
ATOM      7  C   UNL     1       1.062   2.255  18.553  0.00  0.00    +0.000 A 
ATOM      8  C   UNL     1       0.562   3.157  19.486  0.00  0.00    +0.000 A 
ATOM      9  C   UNL     1       1.420   3.981  20.206  0.00  0.00    +0.000 A 
ATOM     10  C   UNL     1       2.827   3.993  19.922  0.00  0.00    +0.000 A 
ATOM     11  C   UNL     1       3.505   5.384  20.121  0.00  0.00    +0.000 C 
ATOM     12  N   UNL     1       2.976   6.275  19.047  0.00  0.00    +0.000 NA
ATOM     13  C   UNL     1       3.711   7.407  18.460  0.00  0.00    +0.000 C 
ATOM     14  C   UNL     1       4.065   6.904  16.825  0.00  0.00    +0.000 C 
ATOM     15  C   UNL     1       4.707   5.626  17.338  0.00  0.00    +0.000 C 
ATOM     16  C   UNL     1       3.110   5.521  17.845  0.00  0.00    +0.000 C 
ENDROOT
BRANCH  15  17
ATOM     17  C   UNL     1       6.196   6.432  17.558  0.00  0.00    +0.000 A 
ATOM     18  C   UNL     1       7.194   6.041  18.563  0.00  0.00    +0.000 A 
ATOM     19  C   UNL     1       8.244   6.823  19.055  0.00  0.00    +0.000 A 
ATOM     20  C   UNL     1       8.424   8.070  18.537  0.00  0.00    +0.000 A 
ATOM     21  C   UNL     1       7.554   8.501  17.527  0.00  0.00    +0.000 A 
ATOM     22  C   UNL     1       6.459   7.705  17.042  0.00  0.00    +0.000 A 
ENDBRANCH  15  17
BRANCH   1  24
ATOM     23  C   UNL     1       7.138   4.648  14.703  0.00  0.00    +0.000 C 
ATOM     24  C   UNL     1       5.630   4.475  14.772  0.00  0.00    +0.000 C 
ENDBRANCH   1  24
TORSDOF 2
ENDMDL
MODEL 5
REMARK VINA RESULT:      -6.2      8.961     12.117
REMARK  Name = 
REMARK  3 active torsions:
REMARK  status: ('A' for Active; 'I' for Inactive)
REMARK    1  A    between atoms: C_1  and  C_2
REMARK    2  A    between atoms: C_2  and  C_3
REMARK    3  A    between atoms: C_17  and  C_18
REMARK                            x       y       z     vdW  Elec       q    Type
REMARK                         _______ _______ _______ _____ _____    ______ ____
ROOT
ATOM      1  C   UNL     1      -0.830  11.130  21.453  0.00  0.00    +0.000 C 
ATOM      2  O   UNL     1      -0.476  10.314  20.588  0.00  0.00    +0.000 OA
ATOM      3  N   UNL     1      -1.150  12.449  21.145  0.00  0.00    +0.000 N 
ATOM      4  C   UNL     1      -1.304  12.793  19.653  0.00  0.00    +0.000 C 
ATOM      5  C   UNL     1      -0.245  13.729  19.000  0.00  0.00    +0.000 A 
ATOM      6  C   UNL     1       1.005  13.167  18.641  0.00  0.00    +0.000 A 
ATOM      7  C   UNL     1       2.151  13.968  18.481  0.00  0.00    +0.000 A 
ATOM      8  C   UNL     1       2.050  15.352  18.563  0.00  0.00    +0.000 A 
ATOM      9  C   UNL     1       0.825  15.960  18.818  0.00  0.00    +0.000 A 
ATOM     10  C   UNL     1      -0.335  15.166  19.109  0.00  0.00    +0.000 A 
ATOM     11  C   UNL     1      -1.324  15.829  20.117  0.00  0.00    +0.000 C 
ATOM     12  N   UNL     1      -0.636  15.849  21.441  0.00  0.00    +0.000 NA
ATOM     13  C   UNL     1      -1.322  15.798  22.742  0.00  0.00    +0.000 C 
ATOM     14  C   UNL     1      -0.910  14.232  23.398  0.00  0.00    +0.000 C 
ATOM     15  C   UNL     1      -1.402  13.552  22.131  0.00  0.00    +0.000 C 
ATOM     16  C   UNL     1      -0.136  14.526  21.615  0.00  0.00    +0.000 C 
ENDROOT
BRANCH  15  17
ATOM     17  C   UNL     1      -3.000  13.534  22.732  0.00  0.00    +0.000 A 
ATOM     18  C   UNL     1      -3.376  12.965  24.033  0.00  0.00    +0.000 A 
ATOM     19  C   UNL     1      -4.655  12.583  24.448  0.00  0.00    +0.000 A 
ATOM     20  C   UNL     1      -5.702  12.791  23.601  0.00  0.00    +0.000 A 
ATOM     21  C   UNL     1      -5.442  13.388  22.359  0.00  0.00    +0.000 A 
ATOM     22  C   UNL     1      -4.122  13.754  21.925  0.00  0.00    +0.000 A 
ENDBRANCH  15  17
BRANCH   1  24
ATOM     23  C   UNL     1      -0.138   9.542  23.305  0.00  0.00    +0.000 C 
ATOM     24  C   UNL     1      -1.007  10.723  22.908  0.00  0.00    +0.000 C 
ENDBRANCH   1  24
TORSDOF 2
ENDMDL
MODEL 6
REMARK VINA RESULT:      -6.2     10.068     12.513
REMARK  Name = 
REMARK  3 active torsions:
REMARK  status: ('A' for Active; 'I' for Inactive)
REMARK    1  A    between atoms: C_1  and  C_2
REMARK    2  A    between atoms: C_2  and  C_3
REMARK    3  A    between atoms: C_17  and  C_18
REMARK                            x       y       z     vdW  Elec       q    Type
REMARK                         _______ _______ _______ _____ _____    ______ ____
ROOT
ATOM      1  C   UNL     1      -4.461  12.581  20.664  0.00  0.00    +0.000 C 
ATOM      2  O   UNL     1      -5.697  12.479  20.699  0.00  0.00    +0.000 OA
ATOM      3  N   UNL     1      -3.713  12.943  21.781  0.00  0.00    +0.000 N 
ATOM      4  C   UNL     1      -4.450  12.956  23.132  0.00  0.00    +0.000 C 
ATOM      5  C   UNL     1      -4.686  14.328  23.829  0.00  0.00    +0.000 A 
ATOM      6  C   UNL     1      -5.747  15.139  23.354  0.00  0.00    +0.000 A 
ATOM      7  C   UNL     1      -5.767  16.528  23.578  0.00  0.00    +0.000 A 
ATOM      8  C   UNL     1      -4.793  17.118  24.377  0.00  0.00    +0.000 A 
ATOM      9  C   UNL     1      -3.783  16.350  24.948  0.00  0.00    +0.000 A 
ATOM     10  C   UNL     1      -3.665  14.954  24.634  0.00  0.00    +0.000 A 
ATOM     11  C   UNL     1      -2.196  14.429  24.609  0.00  0.00    +0.000 C 
ATOM     12  N   UNL     1      -1.538  15.057  23.426  0.00  0.00    +0.000 NA
ATOM     13  C   UNL     1      -0.436  14.452  22.661  0.00  0.00    +0.000 C 
ATOM     14  C   UNL     1      -1.139  14.055  21.112  0.00  0.00    +0.000 C 
ATOM     15  C   UNL     1      -2.250  13.276  21.796  0.00  0.00    +0.000 C 
ATOM     16  C   UNL     1      -2.446  14.849  22.347  0.00  0.00    +0.000 C 
ENDROOT
BRANCH  15  17
ATOM     17  C   UNL     1      -1.267  11.881  21.860  0.00  0.00    +0.000 A 
ATOM     18  C   UNL     1      -0.737  11.202  20.670  0.00  0.00    +0.000 A 
ATOM     19  C   UNL     1      -0.246   9.895  20.595  0.00  0.00    +0.000 A 
ATOM     20  C   UNL     1      -0.189   9.155  21.738  0.00  0.00    +0.000 A 
ATOM     21  C   UNL     1      -0.617   9.748  22.933  0.00  0.00    +0.000 A 
ATOM     22  C   UNL     1      -1.148  11.082  23.002  0.00  0.00    +0.000 A 
ENDBRANCH  15  17
BRANCH   1  24
ATOM     23  C   UNL     1      -4.478  11.477  18.381  0.00  0.00    +0.000 C 
ATOM     24  C   UNL     1      -3.669  12.248  19.410  0.00  0.00    +0.000 C 
ENDBRANCH   1  24
TORSDOF 2
ENDMDL
MODEL 7
REMARK VINA RESULT:      -6.2      2.030      3.762
REMARK  Name = 
REMARK  3 active torsions:
REMARK  status: ('A' for Active; 'I' for Inactive)
REMARK    1  A    between atoms: C_1  and  C_2
REMARK    2  A    between atoms: C_2  and  C_3
REMARK    3  A    between atoms: C_17  and  C_18
REMARK                            x       y       z     vdW  Elec       q    Type
REMARK                         _______ _______ _______ _____ _____    ______ ____
ROOT
ATOM      1  C   UNL     1       2.304   6.782  17.771  0.00  0.00    +0.000 C 
ATOM      2  O   UNL     1       1.071   6.910  17.832  0.00  0.00    +0.000 OA
ATOM      3  N   UNL     1       2.930   5.544  17.886  0.00  0.00    +0.000 N 
ATOM      4  C   UNL     1       2.022   4.302  17.827  0.00  0.00    +0.000 C 
ATOM      5  C   UNL     1       1.854   3.451  19.119  0.00  0.00    +0.000 A 
ATOM      6  C   UNL     1       0.970   3.929  20.118  0.00  0.00    +0.000 A 
ATOM      7  C   UNL     1       1.081   3.513  21.458  0.00  0.00    +0.000 A 
ATOM      8  C   UNL     1       1.998   2.528  21.807  0.00  0.00    +0.000 A 
ATOM      9  C   UNL     1       2.825   1.956  20.845  0.00  0.00    +0.000 A 
ATOM     10  C   UNL     1       2.821   2.448  19.496  0.00  0.00    +0.000 A 
ATOM     11  C   UNL     1       4.209   2.372  18.788  0.00  0.00    +0.000 C 
ATOM     12  N   UNL     1       5.091   3.367  19.467  0.00  0.00    +0.000 NA
ATOM     13  C   UNL     1       6.209   4.073  18.820  0.00  0.00    +0.000 C 
ATOM     14  C   UNL     1       5.683   5.735  18.719  0.00  0.00    +0.000 C 
ATOM     15  C   UNL     1       4.406   5.307  18.016  0.00  0.00    +0.000 C 
ATOM     16  C   UNL     1       4.321   4.565  19.519  0.00  0.00    +0.000 C 
ENDROOT
BRANCH  15  17
ATOM     17  C   UNL     1       5.202   5.325  16.506  0.00  0.00    +0.000 A 
ATOM     18  C   UNL     1       5.044   4.277  15.488  0.00  0.00    +0.000 A 
ATOM     19  C   UNL     1       5.895   4.015  14.410  0.00  0.00    +0.000 A 
ATOM     20  C   UNL     1       6.972   4.827  14.219  0.00  0.00    +0.000 A 
ATOM     21  C   UNL     1       7.165   5.892  15.109  0.00  0.00    +0.000 A 
ATOM     22  C   UNL     1       6.304   6.143  16.233  0.00  0.00    +0.000 A 
ENDBRANCH  15  17
BRANCH   1  24
ATOM     23  C   UNL     1       2.565   9.304  17.807  0.00  0.00    +0.000 C 
ATOM     24  C   UNL     1       3.216   7.967  17.496  0.00  0.00    +0.000 C 
ENDBRANCH   1  24
TORSDOF 2
ENDMDL
MODEL 8
REMARK VINA RESULT:      -6.0      9.028     11.467
REMARK  Name = 
REMARK  3 active torsions:
REMARK  status: ('A' for Active; 'I' for Inactive)
REMARK    1  A    between atoms: C_1  and  C_2
REMARK    2  A    between atoms: C_2  and  C_3
REMARK    3  A    between atoms: C_17  and  C_18
REMARK                            x       y       z     vdW  Elec       q    Type
REMARK                         _______ _______ _______ _____ _____    ______ ____
ROOT
ATOM      1  C   UNL     1      -3.099  11.881  18.942  0.00  0.00    +0.000 C 
ATOM      2  O   UNL     1      -4.251  11.724  18.510  0.00  0.00    +0.000 OA
ATOM      3  N   UNL     1      -2.841  12.447  20.187  0.00  0.00    +0.000 N 
ATOM      4  C   UNL     1      -4.047  12.631  21.126  0.00  0.00    +0.000 C 
ATOM      5  C   UNL     1      -4.518  14.080  21.446  0.00  0.00    +0.000 A 
ATOM      6  C   UNL     1      -5.297  14.754  20.473  0.00  0.00    +0.000 A 
ATOM      7  C   UNL     1      -5.384  16.158  20.446  0.00  0.00    +0.000 A 
ATOM      8  C   UNL     1      -4.792  16.912  21.453  0.00  0.00    +0.000 A 
ATOM      9  C   UNL     1      -4.096  16.293  22.486  0.00  0.00    +0.000 A 
ATOM     10  C   UNL     1      -3.884  14.873  22.472  0.00  0.00    +0.000 A 
ATOM     11  C   UNL     1      -2.529  14.425  23.103  0.00  0.00    +0.000 C 
ATOM     12  N   UNL     1      -1.453  14.896  22.183  0.00  0.00    +0.000 NA
ATOM     13  C   UNL     1      -0.148  14.236  22.014  0.00  0.00    +0.000 C 
ATOM     14  C   UNL     1      -0.195  13.572  20.399  0.00  0.00    +0.000 C 
ATOM     15  C   UNL     1      -1.496  12.852  20.714  0.00  0.00    +0.000 C 
ATOM     16  C   UNL     1      -1.870  14.479  20.886  0.00  0.00    +0.000 C 
ENDROOT
BRANCH  15  17
ATOM     17  C   UNL     1      -0.635  11.535  21.378  0.00  0.00    +0.000 A 
ATOM     18  C   UNL     1       0.182  10.610  20.580  0.00  0.00    +0.000 A 
ATOM     19  C   UNL     1       0.616   9.334  20.953  0.00  0.00    +0.000 A 
ATOM     20  C   UNL     1       0.310   8.883  22.202  0.00  0.00    +0.000 A 
ATOM     21  C   UNL     1      -0.416   9.727  23.053  0.00  0.00    +0.000 A 
ATOM     22  C   UNL     1      -0.883  11.027  22.658  0.00  0.00    +0.000 A 
ENDBRANCH  15  17
BRANCH   1  24
ATOM     23  C   UNL     1      -2.061  10.007  17.585  0.00  0.00    +0.000 C 
ATOM     24  C   UNL     1      -1.884  11.400  18.164  0.00  0.00    +0.000 C 
ENDBRANCH   1  24
TORSDOF 2
ENDMDL
MODEL 9
REMARK VINA RESULT:      -6.0      8.799     11.919
REMARK  Name = 
REMARK  3 active torsions:
REMARK  status: ('A' for Active; 'I' for Inactive)
REMARK    1  A    between atoms: C_1  and  C_2
REMARK    2  A    between atoms: C_2  and  C_3
REMARK    3  A    between atoms: C_17  and  C_18
REMARK                            x       y       z     vdW  Elec       q    Type
REMARK                         _______ _______ _______ _____ _____    ______ ____
ROOT
ATOM      1  C   UNL     1      -0.567  10.761  21.394  0.00  0.00    +0.000 C 
ATOM      2  O   UNL     1      -0.062  10.042  20.518  0.00  0.00    +0.000 OA
ATOM      3  N   UNL     1      -1.043  12.041  21.123  0.00  0.00    +0.000 N 
ATOM      4  C   UNL     1      -1.160  12.436  19.639  0.00  0.00    +0.000 C 
ATOM      5  C   UNL     1      -0.203  13.533  19.091  0.00  0.00    +0.000 A 
ATOM      6  C   UNL     1       1.129  13.157  18.783  0.00  0.00    +0.000 A 
ATOM      7  C   UNL     1       2.165  14.107  18.726  0.00  0.00    +0.000 A 
ATOM      8  C   UNL     1       1.877  15.460  18.860  0.00  0.00    +0.000 A 
ATOM      9  C   UNL     1       0.570  15.890  19.067  0.00  0.00    +0.000 A 
ATOM     10  C   UNL     1      -0.488  14.938  19.255  0.00  0.00    +0.000 A 
ATOM     11  C   UNL     1      -1.609  15.416  20.228  0.00  0.00    +0.000 C 
ATOM     12  N   UNL     1      -1.001  15.460  21.591  0.00  0.00    +0.000 NA
ATOM     13  C   UNL     1      -1.744  15.255  22.846  0.00  0.00    +0.000 C 
ATOM     14  C   UNL     1      -1.163  13.727  23.459  0.00  0.00    +0.000 C 
ATOM     15  C   UNL     1      -1.491  13.052  22.138  0.00  0.00    +0.000 C 
ATOM     16  C   UNL     1      -0.340  14.206  21.739  0.00  0.00    +0.000 C 
ENDROOT
BRANCH  15  17
ATOM     17  C   UNL     1      -3.103  12.796  22.640  0.00  0.00    +0.000 A 
ATOM     18  C   UNL     1      -4.274  13.300  21.911  0.00  0.00    +0.000 A 
ATOM     19  C   UNL     1      -5.572  13.456  22.406  0.00  0.00    +0.000 A 
ATOM     20  C   UNL     1      -5.831  13.065  23.685  0.00  0.00    +0.000 A 
ATOM     21  C   UNL     1      -4.783  12.514  24.436  0.00  0.00    +0.000 A 
ATOM     22  C   UNL     1      -3.443  12.380  23.932  0.00  0.00    +0.000 A 
ENDBRANCH  15  17
BRANCH   1  24
ATOM     23  C   UNL     1       0.362   9.364  23.296  0.00  0.00    +0.000 C 
ATOM     24  C   UNL     1      -0.766  10.264  22.817  0.00  0.00    +0.000 C 
ENDBRANCH   1  24
TORSDOF 2
ENDMDL
