MODEL 1
REMARK VINA RESULT:      -8.5      0.000      0.000
REMARK  Name = 
REMARK  11 active torsions:
REMARK  status: ('A' for Active; 'I' for Inactive)
REMARK    1  A    between atoms: C_1  and  C_2
REMARK    2  A    between atoms: C_2  and  C_3
REMARK    3  A    between atoms: C_3  and  C_4
REMARK    4  A    between atoms: C_3  and  N_20
REMARK    5  A    between atoms: C_12  and  N_13
REMARK    6  A    between atoms: C_15  and  C_16
REMARK    7  A    between atoms: N_20  and  C_21
REMARK    8  A    between atoms: C_22  and  C_24
REMARK    9  A    between atoms: C_26  and  C_27
REMARK   10  A    between atoms: C_30  and  O_31
REMARK   11  A    between atoms: O_31  and  C_32
REMARK                            x       y       z     vdW  Elec       q    Type
REMARK                         _______ _______ _______ _____ _____    ______ ____
ROOT
ATOM      1  C   UNL     1       2.170   5.713  19.430  0.00  0.00    +0.000 A 
ATOM      2  C   UNL     1       2.365   6.850  18.599  0.00  0.00    +0.000 A 
ATOM      3  C   UNL     1       1.883   7.930  19.313  0.00  0.00    +0.000 A 
ATOM      4  N   UNL     1       1.632   9.233  18.970  0.00  0.00    +0.000 NA
ATOM      5  C   UNL     1       1.101  10.021  19.885  0.00  0.00    +0.000 A 
ATOM      6  N   UNL     1       0.720  11.304  19.536  0.00  0.00    +0.000 N 
ATOM      7  C   UNL     1      -0.133  11.575  18.385  0.00  0.00    +0.000 C 
ATOM      8  C   UNL     1      -0.200  13.099  18.330  0.00  0.00    +0.000 C 
ATOM      9  C   UNL     1       1.192  13.525  18.783  0.00  0.00    +0.000 C 
ATOM     10  C   UNL     1       1.480  12.495  19.914  0.00  0.00    +0.000 C 
ATOM     11  C   UNL     1       0.816   9.553  21.305  0.00  0.00    +0.000 A 
ATOM     12  C   UNL     1       0.164  10.449  22.306  0.00  0.00    +0.000 C 
ATOM     13  C   UNL     1       1.061   8.257  21.554  0.00  0.00    +0.000 A 
ATOM     14  N   UNL     1       1.568   7.428  20.572  0.00  0.00    +0.000 N 
ATOM     15  N   UNL     1       1.743   6.086  20.646  0.00  0.00    +0.000 NA
ENDROOT
BRANCH   9  16
ATOM     16  N   UNL     1       2.144  13.441  17.677  0.00  0.00    +0.000 NA
ATOM     17  H   UNL     1       2.777  12.651  17.833  0.00  0.00    +0.000 HD
ATOM     18  H   UNL     1       2.750  14.260  17.678  0.00  0.00    +0.000 HD
ENDBRANCH   9  16
BRANCH   1  19
ATOM     19  C   UNL     1       2.207   4.233  19.015  0.00  0.00    +0.000 C 
BRANCH  19  20
ATOM     20  N   UNL     1       3.233   3.467  19.782  0.00  0.00    +0.000 N 
ATOM     21  C   UNL     1       2.748   2.531  20.796  0.00  0.00    +0.000 C 
ATOM     22  C   UNL     1       4.609   3.313  19.492  0.00  0.00    +0.000 C 
ATOM     23  O   UNL     1       5.311   2.563  20.174  0.00  0.00    +0.000 OA
BRANCH  22  24
ATOM     24  C   UNL     1       5.311   4.044  18.397  0.00  0.00    +0.000 A 
ATOM     25  C   UNL     1       4.863   3.840  17.079  0.00  0.00    +0.000 A 
ATOM     26  C   UNL     1       5.411   4.536  15.994  0.00  0.00    +0.000 A 
ATOM     27  C   UNL     1       5.073   4.151  14.585  0.00  0.00    +0.000 C 
ATOM     28  C   UNL     1       6.268   5.602  16.245  0.00  0.00    +0.000 A 
ATOM     29  C   UNL     1       6.678   5.864  17.549  0.00  0.00    +0.000 A 
ATOM     30  C   UNL     1       6.259   5.065  18.628  0.00  0.00    +0.000 A 
BRANCH  30  31
ATOM     31  O   UNL     1       6.839   5.490  19.793  0.00  0.00    +0.000 OA
ATOM     32  C   UNL     1       8.222   5.808  19.814  0.00  0.00    +0.000 C 
ENDBRANCH  30  31
ENDBRANCH  22  24
ENDBRANCH  19  20
BRANCH  19  34
ATOM     33  C   UNL     1       0.747   2.203  18.470  0.00  0.00    +0.000 C 
ATOM     34  C   UNL     1       0.799   3.594  19.102  0.00  0.00    +0.000 C 
ENDBRANCH  19  34
ENDBRANCH   1  19
TORSDOF 6
ENDMDL
MODEL 2
REMARK VINA RESULT:      -8.4      1.324      1.381
REMARK  Name = 
REMARK  11 active torsions:
REMARK  status: ('A' for Active; 'I' for Inactive)
REMARK    1  A    between atoms: C_1  and  C_2
REMARK    2  A    between atoms: C_2  and  C_3
REMARK    3  A    between atoms: C_3  and  C_4
REMARK    4  A    between atoms: C_3  and  N_20
REMARK    5  A    between atoms: C_12  and  N_13
REMARK    6  A    between atoms: C_15  and  C_16
REMARK    7  A    between atoms: N_20  and  C_21
REMARK    8  A    between atoms: C_22  and  C_24
REMARK    9  A    between atoms: C_26  and  C_27
REMARK   10  A    between atoms: C_30  and  O_31
REMARK   11  A    between atoms: O_31  and  C_32
REMARK                            x       y       z     vdW  Elec       q    Type
REMARK                         _______ _______ _______ _____ _____    ______ ____
ROOT
ATOM      1  C   UNL     1       2.398   6.765  19.100  0.00  0.00    +0.000 A 
ATOM      2  C   UNL     1       2.201   8.062  18.552  0.00  0.00    +0.000 A 
ATOM      3  C   UNL     1       1.545   8.790  19.526  0.00  0.00    +0.000 A 
ATOM      4  N   UNL     1       0.933  10.017  19.515  0.00  0.00    +0.000 NA
ATOM      5  C   UNL     1       0.328  10.415  20.617  0.00  0.00    +0.000 A 
ATOM      6  N   UNL     1      -0.404  11.589  20.603  0.00  0.00    +0.000 N 
ATOM      7  C   UNL     1      -1.425  11.855  19.597  0.00  0.00    +0.000 C 
ATOM      8  C   UNL     1      -1.883  13.278  19.906  0.00  0.00    +0.000 C 
ATOM      9  C   UNL     1      -0.602  13.962  20.372  0.00  0.00    +0.000 C 
ATOM     10  C   UNL     1       0.067  12.833  21.210  0.00  0.00    +0.000 C 
ATOM     11  C   UNL     1       0.338   9.596  21.900  0.00  0.00    +0.000 A 
ATOM     12  C   UNL     1      -0.400  10.044  23.118  0.00  0.00    +0.000 C 
ATOM     13  C   UNL     1       0.931   8.395  21.822  0.00  0.00    +0.000 A 
ATOM     14  N   UNL     1       1.516   7.965  20.647  0.00  0.00    +0.000 N 
ATOM     15  N   UNL     1       2.033   6.739  20.391  0.00  0.00    +0.000 NA
ENDROOT
BRANCH   9  16
ATOM     16  N   UNL     1       0.206  14.379  19.228  0.00  0.00    +0.000 NA
ATOM     17  H   UNL     1       1.116  14.713  19.558  0.00  0.00    +0.000 HD
ATOM     18  H   UNL     1      -0.220  15.190  18.780  0.00  0.00    +0.000 HD
ENDBRANCH   9  16
BRANCH   1  19
ATOM     19  C   UNL     1       2.762   5.476  18.346  0.00  0.00    +0.000 C 
BRANCH  19  20
ATOM     20  N   UNL     1       3.597   4.562  19.180  0.00  0.00    +0.000 N 
ATOM     21  C   UNL     1       2.932   3.868  20.282  0.00  0.00    +0.000 C 
ATOM     22  C   UNL     1       4.889   4.057  18.900  0.00  0.00    +0.000 C 
ATOM     23  O   UNL     1       5.412   3.229  19.650  0.00  0.00    +0.000 OA
BRANCH  22  24
ATOM     24  C   UNL     1       5.715   4.494  17.737  0.00  0.00    +0.000 A 
ATOM     25  C   UNL     1       5.374   3.994  16.466  0.00  0.00    +0.000 A 
ATOM     26  C   UNL     1       6.044   4.402  15.305  0.00  0.00    +0.000 A 
ATOM     27  C   UNL     1       5.814   3.702  14.000  0.00  0.00    +0.000 C 
ATOM     28  C   UNL     1       6.921   5.478  15.381  0.00  0.00    +0.000 A 
ATOM     29  C   UNL     1       7.228   6.032  16.621  0.00  0.00    +0.000 A 
ATOM     30  C   UNL     1       6.683   5.520  17.812  0.00  0.00    +0.000 A 
BRANCH  30  31
ATOM     31  O   UNL     1       7.177   6.195  18.895  0.00  0.00    +0.000 OA
ATOM     32  C   UNL     1       8.148   5.578  19.724  0.00  0.00    +0.000 C 
ENDBRANCH  30  31
ENDBRANCH  22  24
ENDBRANCH  19  20
BRANCH  19  34
ATOM     33  C   UNL     1       1.807   3.429  17.144  0.00  0.00    +0.000 C 
ATOM     34  C   UNL     1       1.497   4.780  17.787  0.00  0.00    +0.000 C 
ENDBRANCH  19  34
ENDBRANCH   1  19
TORSDOF 6
ENDMDL
MODEL 3
REMARK VINA RESULT:      -8.3      3.185      9.349
REMARK  Name = 
REMARK  11 active torsions:
REMARK  status: ('A' for Active; 'I' for Inactive)
REMARK    1  A    between atoms: C_1  and  C_2
REMARK    2  A    between atoms: C_2  and  C_3
REMARK    3  A    between atoms: C_3  and  C_4
REMARK    4  A    between atoms: C_3  and  N_20
REMARK    5  A    between atoms: C_12  and  N_13
REMARK    6  A    between atoms: C_15  and  C_16
REMARK    7  A    between atoms: N_20  and  C_21
REMARK    8  A    between atoms: C_22  and  C_24
REMARK    9  A    between atoms: C_26  and  C_27
REMARK   10  A    between atoms: C_30  and  O_31
REMARK   11  A    between atoms: O_31  and  C_32
REMARK                            x       y       z     vdW  Elec       q    Type
REMARK                         _______ _______ _______ _____ _____    ______ ____
ROOT
ATOM      1  C   UNL     1       1.239   9.452  19.292  0.00  0.00    +0.000 A 
ATOM      2  C   UNL     1       1.324   8.270  20.080  0.00  0.00    +0.000 A 
ATOM      3  C   UNL     1       2.160   7.413  19.390  0.00  0.00    +0.000 A 
ATOM      4  N   UNL     1       2.466   6.086  19.549  0.00  0.00    +0.000 NA
ATOM      5  C   UNL     1       3.271   5.528  18.666  0.00  0.00    +0.000 A 
ATOM      6  N   UNL     1       3.501   4.166  18.724  0.00  0.00    +0.000 N 
ATOM      7  C   UNL     1       2.413   3.197  18.782  0.00  0.00    +0.000 C 
ATOM      8  C   UNL     1       3.126   1.855  18.936  0.00  0.00    +0.000 C 
ATOM      9  C   UNL     1       4.330   2.199  19.805  0.00  0.00    +0.000 C 
ATOM     10  C   UNL     1       4.745   3.585  19.229  0.00  0.00    +0.000 C 
ATOM     11  C   UNL     1       3.908   6.312  17.527  0.00  0.00    +0.000 A 
ATOM     12  C   UNL     1       4.773   5.645  16.510  0.00  0.00    +0.000 C 
ATOM     13  C   UNL     1       3.536   7.597  17.421  0.00  0.00    +0.000 A 
ATOM     14  N   UNL     1       2.651   8.158  18.321  0.00  0.00    +0.000 N 
ATOM     15  N   UNL     1       2.096   9.392  18.262  0.00  0.00    +0.000 NA
ENDROOT
BRANCH   9  16
ATOM     16  N   UNL     1       3.950   2.258  21.215  0.00  0.00    +0.000 NA
ATOM     17  H   UNL     1       4.134   1.351  21.655  0.00  0.00    +0.000 HD
ATOM     18  H   UNL     1       2.941   2.384  21.297  0.00  0.00    +0.000 HD
ENDBRANCH   9  16
BRANCH   1  19
ATOM     19  C   UNL     1       0.200  10.579  19.404  0.00  0.00    +0.000 C 
BRANCH  19  20
ATOM     20  N   UNL     1       0.840  11.898  19.686  0.00  0.00    +0.000 N 
ATOM     21  C   UNL     1       1.868  12.354  18.752  0.00  0.00    +0.000 C 
ATOM     22  C   UNL     1       0.411  12.906  20.581  0.00  0.00    +0.000 C 
ATOM     23  O   UNL     1       0.999  13.989  20.630  0.00  0.00    +0.000 OA
BRANCH  22  24
ATOM     24  C   UNL     1      -0.726  12.739  21.533  0.00  0.00    +0.000 A 
ATOM     25  C   UNL     1      -1.884  13.508  21.313  0.00  0.00    +0.000 A 
ATOM     26  C   UNL     1      -3.028  13.368  22.109  0.00  0.00    +0.000 A 
ATOM     27  C   UNL     1      -4.164  14.339  21.998  0.00  0.00    +0.000 C 
ATOM     28  C   UNL     1      -3.099  12.303  23.001  0.00  0.00    +0.000 A 
ATOM     29  C   UNL     1      -1.986  11.489  23.191  0.00  0.00    +0.000 A 
ATOM     30  C   UNL     1      -0.776  11.724  22.513  0.00  0.00    +0.000 A 
BRANCH  30  31
ATOM     31  O   UNL     1       0.178  10.826  22.909  0.00  0.00    +0.000 OA
ATOM     32  C   UNL     1      -0.203   9.505  23.260  0.00  0.00    +0.000 C 
ENDBRANCH  30  31
ENDBRANCH  22  24
ENDBRANCH  19  20
BRANCH  19  34
ATOM     33  C   UNL     1      -2.166  10.961  18.509  0.00  0.00    +0.000 C 
ATOM     34  C   UNL     1      -0.719  10.616  18.159  0.00  0.00    +0.000 C 
ENDBRANCH  19  34
ENDBRANCH   1  19
TORSDOF 6
ENDMDL
MODEL 4
REMARK VINA RESULT:      -8.1      3.249      8.445
REMARK  Name = 
REMARK  11 active torsions:
REMARK  status: ('A' for Active; 'I' for Inactive)
REMARK    1  A    between atoms: C_1  and  C_2
REMARK    2  A    between atoms: C_2  and  C_3
REMARK    3  A    between atoms: C_3  and  C_4
REMARK    4  A    between atoms: C_3  and  N_20
REMARK    5  A    between atoms: C_12  and  N_13
REMARK    6  A    between atoms: C_15  and  C_16
REMARK    7  A    between atoms: N_20  and  C_21
REMARK    8  A    between atoms: C_22  and  C_24
REMARK    9  A    between atoms: C_26  and  C_27
REMARK   10  A    between atoms: C_30  and  O_31
REMARK   11  A    between atoms: O_31  and  C_32
REMARK                            x       y       z     vdW  Elec       q    Type
REMARK                         _______ _______ _______ _____ _____    ______ ____
ROOT
ATOM      1  C   UNL     1       1.359   8.637  19.680  0.00  0.00    +0.000 A 
ATOM      2  C   UNL     1       2.072   8.500  18.457  0.00  0.00    +0.000 A 
ATOM      3  C   UNL     1       2.711   7.277  18.524  0.00  0.00    +0.000 A 
ATOM      4  N   UNL     1       3.673   6.688  17.745  0.00  0.00    +0.000 NA
ATOM      5  C   UNL     1       4.133   5.510  18.117  0.00  0.00    +0.000 A 
ATOM      6  N   UNL     1       5.190   4.944  17.427  0.00  0.00    +0.000 N 
ATOM      7  C   UNL     1       6.426   5.673  17.168  0.00  0.00    +0.000 C 
ATOM      8  C   UNL     1       7.243   4.713  16.307  0.00  0.00    +0.000 C 
ATOM      9  C   UNL     1       6.183   4.021  15.456  0.00  0.00    +0.000 C 
ATOM     10  C   UNL     1       5.029   3.838  16.485  0.00  0.00    +0.000 C 
ATOM     11  C   UNL     1       3.596   4.767  19.333  0.00  0.00    +0.000 A 
ATOM     12  C   UNL     1       4.171   3.458  19.764  0.00  0.00    +0.000 C 
ATOM     13  C   UNL     1       2.677   5.422  20.060  0.00  0.00    +0.000 A 
ATOM     14  N   UNL     1       2.241   6.679  19.689  0.00  0.00    +0.000 N 
ATOM     15  N   UNL     1       1.422   7.499  20.389  0.00  0.00    +0.000 NA
ENDROOT
BRANCH   9  16
ATOM     16  N   UNL     1       5.807   4.859  14.319  0.00  0.00    +0.000 NA
ATOM     17  H   UNL     1       6.515   4.772  13.583  0.00  0.00    +0.000 HD
ATOM     18  H   UNL     1       5.836   5.842  14.588  0.00  0.00    +0.000 HD
ENDBRANCH   9  16
BRANCH   1  19
ATOM     19  C   UNL     1       0.764   9.921  20.279  0.00  0.00    +0.000 C 
BRANCH  19  20
ATOM     20  N   UNL     1       0.089  10.756  19.242  0.00  0.00    +0.000 N 
ATOM     21  C   UNL     1      -1.161  10.243  18.681  0.00  0.00    +0.000 C 
ATOM     22  C   UNL     1       0.339  12.108  18.906  0.00  0.00    +0.000 C 
ATOM     23  O   UNL     1      -0.376  12.690  18.086  0.00  0.00    +0.000 OA
BRANCH  22  24
ATOM     24  C   UNL     1       1.467  12.905  19.468  0.00  0.00    +0.000 A 
ATOM     25  C   UNL     1       2.437  13.392  18.572  0.00  0.00    +0.000 A 
ATOM     26  C   UNL     1       3.493  14.210  18.995  0.00  0.00    +0.000 A 
ATOM     27  C   UNL     1       4.628  14.537  18.072  0.00  0.00    +0.000 C 
ATOM     28  C   UNL     1       3.466  14.725  20.286  0.00  0.00    +0.000 A 
ATOM     29  C   UNL     1       2.479  14.307  21.174  0.00  0.00    +0.000 A 
ATOM     30  C   UNL     1       1.509  13.358  20.806  0.00  0.00    +0.000 A 
BRANCH  30  31
ATOM     31  O   UNL     1       0.689  13.073  21.864  0.00  0.00    +0.000 OA
ATOM     32  C   UNL     1      -0.385  13.945  22.175  0.00  0.00    +0.000 C 
ENDBRANCH  30  31
ENDBRANCH  22  24
ENDBRANCH  19  20
BRANCH  19  34
ATOM     33  C   UNL     1       0.571   9.689  22.820  0.00  0.00    +0.000 C 
ATOM     34  C   UNL     1      -0.159   9.602  21.480  0.00  0.00    +0.000 C 
ENDBRANCH  19  34
ENDBRANCH   1  19
TORSDOF 6
ENDMDL
MODEL 5
REMARK VINA RESULT:      -8.1      1.016      1.976
REMARK  Name = 
REMARK  11 active torsions:
REMARK  status: ('A' for Active; 'I' for Inactive)
REMARK    1  A    between atoms: C_1  and  C_2
REMARK    2  A    between atoms: C_2  and  C_3
REMARK    3  A    between atoms: C_3  and  C_4
REMARK    4  A    between atoms: C_3  and  N_20
REMARK    5  A    between atoms: C_12  and  N_13
REMARK    6  A    between atoms: C_15  and  C_16
REMARK    7  A    between atoms: N_20  and  C_21
REMARK    8  A    between atoms: C_22  and  C_24
REMARK    9  A    between atoms: C_26  and  C_27
REMARK   10  A    between atoms: C_30  and  O_31
REMARK   11  A    between atoms: O_31  and  C_32
REMARK                            x       y       z     vdW  Elec       q    Type
REMARK                         _______ _______ _______ _____ _____    ______ ____
ROOT
ATOM      1  C   UNL     1       1.988   6.010  19.910  0.00  0.00    +0.000 A 
ATOM      2  C   UNL     1       2.286   7.147  19.109  0.00  0.00    +0.000 A 
ATOM      3  C   UNL     1       1.710   8.225  19.752  0.00  0.00    +0.000 A 
ATOM      4  N   UNL     1       1.500   9.527  19.375  0.00  0.00    +0.000 NA
ATOM      5  C   UNL     1       0.851  10.314  20.210  0.00  0.00    +0.000 A 
ATOM      6  N   UNL     1       0.514  11.595  19.812  0.00  0.00    +0.000 N 
ATOM      7  C   UNL     1      -0.182  11.860  18.559  0.00  0.00    +0.000 C 
ATOM      8  C   UNL     1      -0.248  13.384  18.491  0.00  0.00    +0.000 C 
ATOM      9  C   UNL     1       1.071  13.817  19.122  0.00  0.00    +0.000 C 
ATOM     10  C   UNL     1       1.213  12.790  20.283  0.00  0.00    +0.000 C 
ATOM     11  C   UNL     1       0.384   9.848  21.582  0.00  0.00    +0.000 A 
ATOM     12  C   UNL     1      -0.396  10.743  22.487  0.00  0.00    +0.000 C 
ATOM     13  C   UNL     1       0.600   8.553  21.865  0.00  0.00    +0.000 A 
ATOM     14  N   UNL     1       1.235   7.724  20.960  0.00  0.00    +0.000 N 
ATOM     15  N   UNL     1       1.404   6.384  21.059  0.00  0.00    +0.000 NA
ENDROOT
BRANCH   9  16
ATOM     16  N   UNL     1       2.159  13.734  18.150  0.00  0.00    +0.000 NA
ATOM     17  H   UNL     1       2.466  14.680  17.901  0.00  0.00    +0.000 HD
ATOM     18  H   UNL     1       1.815  13.338  17.276  0.00  0.00    +0.000 HD
ENDBRANCH   9  16
BRANCH   1  19
ATOM     19  C   UNL     1       2.085   4.529  19.508  0.00  0.00    +0.000 C 
BRANCH  19  20
ATOM     20  N   UNL     1       3.301   3.878  20.077  0.00  0.00    +0.000 N 
ATOM     21  C   UNL     1       3.099   2.928  21.171  0.00  0.00    +0.000 C 
ATOM     22  C   UNL     1       4.609   3.839  19.538  0.00  0.00    +0.000 C 
ATOM     23  O   UNL     1       5.491   3.173  20.085  0.00  0.00    +0.000 OA
BRANCH  22  24
ATOM     24  C   UNL     1       5.027   4.602  18.326  0.00  0.00    +0.000 A 
ATOM     25  C   UNL     1       6.071   5.535  18.466  0.00  0.00    +0.000 A 
ATOM     26  C   UNL     1       6.581   6.246  17.372  0.00  0.00    +0.000 A 
ATOM     27  C   UNL     1       7.537   7.383  17.574  0.00  0.00    +0.000 C 
ATOM     28  C   UNL     1       6.195   5.872  16.090  0.00  0.00    +0.000 A 
ATOM     29  C   UNL     1       5.207   4.906  15.923  0.00  0.00    +0.000 A 
ATOM     30  C   UNL     1       4.571   4.302  17.023  0.00  0.00    +0.000 A 
BRANCH  30  31
ATOM     31  O   UNL     1       3.604   3.431  16.601  0.00  0.00    +0.000 OA
ATOM     32  C   UNL     1       3.571   2.112  17.121  0.00  0.00    +0.000 C 
ENDBRANCH  30  31
ENDBRANCH  22  24
ENDBRANCH  19  20
BRANCH  19  34
ATOM     33  C   UNL     1       0.480   2.640  18.874  0.00  0.00    +0.000 C 
ATOM     34  C   UNL     1       0.783   3.769  19.858  0.00  0.00    +0.000 C 
ENDBRANCH  19  34
ENDBRANCH   1  19
TORSDOF 6
ENDMDL
MODEL 6
REMARK VINA RESULT:      -8.0      1.689      2.481
REMARK  Name = 
REMARK  11 active torsions:
REMARK  status: ('A' for Active; 'I' for Inactive)
REMARK    1  A    between atoms: C_1  and  C_2
REMARK    2  A    between atoms: C_2  and  C_3
REMARK    3  A    between atoms: C_3  and  C_4
REMARK    4  A    between atoms: C_3  and  N_20
REMARK    5  A    between atoms: C_12  and  N_13
REMARK    6  A    between atoms: C_15  and  C_16
REMARK    7  A    between atoms: N_20  and  C_21
REMARK    8  A    between atoms: C_22  and  C_24
REMARK    9  A    between atoms: C_26  and  C_27
REMARK   10  A    between atoms: C_30  and  O_31
REMARK   11  A    between atoms: O_31  and  C_32
REMARK                            x       y       z     vdW  Elec       q    Type
REMARK                         _______ _______ _______ _____ _____    ______ ____
ROOT
ATOM      1  C   UNL     1       2.406   6.760  18.958  0.00  0.00    +0.000 A 
ATOM      2  C   UNL     1       2.035   7.984  18.337  0.00  0.00    +0.000 A 
ATOM      3  C   UNL     1       1.399   8.727  19.312  0.00  0.00    +0.000 A 
ATOM      4  N   UNL     1       0.671   9.889  19.268  0.00  0.00    +0.000 NA
ATOM      5  C   UNL     1       0.128  10.320  20.390  0.00  0.00    +0.000 A 
ATOM      6  N   UNL     1      -0.714  11.416  20.359  0.00  0.00    +0.000 N 
ATOM      7  C   UNL     1      -1.840  11.504  19.437  0.00  0.00    +0.000 C 
ATOM      8  C   UNL     1      -2.407  12.900  19.683  0.00  0.00    +0.000 C 
ATOM      9  C   UNL     1      -1.164  13.734  19.973  0.00  0.00    +0.000 C 
ATOM     10  C   UNL     1      -0.316  12.744  20.825  0.00  0.00    +0.000 C 
ATOM     11  C   UNL     1       0.330   9.613  21.723  0.00  0.00    +0.000 A 
ATOM     12  C   UNL     1      -0.339  10.091  22.969  0.00  0.00    +0.000 C 
ATOM     13  C   UNL     1       1.030   8.468  21.679  0.00  0.00    +0.000 A 
ATOM     14  N   UNL     1       1.549   7.998  20.488  0.00  0.00    +0.000 N 
ATOM     15  N   UNL     1       2.160   6.808  20.276  0.00  0.00    +0.000 NA
ENDROOT
BRANCH   9  16
ATOM     16  N   UNL     1      -0.504  14.127  18.729  0.00  0.00    +0.000 NA
ATOM     17  H   UNL     1       0.276  13.489  18.542  0.00  0.00    +0.000 HD
ATOM     18  H   UNL     1      -0.066  15.041  18.843  0.00  0.00    +0.000 HD
ENDBRANCH   9  16
BRANCH   1  19
ATOM     19  C   UNL     1       2.827   5.451  18.270  0.00  0.00    +0.000 C 
BRANCH  19  20
ATOM     20  N   UNL     1       3.799   4.677  19.098  0.00  0.00    +0.000 N 
ATOM     21  C   UNL     1       3.247   3.705  20.041  0.00  0.00    +0.000 C 
ATOM     22  C   UNL     1       5.197   4.550  18.918  0.00  0.00    +0.000 C 
ATOM     23  O   UNL     1       5.852   3.790  19.636  0.00  0.00    +0.000 OA
BRANCH  22  24
ATOM     24  C   UNL     1       5.975   5.323  17.907  0.00  0.00    +0.000 A 
ATOM     25  C   UNL     1       6.699   6.444  18.353  0.00  0.00    +0.000 A 
ATOM     26  C   UNL     1       7.516   7.189  17.492  0.00  0.00    +0.000 A 
ATOM     27  C   UNL     1       8.103   8.496  17.931  0.00  0.00    +0.000 C 
ATOM     28  C   UNL     1       7.784   6.689  16.223  0.00  0.00    +0.000 A 
ATOM     29  C   UNL     1       7.127   5.544  15.780  0.00  0.00    +0.000 A 
ATOM     30  C   UNL     1       6.180   4.881  16.581  0.00  0.00    +0.000 A 
BRANCH  30  31
ATOM     31  O   UNL     1       5.637   3.822  15.905  0.00  0.00    +0.000 OA
ATOM     32  C   UNL     1       5.855   3.693  14.509  0.00  0.00    +0.000 C 
ENDBRANCH  30  31
ENDBRANCH  22  24
ENDBRANCH  19  20
BRANCH  19  34
ATOM     33  C   UNL     1       1.970   3.359  17.073  0.00  0.00    +0.000 C 
ATOM     34  C   UNL     1       1.592   4.612  17.862  0.00  0.00    +0.000 C 
ENDBRANCH  19  34
ENDBRANCH   1  19
TORSDOF 6
ENDMDL
MODEL 7
REMARK VINA RESULT:      -7.9      3.513      9.140
REMARK  Name = 
REMARK  11 active torsions:
REMARK  status: ('A' for Active; 'I' for Inactive)
REMARK    1  A    between atoms: C_1  and  C_2
REMARK    2  A    between atoms: C_2  and  C_3
REMARK    3  A    between atoms: C_3  and  C_4
REMARK    4  A    between atoms: C_3  and  N_20
REMARK    5  A    between atoms: C_12  and  N_13
REMARK    6  A    between atoms: C_15  and  C_16
REMARK    7  A    between atoms: N_20  and  C_21
REMARK    8  A    between atoms: C_22  and  C_24
REMARK    9  A    between atoms: C_26  and  C_27
REMARK   10  A    between atoms: C_30  and  O_31
REMARK   11  A    between atoms: O_31  and  C_32
REMARK                            x       y       z     vdW  Elec       q    Type
REMARK                         _______ _______ _______ _____ _____    ______ ____
ROOT
ATOM      1  C   UNL     1       0.680   9.870  19.016  0.00  0.00    +0.000 A 
ATOM      2  C   UNL     1       1.509   9.630  17.886  0.00  0.00    +0.000 A 
ATOM      3  C   UNL     1       2.207   8.471  18.166  0.00  0.00    +0.000 A 
ATOM      4  N   UNL     1       3.269   7.856  17.554  0.00  0.00    +0.000 NA
ATOM      5  C   UNL     1       3.757   6.767  18.115  0.00  0.00    +0.000 A 
ATOM      6  N   UNL     1       4.903   6.192  17.596  0.00  0.00    +0.000 N 
ATOM      7  C   UNL     1       6.116   6.964  17.351  0.00  0.00    +0.000 C 
ATOM      8  C   UNL     1       7.061   5.962  16.694  0.00  0.00    +0.000 C 
ATOM      9  C   UNL     1       6.126   5.100  15.854  0.00  0.00    +0.000 C 
ATOM     10  C   UNL     1       4.893   4.968  16.796  0.00  0.00    +0.000 C 
ATOM     11  C   UNL     1       3.153   6.147  19.367  0.00  0.00    +0.000 A 
ATOM     12  C   UNL     1       3.757   4.944  20.012  0.00  0.00    +0.000 C 
ATOM     13  C   UNL     1       2.135   6.824  19.922  0.00  0.00    +0.000 A 
ATOM     14  N   UNL     1       1.665   7.993  19.355  0.00  0.00    +0.000 N 
ATOM     15  N   UNL     1       0.740   8.837  19.871  0.00  0.00    +0.000 NA
ENDROOT
BRANCH   9  16
ATOM     16  N   UNL     1       5.810   5.762  14.589  0.00  0.00    +0.000 NA
ATOM     17  H   UNL     1       6.645   6.242  14.240  0.00  0.00    +0.000 HD
ATOM     18  H   UNL     1       5.132   6.507  14.748  0.00  0.00    +0.000 HD
ENDBRANCH   9  16
BRANCH   1  19
ATOM     19  C   UNL     1      -0.039  11.176  19.390  0.00  0.00    +0.000 C 
BRANCH  19  20
ATOM     20  N   UNL     1       0.856  12.109  20.136  0.00  0.00    +0.000 N 
ATOM     21  C   UNL     1       2.139  12.441  19.517  0.00  0.00    +0.000 C 
ATOM     22  C   UNL     1       0.536  12.938  21.237  0.00  0.00    +0.000 C 
ATOM     23  O   UNL     1       1.368  13.731  21.685  0.00  0.00    +0.000 OA
BRANCH  22  24
ATOM     24  C   UNL     1      -0.775  12.900  21.948  0.00  0.00    +0.000 A 
ATOM     25  C   UNL     1      -1.775  13.798  21.530  0.00  0.00    +0.000 A 
ATOM     26  C   UNL     1      -3.060  13.789  22.087  0.00  0.00    +0.000 A 
ATOM     27  C   UNL     1      -4.036  14.885  21.785  0.00  0.00    +0.000 C 
ATOM     28  C   UNL     1      -3.422  12.736  22.920  0.00  0.00    +0.000 A 
ATOM     29  C   UNL     1      -2.466  11.797  23.299  0.00  0.00    +0.000 A 
ATOM     30  C   UNL     1      -1.129  11.893  22.873  0.00  0.00    +0.000 A 
BRANCH  30  31
ATOM     31  O   UNL     1      -0.378  10.889  23.422  0.00  0.00    +0.000 OA
ATOM     32  C   UNL     1      -0.486   9.570  22.910  0.00  0.00    +0.000 C 
ENDBRANCH  30  31
ENDBRANCH  22  24
ENDBRANCH  19  20
BRANCH  19  34
ATOM     33  C   UNL     1      -2.209  11.773  18.172  0.00  0.00    +0.000 C 
ATOM     34  C   UNL     1      -0.682  11.835  18.146  0.00  0.00    +0.000 C 
ENDBRANCH  19  34
ENDBRANCH   1  19
TORSDOF 6
ENDMDL
MODEL 8
REMARK VINA RESULT:      -7.9      3.954      9.104
REMARK  Name = 
REMARK  11 active torsions:
REMARK  status: ('A' for Active; 'I' for Inactive)
REMARK    1  A    between atoms: C_1  and  C_2
REMARK    2  A    between atoms: C_2  and  C_3
REMARK    3  A    between atoms: C_3  and  C_4
REMARK    4  A    between atoms: C_3  and  N_20
REMARK    5  A    between atoms: C_12  and  N_13
REMARK    6  A    between atoms: C_15  and  C_16
REMARK    7  A    between atoms: N_20  and  C_21
REMARK    8  A    between atoms: C_22  and  C_24
REMARK    9  A    between atoms: C_26  and  C_27
REMARK   10  A    between atoms: C_30  and  O_31
REMARK   11  A    between atoms: O_31  and  C_32
REMARK                            x       y       z     vdW  Elec       q    Type
REMARK                         _______ _______ _______ _____ _____    ______ ____
ROOT
ATOM      1  C   UNL     1       1.360   9.857  18.601  0.00  0.00    +0.000 A 
ATOM      2  C   UNL     1       2.155   9.393  17.517  0.00  0.00    +0.000 A 
ATOM      3  C   UNL     1       2.648   8.163  17.906  0.00  0.00    +0.000 A 
ATOM      4  N   UNL     1       3.604   7.335  17.376  0.00  0.00    +0.000 NA
ATOM      5  C   UNL     1       3.899   6.231  18.034  0.00  0.00    +0.000 A 
ATOM      6  N   UNL     1       4.942   5.437  17.594  0.00  0.00    +0.000 N 
ATOM      7  C   UNL     1       6.268   5.979  17.322  0.00  0.00    +0.000 C 
ATOM      8  C   UNL     1       7.046   4.786  16.774  0.00  0.00    +0.000 C 
ATOM      9  C   UNL     1       5.994   4.020  15.979  0.00  0.00    +0.000 C 
ATOM     10  C   UNL     1       4.743   4.169  16.894  0.00  0.00    +0.000 C 
ATOM     11  C   UNL     1       3.182   5.824  19.314  0.00  0.00    +0.000 A 
ATOM     12  C   UNL     1       3.572   4.596  20.069  0.00  0.00    +0.000 C 
ATOM     13  C   UNL     1       2.282   6.700  19.785  0.00  0.00    +0.000 A 
ATOM     14  N   UNL     1       2.019   7.879  19.114  0.00  0.00    +0.000 N 
ATOM     15  N   UNL     1       1.237   8.902  19.535  0.00  0.00    +0.000 NA
ENDROOT
BRANCH   9  16
ATOM     16  N   UNL     1       5.810   4.618  14.658  0.00  0.00    +0.000 NA
ATOM     17  H   UNL     1       6.624   5.196  14.429  0.00  0.00    +0.000 HD
ATOM     18  H   UNL     1       5.028   5.273  14.679  0.00  0.00    +0.000 HD
ENDBRANCH   9  16
BRANCH   1  19
ATOM     19  C   UNL     1       0.860  11.289  18.850  0.00  0.00    +0.000 C 
BRANCH  19  20
ATOM     20  N   UNL     1       0.150  11.410  20.158  0.00  0.00    +0.000 N 
ATOM     21  C   UNL     1       0.972  11.648  21.344  0.00  0.00    +0.000 C 
ATOM     22  C   UNL     1      -1.233  11.595  20.390  0.00  0.00    +0.000 C 
ATOM     23  O   UNL     1      -1.656  11.774  21.535  0.00  0.00    +0.000 OA
BRANCH  22  24
ATOM     24  C   UNL     1      -2.266  11.554  19.315  0.00  0.00    +0.000 A 
ATOM     25  C   UNL     1      -2.060  10.670  18.240  0.00  0.00    +0.000 A 
ATOM     26  C   UNL     1      -3.007  10.508  17.221  0.00  0.00    +0.000 A 
ATOM     27  C   UNL     1      -2.678   9.730  15.982  0.00  0.00    +0.000 C 
ATOM     28  C   UNL     1      -4.267  11.074  17.381  0.00  0.00    +0.000 A 
ATOM     29  C   UNL     1      -4.516  11.905  18.470  0.00  0.00    +0.000 A 
ATOM     30  C   UNL     1      -3.517  12.203  19.413  0.00  0.00    +0.000 A 
BRANCH  30  31
ATOM     31  O   UNL     1      -3.989  13.080  20.352  0.00  0.00    +0.000 OA
ATOM     32  C   UNL     1      -5.212  12.805  21.017  0.00  0.00    +0.000 C 
ENDBRANCH  30  31
ENDBRANCH  22  24
ENDBRANCH  19  20
BRANCH  19  34
ATOM     33  C   UNL     1       1.500  13.720  18.373  0.00  0.00    +0.000 C 
ATOM     34  C   UNL     1       2.008  12.316  18.699  0.00  0.00    +0.000 C 
ENDBRANCH  19  34
ENDBRANCH   1  19
TORSDOF 6
ENDMDL
MODEL 9
REMARK VINA RESULT:      -7.8      3.934      9.388
REMARK  Name = 
REMARK  11 active torsions:
REMARK  status: ('A' for Active; 'I' for Inactive)
REMARK    1  A    between atoms: C_1  and  C_2
REMARK    2  A    between atoms: C_2  and  C_3
REMARK    3  A    between atoms: C_3  and  C_4
REMARK    4  A    between atoms: C_3  and  N_20
REMARK    5  A    between atoms: C_12  and  N_13
REMARK    6  A    between atoms: C_15  and  C_16
REMARK    7  A    between atoms: N_20  and  C_21
REMARK    8  A    between atoms: C_22  and  C_24
REMARK    9  A    between atoms: C_26  and  C_27
REMARK   10  A    between atoms: C_30  and  O_31
REMARK   11  A    between atoms: O_31  and  C_32
REMARK                            x       y       z     vdW  Elec       q    Type
REMARK                         _______ _______ _______ _____ _____    ______ ____
ROOT
ATOM      1  C   UNL     1       1.271  10.151  19.079  0.00  0.00    +0.000 A 
ATOM      2  C   UNL     1       1.086   9.095  20.014  0.00  0.00    +0.000 A 
ATOM      3  C   UNL     1       1.777   8.012  19.505  0.00  0.00    +0.000 A 
ATOM      4  N   UNL     1       1.814   6.687  19.853  0.00  0.00    +0.000 NA
ATOM      5  C   UNL     1       2.543   5.874  19.113  0.00  0.00    +0.000 A 
ATOM      6  N   UNL     1       2.504   4.514  19.361  0.00  0.00    +0.000 N 
ATOM      7  C   UNL     1       1.249   3.777  19.455  0.00  0.00    +0.000 C 
ATOM      8  C   UNL     1       1.682   2.363  19.833  0.00  0.00    +0.000 C 
ATOM      9  C   UNL     1       2.882   2.598  20.743  0.00  0.00    +0.000 C 
ATOM     10  C   UNL     1       3.585   3.791  20.030  0.00  0.00    +0.000 C 
ATOM     11  C   UNL     1       3.378   6.362  17.938  0.00  0.00    +0.000 A 
ATOM     12  C   UNL     1       4.152   5.414  17.084  0.00  0.00    +0.000 C 
ATOM     13  C   UNL     1       3.266   7.666  17.643  0.00  0.00    +0.000 A 
ATOM     14  N   UNL     1       2.458   8.499  18.393  0.00  0.00    +0.000 N 
ATOM     15  N   UNL     1       2.155   9.793  18.135  0.00  0.00    +0.000 NA
ENDROOT
BRANCH   9  16
ATOM     16  N   UNL     1       2.446   2.920  22.100  0.00  0.00    +0.000 NA
ATOM     17  H   UNL     1       1.424   2.978  22.123  0.00  0.00    +0.000 HD
ATOM     18  H   UNL     1       2.763   3.855  22.353  0.00  0.00    +0.000 HD
ENDBRANCH   9  16
BRANCH   1  19
ATOM     19  C   UNL     1       0.463  11.454  18.967  0.00  0.00    +0.000 C 
BRANCH  19  20
ATOM     20  N   UNL     1      -0.365  11.701  20.184  0.00  0.00    +0.000 N 
ATOM     21  C   UNL     1       0.343  12.076  21.408  0.00  0.00    +0.000 C 
ATOM     22  C   UNL     1      -1.765  11.887  20.269  0.00  0.00    +0.000 C 
ATOM     23  O   UNL     1      -2.292  12.180  21.345  0.00  0.00    +0.000 OA
BRANCH  22  24
ATOM     24  C   UNL     1      -2.694  11.716  19.114  0.00  0.00    +0.000 A 
ATOM     25  C   UNL     1      -2.292  10.864  18.069  0.00  0.00    +0.000 A 
ATOM     26  C   UNL     1      -3.125  10.584  16.978  0.00  0.00    +0.000 A 
ATOM     27  C   UNL     1      -2.602   9.854  15.779  0.00  0.00    +0.000 C 
ATOM     28  C   UNL     1      -4.455  10.987  17.030  0.00  0.00    +0.000 A 
ATOM     29  C   UNL     1      -4.894  11.780  18.087  0.00  0.00    +0.000 A 
ATOM     30  C   UNL     1      -4.020  12.202  19.105  0.00  0.00    +0.000 A 
BRANCH  30  31
ATOM     31  O   UNL     1      -4.674  13.012  19.994  0.00  0.00    +0.000 OA
ATOM     32  C   UNL     1      -5.750  12.492  20.758  0.00  0.00    +0.000 C 
ENDBRANCH  30  31
ENDBRANCH  22  24
ENDBRANCH  19  20
BRANCH  19  34
ATOM     33  C   UNL     1       0.595  13.942  18.384  0.00  0.00    +0.000 C 
ATOM     34  C   UNL     1       1.380  12.651  18.617  0.00  0.00    +0.000 C 
ENDBRANCH  19  34
ENDBRANCH   1  19
TORSDOF 6
ENDMDL
