MODEL 1
REMARK VINA RESULT:      -8.2      0.000      0.000
REMARK  Name = 
REMARK  8 active torsions:
REMARK  status: ('A' for Active; 'I' for Inactive)
REMARK    1  A    between atoms: C_1  and  C_2
REMARK    2  A    between atoms: C_5  and  O_6
REMARK    3  A    between atoms: O_6  and  C_7
REMARK    4  A    between atoms: C_7  and  C_8
REMARK    5  A    between atoms: C_8  and  N_9
REMARK    6  A    between atoms: C_10  and  C_12
REMARK    7  A    between atoms: C_14  and  N_15
REMARK    8  A    between atoms: C_25  and  C_26
REMARK                            x       y       z     vdW  Elec       q    Type
REMARK                         _______ _______ _______ _____ _____    ______ ____
ROOT
ATOM      1  N   UNL     1       7.390   7.054  18.126  0.00  0.00    +0.000 N 
ATOM      2  C   UNL     1       7.240   5.732  18.472  0.00  0.00    +0.000 C 
ATOM      3  O   UNL     1       8.051   5.119  19.173  0.00  0.00    +0.000 OA
ATOM      4  H   UNL     1       6.745   7.453  17.451  0.00  0.00    +0.000 HD
ENDROOT
BRANCH   2   5
ATOM      5  C   UNL     1       6.024   5.016  17.988  0.00  0.00    +0.000 A 
ATOM      6  C   UNL     1       5.020   4.742  18.934  0.00  0.00    +0.000 A 
ATOM      7  C   UNL     1       3.862   4.035  18.566  0.00  0.00    +0.000 A 
ATOM      8  C   UNL     1       3.701   3.603  17.246  0.00  0.00    +0.000 A 
ATOM      9  C   UNL     1       4.691   3.872  16.308  0.00  0.00    +0.000 A 
ATOM     10  C   UNL     1       5.859   4.564  16.669  0.00  0.00    +0.000 A 
ATOM     11 CL   UNL     1       7.043   4.763  15.431  0.00  0.00    +0.000 Cl
BRANCH   7  12
ATOM     12  N   UNL     1       2.859   3.759  19.516  0.00  0.00    +0.000 N 
ATOM     13  C   UNL     1       2.946   2.957  20.626  0.00  0.00    +0.000 A 
ATOM     14  N   UNL     1       1.802   2.923  21.257  0.00  0.00    +0.000 NA
ATOM     15  N   UNL     1       0.928   3.731  20.565  0.00  0.00    +0.000 NA
ATOM     16  C   UNL     1       1.565   4.210  19.531  0.00  0.00    +0.000 A 
ENDBRANCH   7  12
ENDBRANCH   2   5
BRANCH   1  17
ATOM     17  C   UNL     1       8.517   7.861  18.575  0.00  0.00    +0.000 C 
BRANCH  17  18
ATOM     18  C   UNL     1       8.375   9.344  18.205  0.00  0.00    +0.000 C 
BRANCH  18  19
ATOM     19  O   UNL     1       9.209  10.155  19.042  0.00  0.00    +0.000 OA
BRANCH  19  24
ATOM     20  C   UNL     1      11.025  15.104  16.861  0.00  0.00    +0.000 C 
ATOM     21  C   UNL     1      10.532  13.797  17.418  0.00  0.00    +0.000 A 
ATOM     22  C   UNL     1      11.363  12.672  17.356  0.00  0.00    +0.000 A 
ATOM     23  C   UNL     1      10.953  11.442  17.878  0.00  0.00    +0.000 A 
ATOM     24  C   UNL     1       9.705  11.308  18.482  0.00  0.00    +0.000 A 
ATOM     25  C   UNL     1       8.862  12.428  18.535  0.00  0.00    +0.000 A 
ATOM     26  C   UNL     1       9.259  13.674  18.005  0.00  0.00    +0.000 A 
ATOM     27  C   UNL     1       8.320  14.850  18.068  0.00  0.00    +0.000 C 
ENDBRANCH  19  24
ENDBRANCH  18  19
ENDBRANCH  17  18
ENDBRANCH   1  17
TORSDOF 6
ENDMDL
MODEL 2
REMARK VINA RESULT:      -8.1      5.520      8.655
REMARK  Name = 
REMARK  8 active torsions:
REMARK  status: ('A' for Active; 'I' for Inactive)
REMARK    1  A    between atoms: C_1  and  C_2
REMARK    2  A    between atoms: C_5  and  O_6
REMARK    3  A    between atoms: O_6  and  C_7
REMARK    4  A    between atoms: C_7  and  C_8
REMARK    5  A    between atoms: C_8  and  N_9
REMARK    6  A    between atoms: C_10  and  C_12
REMARK    7  A    between atoms: C_14  and  N_15
REMARK    8  A    between atoms: C_25  and  C_26
REMARK                            x       y       z     vdW  Elec       q    Type
REMARK                         _______ _______ _______ _____ _____    ______ ____
ROOT
ATOM      1  N   UNL     1       2.050   7.443  19.812  0.00  0.00    +0.000 N 
ATOM      2  C   UNL     1       2.005   6.091  20.054  0.00  0.00    +0.000 C 
ATOM      3  O   UNL     1       1.440   5.597  21.035  0.00  0.00    +0.000 OA
ATOM      4  H   UNL     1       2.633   7.779  19.052  0.00  0.00    +0.000 HD
ENDROOT
BRANCH   2   5
ATOM      5  C   UNL     1       2.657   5.182  19.069  0.00  0.00    +0.000 A 
ATOM      6  C   UNL     1       3.829   5.645  18.442  0.00  0.00    +0.000 A 
ATOM      7  C   UNL     1       4.479   4.865  17.471  0.00  0.00    +0.000 A 
ATOM      8  C   UNL     1       3.963   3.613  17.125  0.00  0.00    +0.000 A 
ATOM      9  C   UNL     1       2.806   3.151  17.741  0.00  0.00    +0.000 A 
ATOM     10  C   UNL     1       2.139   3.930  18.702  0.00  0.00    +0.000 A 
ATOM     11 CL   UNL     1       0.673   3.276  19.331  0.00  0.00    +0.000 Cl
BRANCH   7  12
ATOM     12  N   UNL     1       5.651   5.333  16.844  0.00  0.00    +0.000 N 
ATOM     13  C   UNL     1       6.659   6.084  17.393  0.00  0.00    +0.000 A 
ATOM     14  N   UNL     1       7.573   6.349  16.496  0.00  0.00    +0.000 NA
ATOM     15  N   UNL     1       7.179   5.751  15.320  0.00  0.00    +0.000 NA
ATOM     16  C   UNL     1       6.034   5.163  15.539  0.00  0.00    +0.000 A 
ENDBRANCH   7  12
ENDBRANCH   2   5
BRANCH   1  17
ATOM     17  C   UNL     1       1.413   8.421  20.686  0.00  0.00    +0.000 C 
BRANCH  17  18
ATOM     18  C   UNL     1       1.160   9.766  19.993  0.00  0.00    +0.000 C 
BRANCH  18  19
ATOM     19  O   UNL     1       0.624   9.565  18.679  0.00  0.00    +0.000 OA
BRANCH  19  24
ATOM     20  C   UNL     1      -4.507  11.693  17.377  0.00  0.00    +0.000 C 
ATOM     21  C   UNL     1      -3.145  11.144  17.703  0.00  0.00    +0.000 A 
ATOM     22  C   UNL     1      -2.502  11.566  18.874  0.00  0.00    +0.000 A 
ATOM     23  C   UNL     1      -1.245  11.069  19.226  0.00  0.00    +0.000 A 
ATOM     24  C   UNL     1      -0.601  10.132  18.421  0.00  0.00    +0.000 A 
ATOM     25  C   UNL     1      -1.233   9.715  17.240  0.00  0.00    +0.000 A 
ATOM     26  C   UNL     1      -2.499  10.215  16.867  0.00  0.00    +0.000 A 
ATOM     27  C   UNL     1      -3.139   9.756  15.584  0.00  0.00    +0.000 C 
ENDBRANCH  19  24
ENDBRANCH  18  19
ENDBRANCH  17  18
ENDBRANCH   1  17
TORSDOF 6
ENDMDL
MODEL 3
REMARK VINA RESULT:      -8.1      5.413      8.113
REMARK  Name = 
REMARK  8 active torsions:
REMARK  status: ('A' for Active; 'I' for Inactive)
REMARK    1  A    between atoms: C_1  and  C_2
REMARK    2  A    between atoms: C_5  and  O_6
REMARK    3  A    between atoms: O_6  and  C_7
REMARK    4  A    between atoms: C_7  and  C_8
REMARK    5  A    between atoms: C_8  and  N_9
REMARK    6  A    between atoms: C_10  and  C_12
REMARK    7  A    between atoms: C_14  and  N_15
REMARK    8  A    between atoms: C_25  and  C_26
REMARK                            x       y       z     vdW  Elec       q    Type
REMARK                         _______ _______ _______ _____ _____    ______ ____
ROOT
ATOM      1  N   UNL     1       1.084   4.390  19.691  0.00  0.00    +0.000 N 
ATOM      2  C   UNL     1       1.794   5.292  20.446  0.00  0.00    +0.000 C 
ATOM      3  O   UNL     1       2.491   4.966  21.412  0.00  0.00    +0.000 OA
ATOM      4  H   UNL     1       0.442   4.746  18.990  0.00  0.00    +0.000 HD
ENDROOT
BRANCH   2   5
ATOM      5  C   UNL     1       1.730   6.731  20.060  0.00  0.00    +0.000 A 
ATOM      6  C   UNL     1       1.144   7.619  20.980  0.00  0.00    +0.000 A 
ATOM      7  C   UNL     1       1.008   8.984  20.673  0.00  0.00    +0.000 A 
ATOM      8  C   UNL     1       1.463   9.469  19.444  0.00  0.00    +0.000 A 
ATOM      9  C   UNL     1       2.043   8.595  18.530  0.00  0.00    +0.000 A 
ATOM     10  C   UNL     1       2.169   7.226  18.821  0.00  0.00    +0.000 A 
ATOM     11 CL   UNL     1       2.832   6.238  17.574  0.00  0.00    +0.000 Cl
BRANCH   7  12
ATOM     12  N   UNL     1       0.419   9.871  21.596  0.00  0.00    +0.000 N 
ATOM     13  C   UNL     1      -0.036   9.593  22.860  0.00  0.00    +0.000 A 
ATOM     14  N   UNL     1      -0.543  10.664  23.410  0.00  0.00    +0.000 NA
ATOM     15  N   UNL     1      -0.415  11.692  22.502  0.00  0.00    +0.000 NA
ATOM     16  C   UNL     1       0.146  11.203  21.429  0.00  0.00    +0.000 A 
ENDBRANCH   7  12
ENDBRANCH   2   5
BRANCH   1  17
ATOM     17  C   UNL     1       1.105   2.956  19.952  0.00  0.00    +0.000 C 
BRANCH  17  18
ATOM     18  C   UNL     1       2.135   2.208  19.095  0.00  0.00    +0.000 C 
BRANCH  18  19
ATOM     19  O   UNL     1       3.467   2.528  19.513  0.00  0.00    +0.000 OA
BRANCH  19  24
ATOM     20  C   UNL     1       6.950   5.320  15.960  0.00  0.00    +0.000 C 
ATOM     21  C   UNL     1       6.022   4.604  16.902  0.00  0.00    +0.000 A 
ATOM     22  C   UNL     1       5.023   3.774  16.376  0.00  0.00    +0.000 A 
ATOM     23  C   UNL     1       4.151   3.075  17.213  0.00  0.00    +0.000 A 
ATOM     24  C   UNL     1       4.258   3.182  18.598  0.00  0.00    +0.000 A 
ATOM     25  C   UNL     1       5.247   4.022  19.132  0.00  0.00    +0.000 A 
ATOM     26  C   UNL     1       6.130   4.741  18.298  0.00  0.00    +0.000 A 
ATOM     27  C   UNL     1       7.169   5.645  18.907  0.00  0.00    +0.000 C 
ENDBRANCH  19  24
ENDBRANCH  18  19
ENDBRANCH  17  18
ENDBRANCH   1  17
TORSDOF 6
ENDMDL
MODEL 4
REMARK VINA RESULT:      -8.0      5.794      8.789
REMARK  Name = 
REMARK  8 active torsions:
REMARK  status: ('A' for Active; 'I' for Inactive)
REMARK    1  A    between atoms: C_1  and  C_2
REMARK    2  A    between atoms: C_5  and  O_6
REMARK    3  A    between atoms: O_6  and  C_7
REMARK    4  A    between atoms: C_7  and  C_8
REMARK    5  A    between atoms: C_8  and  N_9
REMARK    6  A    between atoms: C_10  and  C_12
REMARK    7  A    between atoms: C_14  and  N_15
REMARK    8  A    between atoms: C_25  and  C_26
REMARK                            x       y       z     vdW  Elec       q    Type
REMARK                         _______ _______ _______ _____ _____    ______ ____
ROOT
ATOM      1  N   UNL     1       2.017   7.341  20.434  0.00  0.00    +0.000 N 
ATOM      2  C   UNL     1       2.404   7.274  19.117  0.00  0.00    +0.000 C 
ATOM      3  O   UNL     1       2.356   8.239  18.347  0.00  0.00    +0.000 OA
ATOM      4  H   UNL     1       1.973   6.479  20.969  0.00  0.00    +0.000 HD
ENDROOT
BRANCH   2   5
ATOM      5  C   UNL     1       2.924   5.973  18.606  0.00  0.00    +0.000 A 
ATOM      6  C   UNL     1       3.967   6.021  17.664  0.00  0.00    +0.000 A 
ATOM      7  C   UNL     1       4.484   4.841  17.104  0.00  0.00    +0.000 A 
ATOM      8  C   UNL     1       3.961   3.603  17.488  0.00  0.00    +0.000 A 
ATOM      9  C   UNL     1       2.930   3.549  18.419  0.00  0.00    +0.000 A 
ATOM     10  C   UNL     1       2.396   4.724  18.973  0.00  0.00    +0.000 A 
ATOM     11 CL   UNL     1       1.068   4.524  20.054  0.00  0.00    +0.000 Cl
BRANCH   7  12
ATOM     12  N   UNL     1       5.528   4.893  16.159  0.00  0.00    +0.000 N 
ATOM     13  C   UNL     1       6.774   5.445  16.309  0.00  0.00    +0.000 A 
ATOM     14  N   UNL     1       7.464   5.325  15.205  0.00  0.00    +0.000 NA
ATOM     15  N   UNL     1       6.670   4.664  14.295  0.00  0.00    +0.000 NA
ATOM     16  C   UNL     1       5.523   4.425  14.871  0.00  0.00    +0.000 A 
ENDBRANCH   7  12
ENDBRANCH   2   5
BRANCH   1  17
ATOM     17  C   UNL     1       1.532   8.569  21.050  0.00  0.00    +0.000 C 
BRANCH  17  18
ATOM     18  C   UNL     1       0.134   8.971  20.560  0.00  0.00    +0.000 C 
BRANCH  18  19
ATOM     19  O   UNL     1       0.156  10.289  19.997  0.00  0.00    +0.000 OA
BRANCH  19  24
ATOM     20  C   UNL     1      -4.533  11.728  17.082  0.00  0.00    +0.000 C 
ATOM     21  C   UNL     1      -3.284  11.359  17.835  0.00  0.00    +0.000 A 
ATOM     22  C   UNL     1      -3.017  11.983  19.060  0.00  0.00    +0.000 A 
ATOM     23  C   UNL     1      -1.879  11.658  19.803  0.00  0.00    +0.000 A 
ATOM     24  C   UNL     1      -0.982  10.697  19.343  0.00  0.00    +0.000 A 
ATOM     25  C   UNL     1      -1.236  10.078  18.110  0.00  0.00    +0.000 A 
ATOM     26  C   UNL     1      -2.376  10.402  17.345  0.00  0.00    +0.000 A 
ATOM     27  C   UNL     1      -2.608   9.727  16.018  0.00  0.00    +0.000 C 
ENDBRANCH  19  24
ENDBRANCH  18  19
ENDBRANCH  17  18
ENDBRANCH   1  17
TORSDOF 6
ENDMDL
MODEL 5
REMARK VINA RESULT:      -7.9      1.272      1.793
REMARK  Name = 
REMARK  8 active torsions:
REMARK  status: ('A' for Active; 'I' for Inactive)
REMARK    1  A    between atoms: C_1  and  C_2
REMARK    2  A    between atoms: C_5  and  O_6
REMARK    3  A    between atoms: O_6  and  C_7
REMARK    4  A    between atoms: C_7  and  C_8
REMARK    5  A    between atoms: C_8  and  N_9
REMARK    6  A    between atoms: C_10  and  C_12
REMARK    7  A    between atoms: C_14  and  N_15
REMARK    8  A    between atoms: C_25  and  C_26
REMARK                            x       y       z     vdW  Elec       q    Type
REMARK                         _______ _______ _______ _____ _____    ______ ____
ROOT
ATOM      1  N   UNL     1       6.987   6.919  17.545  0.00  0.00    +0.000 N 
ATOM      2  C   UNL     1       6.839   5.632  18.004  0.00  0.00    +0.000 C 
ATOM      3  O   UNL     1       7.758   4.986  18.516  0.00  0.00    +0.000 OA
ATOM      4  H   UNL     1       6.220   7.340  17.030  0.00  0.00    +0.000 HD
ENDROOT
BRANCH   2   5
ATOM      5  C   UNL     1       5.493   5.001  17.892  0.00  0.00    +0.000 A 
ATOM      6  C   UNL     1       4.899   4.535  19.080  0.00  0.00    +0.000 A 
ATOM      7  C   UNL     1       3.650   3.891  19.053  0.00  0.00    +0.000 A 
ATOM      8  C   UNL     1       2.986   3.713  17.836  0.00  0.00    +0.000 A 
ATOM      9  C   UNL     1       3.568   4.171  16.660  0.00  0.00    +0.000 A 
ATOM     10  C   UNL     1       4.823   4.802  16.674  0.00  0.00    +0.000 A 
ATOM     11 CL   UNL     1       5.470   5.251  15.140  0.00  0.00    +0.000 Cl
BRANCH   7  12
ATOM     12  N   UNL     1       3.059   3.424  20.244  0.00  0.00    +0.000 N 
ATOM     13  C   UNL     1       1.921   3.884  20.857  0.00  0.00    +0.000 A 
ATOM     14  N   UNL     1       1.696   3.220  21.960  0.00  0.00    +0.000 NA
ATOM     15  N   UNL     1       2.696   2.282  22.087  0.00  0.00    +0.000 NA
ATOM     16  C   UNL     1       3.502   2.424  21.068  0.00  0.00    +0.000 A 
ENDBRANCH   7  12
ENDBRANCH   2   5
BRANCH   1  17
ATOM     17  C   UNL     1       8.245   7.649  17.639  0.00  0.00    +0.000 C 
BRANCH  17  18
ATOM     18  C   UNL     1       8.060   9.106  18.084  0.00  0.00    +0.000 C 
BRANCH  18  19
ATOM     19  O   UNL     1       8.741   9.347  19.321  0.00  0.00    +0.000 OA
BRANCH  19  24
ATOM     20  C   UNL     1      11.535  14.320  19.435  0.00  0.00    +0.000 C 
ATOM     21  C   UNL     1      10.817  12.999  19.399  0.00  0.00    +0.000 A 
ATOM     22  C   UNL     1      10.404  12.414  20.603  0.00  0.00    +0.000 A 
ATOM     23  C   UNL     1       9.718  11.197  20.616  0.00  0.00    +0.000 A 
ATOM     24  C   UNL     1       9.423  10.536  19.425  0.00  0.00    +0.000 A 
ATOM     25  C   UNL     1       9.847  11.108  18.217  0.00  0.00    +0.000 A 
ATOM     26  C   UNL     1      10.547  12.333  18.189  0.00  0.00    +0.000 A 
ATOM     27  C   UNL     1      11.000  12.910  16.873  0.00  0.00    +0.000 C 
ENDBRANCH  19  24
ENDBRANCH  18  19
ENDBRANCH  17  18
ENDBRANCH   1  17
TORSDOF 6
ENDMDL
MODEL 6
REMARK VINA RESULT:      -7.9      1.282      1.439
REMARK  Name = 
REMARK  8 active torsions:
REMARK  status: ('A' for Active; 'I' for Inactive)
REMARK    1  A    between atoms: C_1  and  C_2
REMARK    2  A    between atoms: C_5  and  O_6
REMARK    3  A    between atoms: O_6  and  C_7
REMARK    4  A    between atoms: C_7  and  C_8
REMARK    5  A    between atoms: C_8  and  N_9
REMARK    6  A    between atoms: C_10  and  C_12
REMARK    7  A    between atoms: C_14  and  N_15
REMARK    8  A    between atoms: C_25  and  C_26
REMARK                            x       y       z     vdW  Elec       q    Type
REMARK                         _______ _______ _______ _____ _____    ______ ____
ROOT
ATOM      1  N   UNL     1       6.990   6.978  17.504  0.00  0.00    +0.000 N 
ATOM      2  C   UNL     1       6.886   5.676  17.932  0.00  0.00    +0.000 C 
ATOM      3  O   UNL     1       7.833   5.041  18.405  0.00  0.00    +0.000 OA
ATOM      4  H   UNL     1       6.201   7.392  17.018  0.00  0.00    +0.000 HD
ENDROOT
BRANCH   2   5
ATOM      5  C   UNL     1       5.554   5.013  17.835  0.00  0.00    +0.000 A 
ATOM      6  C   UNL     1       4.956   4.588  19.035  0.00  0.00    +0.000 A 
ATOM      7  C   UNL     1       3.721   3.918  19.024  0.00  0.00    +0.000 A 
ATOM      8  C   UNL     1       3.074   3.674  17.809  0.00  0.00    +0.000 A 
ATOM      9  C   UNL     1       3.660   4.092  16.620  0.00  0.00    +0.000 A 
ATOM     10  C   UNL     1       4.901   4.749  16.619  0.00  0.00    +0.000 A 
ATOM     11 CL   UNL     1       5.555   5.145  15.074  0.00  0.00    +0.000 Cl
BRANCH   7  12
ATOM     12  N   UNL     1       3.127   3.490  20.228  0.00  0.00    +0.000 N 
ATOM     13  C   UNL     1       3.439   2.384  20.976  0.00  0.00    +0.000 A 
ATOM     14  N   UNL     1       2.655   2.300  22.018  0.00  0.00    +0.000 NA
ATOM     15  N   UNL     1       1.804   3.381  21.980  0.00  0.00    +0.000 NA
ATOM     16  C   UNL     1       2.089   4.071  20.908  0.00  0.00    +0.000 A 
ENDBRANCH   7  12
ENDBRANCH   2   5
BRANCH   1  17
ATOM     17  C   UNL     1       8.232   7.737  17.589  0.00  0.00    +0.000 C 
BRANCH  17  18
ATOM     18  C   UNL     1       8.016   9.186  18.045  0.00  0.00    +0.000 C 
BRANCH  18  19
ATOM     19  O   UNL     1       8.921   9.522  19.104  0.00  0.00    +0.000 OA
BRANCH  19  24
ATOM     20  C   UNL     1      11.418  14.652  19.101  0.00  0.00    +0.000 C 
ATOM     21  C   UNL     1      10.740  13.310  19.102  0.00  0.00    +0.000 A 
ATOM     22  C   UNL     1      10.787  12.521  17.945  0.00  0.00    +0.000 A 
ATOM     23  C   UNL     1      10.187  11.260  17.907  0.00  0.00    +0.000 A 
ATOM     24  C   UNL     1       9.530  10.752  19.025  0.00  0.00    +0.000 A 
ATOM     25  C   UNL     1       9.466  11.543  20.182  0.00  0.00    +0.000 A 
ATOM     26  C   UNL     1      10.060  12.822  20.233  0.00  0.00    +0.000 A 
ATOM     27  C   UNL     1       9.958  13.648  21.488  0.00  0.00    +0.000 C 
ENDBRANCH  19  24
ENDBRANCH  18  19
ENDBRANCH  17  18
ENDBRANCH   1  17
TORSDOF 6
ENDMDL
MODEL 7
REMARK VINA RESULT:      -7.9      1.322      1.719
REMARK  Name = 
REMARK  8 active torsions:
REMARK  status: ('A' for Active; 'I' for Inactive)
REMARK    1  A    between atoms: C_1  and  C_2
REMARK    2  A    between atoms: C_5  and  O_6
REMARK    3  A    between atoms: O_6  and  C_7
REMARK    4  A    between atoms: C_7  and  C_8
REMARK    5  A    between atoms: C_8  and  N_9
REMARK    6  A    between atoms: C_10  and  C_12
REMARK    7  A    between atoms: C_14  and  N_15
REMARK    8  A    between atoms: C_25  and  C_26
REMARK                            x       y       z     vdW  Elec       q    Type
REMARK                         _______ _______ _______ _____ _____    ______ ____
ROOT
ATOM      1  N   UNL     1       7.395   7.107  17.983  0.00  0.00    +0.000 N 
ATOM      2  C   UNL     1       7.225   5.863  18.542  0.00  0.00    +0.000 C 
ATOM      3  O   UNL     1       7.965   5.409  19.421  0.00  0.00    +0.000 OA
ATOM      4  H   UNL     1       6.821   7.361  17.185  0.00  0.00    +0.000 HD
ENDROOT
BRANCH   2   5
ATOM      5  C   UNL     1       6.076   5.037  18.074  0.00  0.00    +0.000 A 
ATOM      6  C   UNL     1       5.081   4.722  19.017  0.00  0.00    +0.000 A 
ATOM      7  C   UNL     1       3.987   3.914  18.665  0.00  0.00    +0.000 A 
ATOM      8  C   UNL     1       3.880   3.419  17.362  0.00  0.00    +0.000 A 
ATOM      9  C   UNL     1       4.861   3.727  16.425  0.00  0.00    +0.000 A 
ATOM     10  C   UNL     1       5.966   4.521  16.772  0.00  0.00    +0.000 A 
ATOM     11 CL   UNL     1       7.149   4.763  15.542  0.00  0.00    +0.000 Cl
BRANCH   7  12
ATOM     12  N   UNL     1       2.994   3.598  19.613  0.00  0.00    +0.000 N 
ATOM     13  C   UNL     1       2.574   4.355  20.677  0.00  0.00    +0.000 A 
ATOM     14  N   UNL     1       1.649   3.723  21.352  0.00  0.00    +0.000 NA
ATOM     15  N   UNL     1       1.431   2.520  20.720  0.00  0.00    +0.000 NA
ATOM     16  C   UNL     1       2.243   2.456  19.699  0.00  0.00    +0.000 A 
ENDBRANCH   7  12
ENDBRANCH   2   5
BRANCH   1  17
ATOM     17  C   UNL     1       8.459   8.015  18.392  0.00  0.00    +0.000 C 
BRANCH  17  18
ATOM     18  C   UNL     1       8.154   9.482  18.060  0.00  0.00    +0.000 C 
BRANCH  18  19
ATOM     19  O   UNL     1       9.367  10.236  17.946  0.00  0.00    +0.000 OA
BRANCH  19  24
ATOM     20  C   UNL     1      10.179  14.521  21.625  0.00  0.00    +0.000 C 
ATOM     21  C   UNL     1       9.987  13.393  20.649  0.00  0.00    +0.000 A 
ATOM     22  C   UNL     1       9.785  12.095  21.138  0.00  0.00    +0.000 A 
ATOM     23  C   UNL     1       9.584  11.020  20.269  0.00  0.00    +0.000 A 
ATOM     24  C   UNL     1       9.572  11.215  18.889  0.00  0.00    +0.000 A 
ATOM     25  C   UNL     1       9.788  12.509  18.393  0.00  0.00    +0.000 A 
ATOM     26  C   UNL     1      10.001  13.603  19.258  0.00  0.00    +0.000 A 
ATOM     27  C   UNL     1      10.244  14.976  18.688  0.00  0.00    +0.000 C 
ENDBRANCH  19  24
ENDBRANCH  18  19
ENDBRANCH  17  18
ENDBRANCH   1  17
TORSDOF 6
ENDMDL
MODEL 8
REMARK VINA RESULT:      -7.9      5.502      8.545
REMARK  Name = 
REMARK  8 active torsions:
REMARK  status: ('A' for Active; 'I' for Inactive)
REMARK    1  A    between atoms: C_1  and  C_2
REMARK    2  A    between atoms: C_5  and  O_6
REMARK    3  A    between atoms: O_6  and  C_7
REMARK    4  A    between atoms: C_7  and  C_8
REMARK    5  A    between atoms: C_8  and  N_9
REMARK    6  A    between atoms: C_10  and  C_12
REMARK    7  A    between atoms: C_14  and  N_15
REMARK    8  A    between atoms: C_25  and  C_26
REMARK                            x       y       z     vdW  Elec       q    Type
REMARK                         _______ _______ _______ _____ _____    ______ ____
ROOT
ATOM      1  N   UNL     1       2.229   7.196  20.019  0.00  0.00    +0.000 N 
ATOM      2  C   UNL     1       2.309   5.833  20.181  0.00  0.00    +0.000 C 
ATOM      3  O   UNL     1       1.949   5.251  21.209  0.00  0.00    +0.000 OA
ATOM      4  H   UNL     1       2.654   7.610  19.195  0.00  0.00    +0.000 HD
ENDROOT
BRANCH   2   5
ATOM      5  C   UNL     1       2.840   5.024  19.047  0.00  0.00    +0.000 A 
ATOM      6  C   UNL     1       4.035   5.461  18.448  0.00  0.00    +0.000 A 
ATOM      7  C   UNL     1       4.578   4.776  17.347  0.00  0.00    +0.000 A 
ATOM      8  C   UNL     1       3.930   3.646  16.842  0.00  0.00    +0.000 A 
ATOM      9  C   UNL     1       2.748   3.210  17.431  0.00  0.00    +0.000 A 
ATOM     10  C   UNL     1       2.189   3.896  18.522  0.00  0.00    +0.000 A 
ATOM     11 CL   UNL     1       0.681   3.299  19.108  0.00  0.00    +0.000 Cl
BRANCH   7  12
ATOM     12  N   UNL     1       5.775   5.218  16.748  0.00  0.00    +0.000 N 
ATOM     13  C   UNL     1       6.501   6.343  17.045  0.00  0.00    +0.000 A 
ATOM     14  N   UNL     1       7.543   6.436  16.260  0.00  0.00    +0.000 NA
ATOM     15  N   UNL     1       7.525   5.343  15.424  0.00  0.00    +0.000 NA
ATOM     16  C   UNL     1       6.466   4.637  15.718  0.00  0.00    +0.000 A 
ENDBRANCH   7  12
ENDBRANCH   2   5
BRANCH   1  17
ATOM     17  C   UNL     1       1.690   8.080  21.045  0.00  0.00    +0.000 C 
BRANCH  17  18
ATOM     18  C   UNL     1       0.331   8.680  20.661  0.00  0.00    +0.000 C 
BRANCH  18  19
ATOM     19  O   UNL     1       0.504   9.812  19.801  0.00  0.00    +0.000 OA
BRANCH  19  24
ATOM     20  C   UNL     1      -4.069  11.587  16.886  0.00  0.00    +0.000 C 
ATOM     21  C   UNL     1      -2.877  11.107  17.668  0.00  0.00    +0.000 A 
ATOM     22  C   UNL     1      -1.992  10.197  17.073  0.00  0.00    +0.000 A 
ATOM     23  C   UNL     1      -0.863   9.739  17.755  0.00  0.00    +0.000 A 
ATOM     24  C   UNL     1      -0.584  10.183  19.046  0.00  0.00    +0.000 A 
ATOM     25  C   UNL     1      -1.473  11.083  19.653  0.00  0.00    +0.000 A 
ATOM     26  C   UNL     1      -2.622  11.549  18.979  0.00  0.00    +0.000 A 
ATOM     27  C   UNL     1      -3.561  12.503  19.668  0.00  0.00    +0.000 C 
ENDBRANCH  19  24
ENDBRANCH  18  19
ENDBRANCH  17  18
ENDBRANCH   1  17
TORSDOF 6
ENDMDL
MODEL 9
REMARK VINA RESULT:      -7.9      6.021      8.976
REMARK  Name = 
REMARK  8 active torsions:
REMARK  status: ('A' for Active; 'I' for Inactive)
REMARK    1  A    between atoms: C_1  and  C_2
REMARK    2  A    between atoms: C_5  and  O_6
REMARK    3  A    between atoms: O_6  and  C_7
REMARK    4  A    between atoms: C_7  and  C_8
REMARK    5  A    between atoms: C_8  and  N_9
REMARK    6  A    between atoms: C_10  and  C_12
REMARK    7  A    between atoms: C_14  and  N_15
REMARK    8  A    between atoms: C_25  and  C_26
REMARK                            x       y       z     vdW  Elec       q    Type
REMARK                         _______ _______ _______ _____ _____    ______ ____
ROOT
ATOM      1  N   UNL     1       2.337   7.828  18.402  0.00  0.00    +0.000 N 
ATOM      2  C   UNL     1       2.411   6.690  19.169  0.00  0.00    +0.000 C 
ATOM      3  O   UNL     1       2.065   6.648  20.354  0.00  0.00    +0.000 OA
ATOM      4  H   UNL     1       2.750   7.814  17.475  0.00  0.00    +0.000 HD
ENDROOT
BRANCH   2   5
ATOM      5  C   UNL     1       2.917   5.444  18.525  0.00  0.00    +0.000 A 
ATOM      6  C   UNL     1       3.992   5.574  17.626  0.00  0.00    +0.000 A 
ATOM      7  C   UNL     1       4.498   4.453  16.947  0.00  0.00    +0.000 A 
ATOM      8  C   UNL     1       3.935   3.193  17.167  0.00  0.00    +0.000 A 
ATOM      9  C   UNL     1       2.873   3.059  18.054  0.00  0.00    +0.000 A 
ATOM     10  C   UNL     1       2.349   4.176  18.727  0.00  0.00    +0.000 A 
ATOM     11 CL   UNL     1       0.983   3.887  19.737  0.00  0.00    +0.000 Cl
BRANCH   7  12
ATOM     12  N   UNL     1       5.573   4.587  16.045  0.00  0.00    +0.000 N 
ATOM     13  C   UNL     1       5.553   4.443  14.682  0.00  0.00    +0.000 A 
ATOM     14  N   UNL     1       6.749   4.618  14.184  0.00  0.00    +0.000 NA
ATOM     15  N   UNL     1       7.592   4.901  15.235  0.00  0.00    +0.000 NA
ATOM     16  C   UNL     1       6.883   4.868  16.332  0.00  0.00    +0.000 A 
ENDBRANCH   7  12
ENDBRANCH   2   5
BRANCH   1  17
ATOM     17  C   UNL     1       1.822   9.091  18.916  0.00  0.00    +0.000 C 
BRANCH  17  18
ATOM     18  C   UNL     1       0.639   9.630  18.100  0.00  0.00    +0.000 C 
BRANCH  18  19
ATOM     19  O   UNL     1       0.038  10.749  18.762  0.00  0.00    +0.000 OA
BRANCH  19  24
ATOM     20  C   UNL     1      -5.384  11.642  17.223  0.00  0.00    +0.000 C 
ATOM     21  C   UNL     1      -3.948  11.422  17.613  0.00  0.00    +0.000 A 
ATOM     22  C   UNL     1      -3.492  11.912  18.844  0.00  0.00    +0.000 A 
ATOM     23  C   UNL     1      -2.172  11.715  19.255  0.00  0.00    +0.000 A 
ATOM     24  C   UNL     1      -1.275  11.015  18.450  0.00  0.00    +0.000 A 
ATOM     25  C   UNL     1      -1.720  10.534  17.211  0.00  0.00    +0.000 A 
ATOM     26  C   UNL     1      -3.048  10.733  16.778  0.00  0.00    +0.000 A 
ATOM     27  C   UNL     1      -3.487  10.214  15.434  0.00  0.00    +0.000 C 
ENDBRANCH  19  24
ENDBRANCH  18  19
ENDBRANCH  17  18
ENDBRANCH   1  17
TORSDOF 6
ENDMDL
