MODEL 1
REMARK VINA RESULT:      -7.6      0.000      0.000
REMARK  Name = 
REMARK  3 active torsions:
REMARK  status: ('A' for Active; 'I' for Inactive)
REMARK    1  A    between atoms: C_6  and  C_7
REMARK    2  A    between atoms: C_7  and  N_8
REMARK    3  A    between atoms: N_8  and  C_9
REMARK                            x       y       z     vdW  Elec       q    Type
REMARK                         _______ _______ _______ _____ _____    ______ ____
ROOT
ATOM      1  C   UNL     1       7.550   7.626  17.564  0.00  0.00    +0.000 A 
ATOM      2  C   UNL     1       8.175   6.945  18.634  0.00  0.00    +0.000 A 
ATOM      3  C   UNL     1       7.694   5.694  19.064  0.00  0.00    +0.000 A 
ATOM      4  C   UNL     1       6.588   5.162  18.404  0.00  0.00    +0.000 A 
ATOM      5  N   UNL     1       5.971   3.985  18.642  0.00  0.00    +0.000 N 
ATOM      6  C   UNL     1       4.945   3.923  17.761  0.00  0.00    +0.000 A 
ATOM      7  C   UNL     1       4.916   5.061  16.957  0.00  0.00    +0.000 A 
ATOM      8  C   UNL     1       5.973   5.830  17.378  0.00  0.00    +0.000 A 
ATOM      9  C   UNL     1       6.430   7.066  16.924  0.00  0.00    +0.000 A 
ATOM     10  H   UNL     1       6.230   3.276  19.364  0.00  0.00    +0.000 HD
ENDROOT
BRANCH   6  11
ATOM     11  C   UNL     1       3.971   2.788  17.656  0.00  0.00    +0.000 C 
BRANCH  11  12
ATOM     12  N   UNL     1       3.421   2.437  18.973  0.00  0.00    +0.000 NA
ATOM     13  H   UNL     1       3.928   2.958  19.721  0.00  0.00    +0.000 HD
BRANCH  12  14
ATOM     14  C   UNL     1       1.949   2.609  19.051  0.00  0.00    +0.000 C 
ATOM     15  C   UNL     1       1.462   2.489  20.514  0.00  0.00    +0.000 C 
ATOM     16  C   UNL     1       1.951   3.668  21.376  0.00  0.00    +0.000 C 
ATOM     17  C   UNL     1       1.497   5.005  20.766  0.00  0.00    +0.000 C 
ATOM     18  C   UNL     1       1.977   5.144  19.314  0.00  0.00    +0.000 C 
ATOM     19  C   UNL     1       1.458   3.964  18.477  0.00  0.00    +0.000 C 
ENDBRANCH  12  14
ENDBRANCH  11  12
ENDBRANCH   6  11
TORSDOF 3
ENDMDL
MODEL 2
REMARK VINA RESULT:      -7.6      3.064      4.264
REMARK  Name = 
REMARK  3 active torsions:
REMARK  status: ('A' for Active; 'I' for Inactive)
REMARK    1  A    between atoms: C_6  and  C_7
REMARK    2  A    between atoms: C_7  and  N_8
REMARK    3  A    between atoms: N_8  and  C_9
REMARK                            x       y       z     vdW  Elec       q    Type
REMARK                         _______ _______ _______ _____ _____    ______ ____
ROOT
ATOM      1  C   UNL     1       6.516   3.758  11.873  0.00  0.00    +0.000 A 
ATOM      2  C   UNL     1       7.509   4.764  11.919  0.00  0.00    +0.000 A 
ATOM      3  C   UNL     1       7.859   5.369  13.140  0.00  0.00    +0.000 A 
ATOM      4  C   UNL     1       7.192   4.946  14.288  0.00  0.00    +0.000 A 
ATOM      5  N   UNL     1       7.370   5.380  15.555  0.00  0.00    +0.000 N 
ATOM      6  C   UNL     1       6.483   4.688  16.308  0.00  0.00    +0.000 A 
ATOM      7  C   UNL     1       5.746   3.808  15.519  0.00  0.00    +0.000 A 
ATOM      8  C   UNL     1       6.218   3.984  14.241  0.00  0.00    +0.000 A 
ATOM      9  C   UNL     1       5.856   3.359  13.049  0.00  0.00    +0.000 A 
ATOM     10  H   UNL     1       8.048   6.106  15.879  0.00  0.00    +0.000 HD
ENDROOT
BRANCH   6  11
ATOM     11  C   UNL     1       6.315   4.840  17.791  0.00  0.00    +0.000 C 
BRANCH  11  12
ATOM     12  N   UNL     1       5.725   3.630  18.384  0.00  0.00    +0.000 NA
ATOM     13  H   UNL     1       6.465   3.072  18.862  0.00  0.00    +0.000 HD
BRANCH  12  14
ATOM     14  C   UNL     1       4.567   3.922  19.263  0.00  0.00    +0.000 C 
ATOM     15  C   UNL     1       3.466   4.677  18.482  0.00  0.00    +0.000 C 
ATOM     16  C   UNL     1       2.815   3.786  17.408  0.00  0.00    +0.000 C 
ATOM     17  C   UNL     1       2.242   2.507  18.044  0.00  0.00    +0.000 C 
ATOM     18  C   UNL     1       3.323   1.741  18.819  0.00  0.00    +0.000 C 
ATOM     19  C   UNL     1       3.939   2.651  19.894  0.00  0.00    +0.000 C 
ENDBRANCH  12  14
ENDBRANCH  11  12
ENDBRANCH   6  11
TORSDOF 3
ENDMDL
MODEL 3
REMARK VINA RESULT:      -7.3      0.916      1.081
REMARK  Name = 
REMARK  3 active torsions:
REMARK  status: ('A' for Active; 'I' for Inactive)
REMARK    1  A    between atoms: C_6  and  C_7
REMARK    2  A    between atoms: C_7  and  N_8
REMARK    3  A    between atoms: N_8  and  C_9
REMARK                            x       y       z     vdW  Elec       q    Type
REMARK                         _______ _______ _______ _____ _____    ______ ____
ROOT
ATOM      1  C   UNL     1       7.688   7.724  17.777  0.00  0.00    +0.000 A 
ATOM      2  C   UNL     1       8.252   6.904  18.782  0.00  0.00    +0.000 A 
ATOM      3  C   UNL     1       7.710   5.634  19.056  0.00  0.00    +0.000 A 
ATOM      4  C   UNL     1       6.607   5.224  18.311  0.00  0.00    +0.000 A 
ATOM      5  N   UNL     1       5.938   4.055  18.399  0.00  0.00    +0.000 N 
ATOM      6  C   UNL     1       4.939   4.133  17.489  0.00  0.00    +0.000 A 
ATOM      7  C   UNL     1       4.979   5.352  16.815  0.00  0.00    +0.000 A 
ATOM      8  C   UNL     1       6.051   6.026  17.349  0.00  0.00    +0.000 A 
ATOM      9  C   UNL     1       6.569   7.284  17.047  0.00  0.00    +0.000 A 
ATOM     10  H   UNL     1       6.146   3.260  19.045  0.00  0.00    +0.000 HD
ENDROOT
BRANCH   6  11
ATOM     11  C   UNL     1       3.926   3.057  17.231  0.00  0.00    +0.000 C 
BRANCH  11  12
ATOM     12  N   UNL     1       2.597   3.452  17.721  0.00  0.00    +0.000 NA
ATOM     13  H   UNL     1       2.027   3.831  16.935  0.00  0.00    +0.000 HD
BRANCH  12  14
ATOM     14  C   UNL     1       1.907   2.367  18.460  0.00  0.00    +0.000 C 
ATOM     15  C   UNL     1       2.828   1.782  19.555  0.00  0.00    +0.000 C 
ATOM     16  C   UNL     1       3.091   2.797  20.683  0.00  0.00    +0.000 C 
ATOM     17  C   UNL     1       1.765   3.277  21.296  0.00  0.00    +0.000 C 
ATOM     18  C   UNL     1       0.839   3.867  20.223  0.00  0.00    +0.000 C 
ATOM     19  C   UNL     1       0.581   2.824  19.124  0.00  0.00    +0.000 C 
ENDBRANCH  12  14
ENDBRANCH  11  12
ENDBRANCH   6  11
TORSDOF 3
ENDMDL
MODEL 4
REMARK VINA RESULT:      -7.1      2.935      4.084
REMARK  Name = 
REMARK  3 active torsions:
REMARK  status: ('A' for Active; 'I' for Inactive)
REMARK    1  A    between atoms: C_6  and  C_7
REMARK    2  A    between atoms: C_7  and  N_8
REMARK    3  A    between atoms: N_8  and  C_9
REMARK                            x       y       z     vdW  Elec       q    Type
REMARK                         _______ _______ _______ _____ _____    ______ ____
ROOT
ATOM      1  C   UNL     1       6.284   3.666  12.041  0.00  0.00    +0.000 A 
ATOM      2  C   UNL     1       7.418   4.510  12.060  0.00  0.00    +0.000 A 
ATOM      3  C   UNL     1       7.829   5.130  13.256  0.00  0.00    +0.000 A 
ATOM      4  C   UNL     1       7.079   4.883  14.404  0.00  0.00    +0.000 A 
ATOM      5  N   UNL     1       7.293   5.361  15.649  0.00  0.00    +0.000 N 
ATOM      6  C   UNL     1       6.295   4.859  16.413  0.00  0.00    +0.000 A 
ATOM      7  C   UNL     1       5.449   4.054  15.652  0.00  0.00    +0.000 A 
ATOM      8  C   UNL     1       5.971   4.078  14.382  0.00  0.00    +0.000 A 
ATOM      9  C   UNL     1       5.544   3.444  13.217  0.00  0.00    +0.000 A 
ATOM     10  H   UNL     1       8.067   5.995  15.953  0.00  0.00    +0.000 HD
ENDROOT
BRANCH   6  11
ATOM     11  C   UNL     1       6.118   5.124  17.878  0.00  0.00    +0.000 C 
BRANCH  11  12
ATOM     12  N   UNL     1       4.928   4.437  18.402  0.00  0.00    +0.000 NA
ATOM     13  H   UNL     1       5.208   3.750  19.134  0.00  0.00    +0.000 HD
BRANCH  12  14
ATOM     14  C   UNL     1       3.876   5.374  18.865  0.00  0.00    +0.000 C 
ATOM     15  C   UNL     1       2.775   5.533  17.791  0.00  0.00    +0.000 C 
ATOM     16  C   UNL     1       1.966   4.235  17.607  0.00  0.00    +0.000 C 
ATOM     17  C   UNL     1       1.351   3.790  18.945  0.00  0.00    +0.000 C 
ATOM     18  C   UNL     1       2.431   3.621  20.023  0.00  0.00    +0.000 C 
ATOM     19  C   UNL     1       3.207   4.937  20.195  0.00  0.00    +0.000 C 
ENDBRANCH  12  14
ENDBRANCH  11  12
ENDBRANCH   6  11
TORSDOF 3
ENDMDL
MODEL 5
REMARK VINA RESULT:      -7.1      1.272      1.935
REMARK  Name = 
REMARK  3 active torsions:
REMARK  status: ('A' for Active; 'I' for Inactive)
REMARK    1  A    between atoms: C_6  and  C_7
REMARK    2  A    between atoms: C_7  and  N_8
REMARK    3  A    between atoms: N_8  and  C_9
REMARK                            x       y       z     vdW  Elec       q    Type
REMARK                         _______ _______ _______ _____ _____    ______ ____
ROOT
ATOM      1  C   UNL     1       8.290   6.934  18.867  0.00  0.00    +0.000 A 
ATOM      2  C   UNL     1       7.873   7.804  17.834  0.00  0.00    +0.000 A 
ATOM      3  C   UNL     1       6.744   7.496  17.052  0.00  0.00    +0.000 A 
ATOM      4  C   UNL     1       6.066   6.311  17.331  0.00  0.00    +0.000 A 
ATOM      5  N   UNL     1       4.965   5.825  16.718  0.00  0.00    +0.000 N 
ATOM      6  C   UNL     1       4.696   4.645  17.326  0.00  0.00    +0.000 A 
ATOM      7  C   UNL     1       5.625   4.385  18.331  0.00  0.00    +0.000 A 
ATOM      8  C   UNL     1       6.481   5.460  18.321  0.00  0.00    +0.000 A 
ATOM      9  C   UNL     1       7.588   5.742  19.118  0.00  0.00    +0.000 A 
ATOM     10  H   UNL     1       4.438   6.267  15.932  0.00  0.00    +0.000 HD
ENDROOT
BRANCH   6  11
ATOM     11  C   UNL     1       3.556   3.738  16.973  0.00  0.00    +0.000 C 
BRANCH  11  12
ATOM     12  N   UNL     1       2.416   3.941  17.880  0.00  0.00    +0.000 NA
ATOM     13  H   UNL     1       1.695   4.535  17.419  0.00  0.00    +0.000 HD
BRANCH  12  14
ATOM     14  C   UNL     1       1.862   2.669  18.407  0.00  0.00    +0.000 C 
ATOM     15  C   UNL     1       2.944   1.883  19.184  0.00  0.00    +0.000 C 
ATOM     16  C   UNL     1       3.346   2.601  20.486  0.00  0.00    +0.000 C 
ATOM     17  C   UNL     1       2.112   2.838  21.373  0.00  0.00    +0.000 C 
ATOM     18  C   UNL     1       1.029   3.623  20.619  0.00  0.00    +0.000 C 
ATOM     19  C   UNL     1       0.637   2.872  19.337  0.00  0.00    +0.000 C 
ENDBRANCH  12  14
ENDBRANCH  11  12
ENDBRANCH   6  11
TORSDOF 3
ENDMDL
MODEL 6
REMARK VINA RESULT:      -7.0      0.838      1.438
REMARK  Name = 
REMARK  3 active torsions:
REMARK  status: ('A' for Active; 'I' for Inactive)
REMARK    1  A    between atoms: C_6  and  C_7
REMARK    2  A    between atoms: C_7  and  N_8
REMARK    3  A    between atoms: N_8  and  C_9
REMARK                            x       y       z     vdW  Elec       q    Type
REMARK                         _______ _______ _______ _____ _____    ______ ____
ROOT
ATOM      1  C   UNL     1       7.852   7.995  17.825  0.00  0.00    +0.000 A 
ATOM      2  C   UNL     1       8.401   7.202  18.858  0.00  0.00    +0.000 A 
ATOM      3  C   UNL     1       7.911   5.905  19.102  0.00  0.00    +0.000 A 
ATOM      4  C   UNL     1       6.872   5.443  18.297  0.00  0.00    +0.000 A 
ATOM      5  N   UNL     1       6.259   4.240  18.348  0.00  0.00    +0.000 N 
ATOM      6  C   UNL     1       5.309   4.270  17.384  0.00  0.00    +0.000 A 
ATOM      7  C   UNL     1       5.323   5.493  16.715  0.00  0.00    +0.000 A 
ATOM      8  C   UNL     1       6.329   6.218  17.307  0.00  0.00    +0.000 A 
ATOM      9  C   UNL     1       6.799   7.502  17.035  0.00  0.00    +0.000 A 
ATOM     10  H   UNL     1       6.472   3.455  19.004  0.00  0.00    +0.000 HD
ENDROOT
BRANCH   6  11
ATOM     11  C   UNL     1       4.368   3.146  17.071  0.00  0.00    +0.000 C 
BRANCH  11  12
ATOM     12  N   UNL     1       3.515   2.830  18.227  0.00  0.00    +0.000 NA
ATOM     13  H   UNL     1       4.089   2.406  18.987  0.00  0.00    +0.000 HD
BRANCH  12  14
ATOM     14  C   UNL     1       2.714   3.990  18.690  0.00  0.00    +0.000 C 
ATOM     15  C   UNL     1       1.203   3.715  18.513  0.00  0.00    +0.000 C 
ATOM     16  C   UNL     1       0.710   2.608  19.463  0.00  0.00    +0.000 C 
ATOM     17  C   UNL     1       1.023   2.973  20.924  0.00  0.00    +0.000 C 
ATOM     18  C   UNL     1       2.521   3.244  21.119  0.00  0.00    +0.000 C 
ATOM     19  C   UNL     1       2.977   4.365  20.172  0.00  0.00    +0.000 C 
ENDBRANCH  12  14
ENDBRANCH  11  12
ENDBRANCH   6  11
TORSDOF 3
ENDMDL
MODEL 7
REMARK VINA RESULT:      -7.0      1.505      5.811
REMARK  Name = 
REMARK  3 active torsions:
REMARK  status: ('A' for Active; 'I' for Inactive)
REMARK    1  A    between atoms: C_6  and  C_7
REMARK    2  A    between atoms: C_7  and  N_8
REMARK    3  A    between atoms: N_8  and  C_9
REMARK                            x       y       z     vdW  Elec       q    Type
REMARK                         _______ _______ _______ _____ _____    ______ ____
ROOT
ATOM      1  C   UNL     1       0.687   2.611  19.140  0.00  0.00    +0.000 A 
ATOM      2  C   UNL     1       0.461   3.585  20.140  0.00  0.00    +0.000 A 
ATOM      3  C   UNL     1       1.487   4.469  20.523  0.00  0.00    +0.000 A 
ATOM      4  C   UNL     1       2.720   4.344  19.887  0.00  0.00    +0.000 A 
ATOM      5  N   UNL     1       3.833   5.083  20.089  0.00  0.00    +0.000 N 
ATOM      6  C   UNL     1       4.770   4.573  19.256  0.00  0.00    +0.000 A 
ATOM      7  C   UNL     1       4.249   3.512  18.518  0.00  0.00    +0.000 A 
ATOM      8  C   UNL     1       2.944   3.390  18.930  0.00  0.00    +0.000 A 
ATOM      9  C   UNL     1       1.946   2.506  18.523  0.00  0.00    +0.000 A 
ATOM     10  H   UNL     1       3.944   5.878  20.758  0.00  0.00    +0.000 HD
ENDROOT
BRANCH   6  11
ATOM     11  C   UNL     1       6.177   5.077  19.135  0.00  0.00    +0.000 C 
BRANCH  11  12
ATOM     12  N   UNL     1       6.914   4.347  18.092  0.00  0.00    +0.000 NA
ATOM     13  H   UNL     1       6.306   3.609  17.678  0.00  0.00    +0.000 HD
BRANCH  12  14
ATOM     14  C   UNL     1       7.510   5.242  17.070  0.00  0.00    +0.000 C 
ATOM     15  C   UNL     1       7.198   4.727  15.646  0.00  0.00    +0.000 C 
ATOM     16  C   UNL     1       5.699   4.844  15.313  0.00  0.00    +0.000 C 
ATOM     17  C   UNL     1       5.222   6.297  15.477  0.00  0.00    +0.000 C 
ATOM     18  C   UNL     1       5.519   6.823  16.888  0.00  0.00    +0.000 C 
ATOM     19  C   UNL     1       7.024   6.711  17.182  0.00  0.00    +0.000 C 
ENDBRANCH  12  14
ENDBRANCH  11  12
ENDBRANCH   6  11
TORSDOF 3
ENDMDL
MODEL 8
REMARK VINA RESULT:      -7.0      2.990      3.797
REMARK  Name = 
REMARK  3 active torsions:
REMARK  status: ('A' for Active; 'I' for Inactive)
REMARK    1  A    between atoms: C_6  and  C_7
REMARK    2  A    between atoms: C_7  and  N_8
REMARK    3  A    between atoms: N_8  and  C_9
REMARK                            x       y       z     vdW  Elec       q    Type
REMARK                         _______ _______ _______ _____ _____    ______ ____
ROOT
ATOM      1  C   UNL     1       6.696   3.897  11.868  0.00  0.00    +0.000 A 
ATOM      2  C   UNL     1       7.672   4.904  12.048  0.00  0.00    +0.000 A 
ATOM      3  C   UNL     1       7.913   5.449  13.323  0.00  0.00    +0.000 A 
ATOM      4  C   UNL     1       7.156   4.964  14.388  0.00  0.00    +0.000 A 
ATOM      5  N   UNL     1       7.224   5.333  15.686  0.00  0.00    +0.000 N 
ATOM      6  C   UNL     1       6.284   4.598  16.326  0.00  0.00    +0.000 A 
ATOM      7  C   UNL     1       5.624   3.756  15.435  0.00  0.00    +0.000 A 
ATOM      8  C   UNL     1       6.199   4.000  14.211  0.00  0.00    +0.000 A 
ATOM      9  C   UNL     1       5.944   3.434  12.963  0.00  0.00    +0.000 A 
ATOM     10  H   UNL     1       7.864   6.045  16.102  0.00  0.00    +0.000 HD
ENDROOT
BRANCH   6  11
ATOM     11  C   UNL     1       5.991   4.673  17.795  0.00  0.00    +0.000 C 
BRANCH  11  12
ATOM     12  N   UNL     1       4.542   4.706  18.046  0.00  0.00    +0.000 NA
ATOM     13  H   UNL     1       4.054   5.170  17.250  0.00  0.00    +0.000 HD
BRANCH  12  14
ATOM     14  C   UNL     1       3.979   3.371  18.365  0.00  0.00    +0.000 C 
ATOM     15  C   UNL     1       3.680   3.252  19.877  0.00  0.00    +0.000 C 
ATOM     16  C   UNL     1       2.525   4.178  20.304  0.00  0.00    +0.000 C 
ATOM     17  C   UNL     1       1.261   3.877  19.480  0.00  0.00    +0.000 C 
ATOM     18  C   UNL     1       1.539   3.996  17.975  0.00  0.00    +0.000 C 
ATOM     19  C   UNL     1       2.682   3.047  17.578  0.00  0.00    +0.000 C 
ENDBRANCH  12  14
ENDBRANCH  11  12
ENDBRANCH   6  11
TORSDOF 3
ENDMDL
MODEL 9
REMARK VINA RESULT:      -6.9      1.124      5.565
REMARK  Name = 
REMARK  3 active torsions:
REMARK  status: ('A' for Active; 'I' for Inactive)
REMARK    1  A    between atoms: C_6  and  C_7
REMARK    2  A    between atoms: C_7  and  N_8
REMARK    3  A    between atoms: N_8  and  C_9
REMARK                            x       y       z     vdW  Elec       q    Type
REMARK                         _______ _______ _______ _____ _____    ______ ____
ROOT
ATOM      1  C   UNL     1       0.903   3.162  20.854  0.00  0.00    +0.000 A 
ATOM      2  C   UNL     1       1.966   2.521  21.532  0.00  0.00    +0.000 A 
ATOM      3  C   UNL     1       3.229   2.392  20.922  0.00  0.00    +0.000 A 
ATOM      4  C   UNL     1       3.385   2.911  19.638  0.00  0.00    +0.000 A 
ATOM      5  N   UNL     1       4.498   2.906  18.875  0.00  0.00    +0.000 N 
ATOM      6  C   UNL     1       4.150   3.504  17.712  0.00  0.00    +0.000 A 
ATOM      7  C   UNL     1       2.813   3.897  17.740  0.00  0.00    +0.000 A 
ATOM      8  C   UNL     1       2.350   3.517  18.976  0.00  0.00    +0.000 A 
ATOM      9  C   UNL     1       1.092   3.668  19.556  0.00  0.00    +0.000 A 
ATOM     10  H   UNL     1       5.432   2.511  19.130  0.00  0.00    +0.000 HD
ENDROOT
BRANCH   6  11
ATOM     11  C   UNL     1       5.071   3.722  16.549  0.00  0.00    +0.000 C 
BRANCH  11  12
ATOM     12  N   UNL     1       6.161   4.645  16.900  0.00  0.00    +0.000 NA
ATOM     13  H   UNL     1       6.618   5.002  16.034  0.00  0.00    +0.000 HD
BRANCH  12  14
ATOM     14  C   UNL     1       5.727   5.732  17.812  0.00  0.00    +0.000 C 
ATOM     15  C   UNL     1       6.411   5.591  19.192  0.00  0.00    +0.000 C 
ATOM     16  C   UNL     1       7.926   5.853  19.107  0.00  0.00    +0.000 C 
ATOM     17  C   UNL     1       8.200   7.244  18.510  0.00  0.00    +0.000 C 
ATOM     18  C   UNL     1       7.533   7.399  17.136  0.00  0.00    +0.000 C 
ATOM     19  C   UNL     1       6.021   7.151  17.258  0.00  0.00    +0.000 C 
ENDBRANCH  12  14
ENDBRANCH  11  12
ENDBRANCH   6  11
TORSDOF 3
ENDMDL
