MODEL 1
REMARK VINA RESULT:      -7.4      0.000      0.000
REMARK  Name = 
REMARK  3 active torsions:
REMARK  status: ('A' for Active; 'I' for Inactive)
REMARK    1  A    between atoms: C_2  and  C_3
REMARK    2  A    between atoms: C_3  and  C_4
REMARK    3  A    between atoms: N_14  and  C_15
REMARK                            x       y       z     vdW  Elec       q    Type
REMARK                         _______ _______ _______ _____ _____    ______ ____
ROOT
ATOM      1  O   UNL     1       1.983   8.349  20.610  0.00  0.00    +0.000 OA
ATOM      2  C   UNL     1       1.975   7.864  19.478  0.00  0.00    +0.000 C 
ATOM      3  N   UNL     1       1.956   6.485  19.260  0.00  0.00    +0.000 N 
ATOM      4  C   UNL     1       1.723   5.474  20.295  0.00  0.00    +0.000 C 
ATOM      5  C   UNL     1       2.186   4.129  19.716  0.00  0.00    +0.000 C 
ATOM      6  C   UNL     1       3.621   3.769  20.130  0.00  0.00    +0.000 C 
ATOM      7  C   UNL     1       4.312   2.833  19.140  0.00  0.00    +0.000 C 
ATOM      8  N   UNL     1       4.140   3.318  17.770  0.00  0.00    +0.000 N 
ATOM      9  C   UNL     1       2.750   3.412  17.320  0.00  0.00    +0.000 C 
ATOM     10  C   UNL     1       1.980   4.367  18.215  0.00  0.00    +0.000 C 
ATOM     11  C   UNL     1       2.364   5.836  18.026  0.00  0.00    +0.000 C 
ENDROOT
BRANCH   8  12
ATOM     12  C   UNL     1       5.155   3.927  17.053  0.00  0.00    +0.000 A 
ATOM     13  C   UNL     1       5.067   4.193  15.680  0.00  0.00    +0.000 A 
ATOM     14  C   UNL     1       6.099   4.840  14.998  0.00  0.00    +0.000 A 
ATOM     15  C   UNL     1       7.224   5.211  15.707  0.00  0.00    +0.000 A 
ATOM     16  N   UNL     1       7.375   4.971  17.020  0.00  0.00    +0.000 NA
ATOM     17  C   UNL     1       6.352   4.349  17.646  0.00  0.00    +0.000 A 
ENDBRANCH   8  12
BRANCH   2  18
ATOM     18  C   UNL     1       1.963   8.744  18.220  0.00  0.00    +0.000 C 
BRANCH  18  19
ATOM     19  C   UNL     1       1.063   9.994  18.116  0.00  0.00    +0.000 C 
ATOM     20  C   UNL     1      -0.356   9.915  18.682  0.00  0.00    +0.000 C 
ATOM     21  C   UNL     1      -0.850  11.360  18.580  0.00  0.00    +0.000 C 
ATOM     22  C   UNL     1       0.386  12.233  18.787  0.00  0.00    +0.000 C 
ATOM     23  C   UNL     1       1.598  11.296  18.710  0.00  0.00    +0.000 C 
ENDBRANCH  18  19
ENDBRANCH   2  18
TORSDOF 3
ENDMDL
MODEL 2
REMARK VINA RESULT:      -7.3      0.585      1.004
REMARK  Name = 
REMARK  3 active torsions:
REMARK  status: ('A' for Active; 'I' for Inactive)
REMARK    1  A    between atoms: C_2  and  C_3
REMARK    2  A    between atoms: C_3  and  C_4
REMARK    3  A    between atoms: N_14  and  C_15
REMARK                            x       y       z     vdW  Elec       q    Type
REMARK                         _______ _______ _______ _____ _____    ______ ____
ROOT
ATOM      1  O   UNL     1       1.875   8.372  20.705  0.00  0.00    +0.000 OA
ATOM      2  C   UNL     1       1.905   7.898  19.569  0.00  0.00    +0.000 C 
ATOM      3  N   UNL     1       1.861   6.522  19.336  0.00  0.00    +0.000 N 
ATOM      4  C   UNL     1       1.559   5.508  20.350  0.00  0.00    +0.000 C 
ATOM      5  C   UNL     1       2.013   4.157  19.779  0.00  0.00    +0.000 C 
ATOM      6  C   UNL     1       3.419   3.757  20.250  0.00  0.00    +0.000 C 
ATOM      7  C   UNL     1       4.129   2.813  19.282  0.00  0.00    +0.000 C 
ATOM      8  N   UNL     1       4.028   3.314  17.911  0.00  0.00    +0.000 N 
ATOM      9  C   UNL     1       2.663   3.447  17.402  0.00  0.00    +0.000 C 
ATOM     10  C   UNL     1       1.878   4.413  18.272  0.00  0.00    +0.000 C 
ATOM     11  C   UNL     1       2.306   5.873  18.115  0.00  0.00    +0.000 C 
ENDROOT
BRANCH   8  12
ATOM     12  C   UNL     1       5.089   3.904  17.245  0.00  0.00    +0.000 A 
ATOM     13  C   UNL     1       6.218   4.410  17.904  0.00  0.00    +0.000 A 
ATOM     14  C   UNL     1       7.283   4.967  17.194  0.00  0.00    +0.000 A 
ATOM     15  C   UNL     1       7.201   5.017  15.816  0.00  0.00    +0.000 A 
ATOM     16  N   UNL     1       6.141   4.561  15.129  0.00  0.00    +0.000 NA
ATOM     17  C   UNL     1       5.133   4.025  15.850  0.00  0.00    +0.000 A 
ENDBRANCH   8  12
BRANCH   2  18
ATOM     18  C   UNL     1       1.970   8.789  18.320  0.00  0.00    +0.000 C 
BRANCH  18  19
ATOM     19  C   UNL     1       1.049  10.017  18.156  0.00  0.00    +0.000 C 
ATOM     20  C   UNL     1      -0.427   9.873  18.531  0.00  0.00    +0.000 C 
ATOM     21  C   UNL     1      -0.952  11.308  18.428  0.00  0.00    +0.000 C 
ATOM     22  C   UNL     1       0.219  12.203  18.829  0.00  0.00    +0.000 C 
ATOM     23  C   UNL     1       1.461  11.304  18.869  0.00  0.00    +0.000 C 
ENDBRANCH  18  19
ENDBRANCH   2  18
TORSDOF 3
ENDMDL
MODEL 3
REMARK VINA RESULT:      -7.1      1.494      2.021
REMARK  Name = 
REMARK  3 active torsions:
REMARK  status: ('A' for Active; 'I' for Inactive)
REMARK    1  A    between atoms: C_2  and  C_3
REMARK    2  A    between atoms: C_3  and  C_4
REMARK    3  A    between atoms: N_14  and  C_15
REMARK                            x       y       z     vdW  Elec       q    Type
REMARK                         _______ _______ _______ _____ _____    ______ ____
ROOT
ATOM      1  O   UNL     1       1.072   8.205  21.696  0.00  0.00    +0.000 OA
ATOM      2  C   UNL     1       1.429   8.135  20.520  0.00  0.00    +0.000 C 
ATOM      3  N   UNL     1       1.707   6.916  19.898  0.00  0.00    +0.000 N 
ATOM      4  C   UNL     1       1.408   5.598  20.464  0.00  0.00    +0.000 C 
ATOM      5  C   UNL     1       2.228   4.573  19.666  0.00  0.00    +0.000 C 
ATOM      6  C   UNL     1       3.557   4.217  20.349  0.00  0.00    +0.000 C 
ATOM      7  C   UNL     1       4.624   3.736  19.368  0.00  0.00    +0.000 C 
ATOM      8  N   UNL     1       4.712   4.640  18.222  0.00  0.00    +0.000 N 
ATOM      9  C   UNL     1       3.482   4.763  17.437  0.00  0.00    +0.000 C 
ATOM     10  C   UNL     1       2.359   5.288  18.315  0.00  0.00    +0.000 C 
ATOM     11  C   UNL     1       2.513   6.761  18.700  0.00  0.00    +0.000 C 
ENDROOT
BRANCH   8  12
ATOM     12  C   UNL     1       5.749   5.541  18.050  0.00  0.00    +0.000 A 
ATOM     13  C   UNL     1       6.862   5.594  18.901  0.00  0.00    +0.000 A 
ATOM     14  C   UNL     1       7.905   6.494  18.675  0.00  0.00    +0.000 A 
ATOM     15  C   UNL     1       7.817   7.344  17.591  0.00  0.00    +0.000 A 
ATOM     16  N   UNL     1       6.772   7.350  16.748  0.00  0.00    +0.000 NA
ATOM     17  C   UNL     1       5.785   6.462  16.996  0.00  0.00    +0.000 A 
ENDBRANCH   8  12
BRANCH   2  18
ATOM     18  C   UNL     1       1.573   9.386  19.640  0.00  0.00    +0.000 C 
BRANCH  18  19
ATOM     19  C   UNL     1       0.408  10.381  19.454  0.00  0.00    +0.000 C 
ATOM     20  C   UNL     1       0.743  11.851  19.194  0.00  0.00    +0.000 C 
ATOM     21  C   UNL     1      -0.622  12.465  18.872  0.00  0.00    +0.000 C 
ATOM     22  C   UNL     1      -1.414  11.362  18.175  0.00  0.00    +0.000 C 
ATOM     23  C   UNL     1      -0.619  10.065  18.368  0.00  0.00    +0.000 C 
ENDBRANCH  18  19
ENDBRANCH   2  18
TORSDOF 3
ENDMDL
MODEL 4
REMARK VINA RESULT:      -7.0      3.672      7.563
REMARK  Name = 
REMARK  3 active torsions:
REMARK  status: ('A' for Active; 'I' for Inactive)
REMARK    1  A    between atoms: C_2  and  C_3
REMARK    2  A    between atoms: C_3  and  C_4
REMARK    3  A    between atoms: N_14  and  C_15
REMARK                            x       y       z     vdW  Elec       q    Type
REMARK                         _______ _______ _______ _____ _____    ______ ____
ROOT
ATOM      1  O   UNL     1       8.180   4.774  14.444  0.00  0.00    +0.000 OA
ATOM      2  C   UNL     1       6.974   5.009  14.515  0.00  0.00    +0.000 C 
ATOM      3  N   UNL     1       6.412   5.690  15.596  0.00  0.00    +0.000 N 
ATOM      4  C   UNL     1       7.172   6.387  16.637  0.00  0.00    +0.000 C 
ATOM      5  C   UNL     1       6.209   6.629  17.808  0.00  0.00    +0.000 C 
ATOM      6  C   UNL     1       6.315   5.548  18.895  0.00  0.00    +0.000 C 
ATOM      7  C   UNL     1       5.033   5.390  19.709  0.00  0.00    +0.000 C 
ATOM      8  N   UNL     1       3.872   5.300  18.823  0.00  0.00    +0.000 N 
ATOM      9  C   UNL     1       3.655   6.468  17.970  0.00  0.00    +0.000 C 
ATOM     10  C   UNL     1       4.863   6.687  17.075  0.00  0.00    +0.000 C 
ATOM     11  C   UNL     1       5.009   5.640  15.969  0.00  0.00    +0.000 C 
ENDROOT
BRANCH   8  12
ATOM     12  C   UNL     1       3.204   4.112  18.575  0.00  0.00    +0.000 A 
ATOM     13  C   UNL     1       3.859   2.878  18.459  0.00  0.00    +0.000 A 
ATOM     14  C   UNL     1       3.148   1.697  18.242  0.00  0.00    +0.000 A 
ATOM     15  C   UNL     1       1.773   1.768  18.136  0.00  0.00    +0.000 A 
ATOM     16  N   UNL     1       1.089   2.920  18.225  0.00  0.00    +0.000 NA
ATOM     17  C   UNL     1       1.812   4.041  18.441  0.00  0.00    +0.000 A 
ENDBRANCH   8  12
BRANCH   2  18
ATOM     18  C   UNL     1       5.999   4.587  13.406  0.00  0.00    +0.000 C 
BRANCH  18  19
ATOM     19  C   UNL     1       6.144   3.235  12.675  0.00  0.00    +0.000 C 
ATOM     20  C   UNL     1       4.987   2.759  11.794  0.00  0.00    +0.000 C 
ATOM     21  C   UNL     1       5.565   1.523  11.101  0.00  0.00    +0.000 C 
ATOM     22  C   UNL     1       7.055   1.809  10.927  0.00  0.00    +0.000 C 
ATOM     23  C   UNL     1       7.362   3.052  11.771  0.00  0.00    +0.000 C 
ENDBRANCH  18  19
ENDBRANCH   2  18
TORSDOF 3
ENDMDL
MODEL 5
REMARK VINA RESULT:      -6.9      3.615      7.547
REMARK  Name = 
REMARK  3 active torsions:
REMARK  status: ('A' for Active; 'I' for Inactive)
REMARK    1  A    between atoms: C_2  and  C_3
REMARK    2  A    between atoms: C_3  and  C_4
REMARK    3  A    between atoms: N_14  and  C_15
REMARK                            x       y       z     vdW  Elec       q    Type
REMARK                         _______ _______ _______ _____ _____    ______ ____
ROOT
ATOM      1  O   UNL     1       8.050   4.759  14.459  0.00  0.00    +0.000 OA
ATOM      2  C   UNL     1       6.836   4.950  14.532  0.00  0.00    +0.000 C 
ATOM      3  N   UNL     1       6.257   5.659  15.586  0.00  0.00    +0.000 N 
ATOM      4  C   UNL     1       6.998   6.433  16.585  0.00  0.00    +0.000 C 
ATOM      5  C   UNL     1       6.036   6.692  17.754  0.00  0.00    +0.000 C 
ATOM      6  C   UNL     1       6.194   5.669  18.889  0.00  0.00    +0.000 C 
ATOM      7  C   UNL     1       4.926   5.499  19.722  0.00  0.00    +0.000 C 
ATOM      8  N   UNL     1       3.762   5.322  18.854  0.00  0.00    +0.000 N 
ATOM      9  C   UNL     1       3.492   6.440  17.949  0.00  0.00    +0.000 C 
ATOM     10  C   UNL     1       4.682   6.663  17.033  0.00  0.00    +0.000 C 
ATOM     11  C   UNL     1       4.860   5.572  15.975  0.00  0.00    +0.000 C 
ENDROOT
BRANCH   8  12
ATOM     12  C   UNL     1       3.139   4.099  18.669  0.00  0.00    +0.000 A 
ATOM     13  C   UNL     1       1.747   3.939  18.698  0.00  0.00    +0.000 A 
ATOM     14  C   UNL     1       1.155   2.695  18.472  0.00  0.00    +0.000 A 
ATOM     15  C   UNL     1       1.975   1.613  18.224  0.00  0.00    +0.000 A 
ATOM     16  N   UNL     1       3.315   1.699  18.196  0.00  0.00    +0.000 NA
ATOM     17  C   UNL     1       3.850   2.920  18.413  0.00  0.00    +0.000 A 
ENDBRANCH   8  12
BRANCH   2  18
ATOM     18  C   UNL     1       5.869   4.439  13.454  0.00  0.00    +0.000 C 
BRANCH  18  19
ATOM     19  C   UNL     1       6.142   3.134  12.677  0.00  0.00    +0.000 C 
ATOM     20  C   UNL     1       5.046   2.594  11.757  0.00  0.00    +0.000 C 
ATOM     21  C   UNL     1       5.741   1.439  11.031  0.00  0.00    +0.000 C 
ATOM     22  C   UNL     1       7.204   1.859  10.897  0.00  0.00    +0.000 C 
ATOM     23  C   UNL     1       7.387   3.091  11.792  0.00  0.00    +0.000 C 
ENDBRANCH  18  19
ENDBRANCH   2  18
TORSDOF 3
ENDMDL
MODEL 6
REMARK VINA RESULT:      -6.9      0.825      1.031
REMARK  Name = 
REMARK  3 active torsions:
REMARK  status: ('A' for Active; 'I' for Inactive)
REMARK    1  A    between atoms: C_2  and  C_3
REMARK    2  A    between atoms: C_3  and  C_4
REMARK    3  A    between atoms: N_14  and  C_15
REMARK                            x       y       z     vdW  Elec       q    Type
REMARK                         _______ _______ _______ _____ _____    ______ ____
ROOT
ATOM      1  O   UNL     1       1.683   7.488  21.645  0.00  0.00    +0.000 OA
ATOM      2  C   UNL     1       1.703   7.285  20.430  0.00  0.00    +0.000 C 
ATOM      3  N   UNL     1       1.689   5.997  19.892  0.00  0.00    +0.000 N 
ATOM      4  C   UNL     1       1.430   4.772  20.652  0.00  0.00    +0.000 C 
ATOM      5  C   UNL     1       1.906   3.598  19.783  0.00  0.00    +0.000 C 
ATOM      6  C   UNL     1       3.330   3.141  20.134  0.00  0.00    +0.000 C 
ATOM      7  C   UNL     1       4.045   2.461  18.968  0.00  0.00    +0.000 C 
ATOM      8  N   UNL     1       3.907   3.257  17.749  0.00  0.00    +0.000 N 
ATOM      9  C   UNL     1       2.530   3.465  17.299  0.00  0.00    +0.000 C 
ATOM     10  C   UNL     1       1.738   4.186  18.376  0.00  0.00    +0.000 C 
ATOM     11  C   UNL     1       2.127   5.655  18.550  0.00  0.00    +0.000 C 
ENDROOT
BRANCH   8  12
ATOM     12  C   UNL     1       4.941   4.012  17.221  0.00  0.00    +0.000 A 
ATOM     13  C   UNL     1       5.062   4.290  15.852  0.00  0.00    +0.000 A 
ATOM     14  C   UNL     1       6.100   5.083  15.362  0.00  0.00    +0.000 A 
ATOM     15  C   UNL     1       7.020   5.589  16.258  0.00  0.00    +0.000 A 
ATOM     16  N   UNL     1       6.967   5.348  17.579  0.00  0.00    +0.000 NA
ATOM     17  C   UNL     1       5.944   4.581  18.015  0.00  0.00    +0.000 A 
ENDBRANCH   8  12
BRANCH   2  18
ATOM     18  C   UNL     1       1.724   8.438  19.416  0.00  0.00    +0.000 C 
BRANCH  18  19
ATOM     19  C   UNL     1       0.643   9.539  19.423  0.00  0.00    +0.000 C 
ATOM     20  C   UNL     1       0.914  10.819  20.215  0.00  0.00    +0.000 C 
ATOM     21  C   UNL     1      -0.259  11.722  19.827  0.00  0.00    +0.000 C 
ATOM     22  C   UNL     1      -0.601  11.354  18.384  0.00  0.00    +0.000 C 
ATOM     23  C   UNL     1       0.169  10.066  18.069  0.00  0.00    +0.000 C 
ENDBRANCH  18  19
ENDBRANCH   2  18
TORSDOF 3
ENDMDL
MODEL 7
REMARK VINA RESULT:      -6.9      1.568      1.831
REMARK  Name = 
REMARK  3 active torsions:
REMARK  status: ('A' for Active; 'I' for Inactive)
REMARK    1  A    between atoms: C_2  and  C_3
REMARK    2  A    between atoms: C_3  and  C_4
REMARK    3  A    between atoms: N_14  and  C_15
REMARK                            x       y       z     vdW  Elec       q    Type
REMARK                         _______ _______ _______ _____ _____    ______ ____
ROOT
ATOM      1  O   UNL     1       1.076   8.184  21.797  0.00  0.00    +0.000 OA
ATOM      2  C   UNL     1       1.479   8.154  20.634  0.00  0.00    +0.000 C 
ATOM      3  N   UNL     1       1.719   6.954  19.961  0.00  0.00    +0.000 N 
ATOM      4  C   UNL     1       1.326   5.628  20.443  0.00  0.00    +0.000 C 
ATOM      5  C   UNL     1       2.124   4.601  19.627  0.00  0.00    +0.000 C 
ATOM      6  C   UNL     1       3.401   4.138  20.343  0.00  0.00    +0.000 C 
ATOM      7  C   UNL     1       4.482   3.648  19.382  0.00  0.00    +0.000 C 
ATOM      8  N   UNL     1       4.668   4.604  18.290  0.00  0.00    +0.000 N 
ATOM      9  C   UNL     1       3.482   4.834  17.464  0.00  0.00    +0.000 C 
ATOM     10  C   UNL     1       2.352   5.376  18.322  0.00  0.00    +0.000 C 
ATOM     11  C   UNL     1       2.567   6.816  18.790  0.00  0.00    +0.000 C 
ENDROOT
BRANCH   8  12
ATOM     12  C   UNL     1       5.759   5.452  18.208  0.00  0.00    +0.000 A 
ATOM     13  C   UNL     1       5.885   6.441  17.222  0.00  0.00    +0.000 A 
ATOM     14  C   UNL     1       6.984   7.301  17.194  0.00  0.00    +0.000 A 
ATOM     15  C   UNL     1       7.959   7.154  18.160  0.00  0.00    +0.000 A 
ATOM     16  N   UNL     1       7.903   6.218  19.122  0.00  0.00    +0.000 NA
ATOM     17  C   UNL     1       6.821   5.408  19.120  0.00  0.00    +0.000 A 
ENDBRANCH   8  12
BRANCH   2  18
ATOM     18  C   UNL     1       1.728   9.438  19.829  0.00  0.00    +0.000 C 
BRANCH  18  19
ATOM     19  C   UNL     1       0.566  10.231  19.194  0.00  0.00    +0.000 C 
ATOM     20  C   UNL     1      -0.168   9.614  18.002  0.00  0.00    +0.000 C 
ATOM     21  C   UNL     1      -1.344  10.570  17.787  0.00  0.00    +0.000 C 
ATOM     22  C   UNL     1      -1.711  11.088  19.176  0.00  0.00    +0.000 C 
ATOM     23  C   UNL     1      -0.575  10.663  20.114  0.00  0.00    +0.000 C 
ENDBRANCH  18  19
ENDBRANCH   2  18
TORSDOF 3
ENDMDL
MODEL 8
REMARK VINA RESULT:      -6.9      3.347      6.127
REMARK  Name = 
REMARK  3 active torsions:
REMARK  status: ('A' for Active; 'I' for Inactive)
REMARK    1  A    between atoms: C_2  and  C_3
REMARK    2  A    between atoms: C_3  and  C_4
REMARK    3  A    between atoms: N_14  and  C_15
REMARK                            x       y       z     vdW  Elec       q    Type
REMARK                         _______ _______ _______ _____ _____    ______ ____
ROOT
ATOM      1  O   UNL     1       7.802   6.438  16.185  0.00  0.00    +0.000 OA
ATOM      2  C   UNL     1       7.388   6.309  17.338  0.00  0.00    +0.000 C 
ATOM      3  N   UNL     1       6.459   5.328  17.688  0.00  0.00    +0.000 N 
ATOM      4  C   UNL     1       6.038   4.222  16.823  0.00  0.00    +0.000 C 
ATOM      5  C   UNL     1       4.746   3.651  17.425  0.00  0.00    +0.000 C 
ATOM      6  C   UNL     1       3.482   4.229  16.773  0.00  0.00    +0.000 C 
ATOM      7  C   UNL     1       2.263   4.189  17.691  0.00  0.00    +0.000 C 
ATOM      8  N   UNL     1       2.601   4.715  19.014  0.00  0.00    +0.000 N 
ATOM      9  C   UNL     1       3.650   3.978  19.721  0.00  0.00    +0.000 C 
ATOM     10  C   UNL     1       4.933   3.999  18.908  0.00  0.00    +0.000 C 
ATOM     11  C   UNL     1       5.620   5.366  18.873  0.00  0.00    +0.000 C 
ENDROOT
BRANCH   8  12
ATOM     12  C   UNL     1       2.201   5.966  19.453  0.00  0.00    +0.000 A 
ATOM     13  C   UNL     1       1.590   6.179  20.696  0.00  0.00    +0.000 A 
ATOM     14  C   UNL     1       1.232   7.461  21.118  0.00  0.00    +0.000 A 
ATOM     15  C   UNL     1       1.487   8.525  20.276  0.00  0.00    +0.000 A 
ATOM     16  N   UNL     1       2.057   8.384  19.068  0.00  0.00    +0.000 NA
ATOM     17  C   UNL     1       2.394   7.129  18.698  0.00  0.00    +0.000 A 
ENDBRANCH   8  12
BRANCH   2  18
ATOM     18  C   UNL     1       7.882   7.206  18.482  0.00  0.00    +0.000 C 
BRANCH  18  19
ATOM     19  C   UNL     1       8.478   8.604  18.212  0.00  0.00    +0.000 C 
ATOM     20  C   UNL     1       7.580   9.665  17.572  0.00  0.00    +0.000 C 
ATOM     21  C   UNL     1       8.433  10.933  17.649  0.00  0.00    +0.000 C 
ATOM     22  C   UNL     1       9.261  10.795  18.925  0.00  0.00    +0.000 C 
ATOM     23  C   UNL     1       9.094   9.346  19.398  0.00  0.00    +0.000 C 
ENDBRANCH  18  19
ENDBRANCH   2  18
TORSDOF 3
ENDMDL
MODEL 9
REMARK VINA RESULT:      -6.8      3.563      6.166
REMARK  Name = 
REMARK  3 active torsions:
REMARK  status: ('A' for Active; 'I' for Inactive)
REMARK    1  A    between atoms: C_2  and  C_3
REMARK    2  A    between atoms: C_3  and  C_4
REMARK    3  A    between atoms: N_14  and  C_15
REMARK                            x       y       z     vdW  Elec       q    Type
REMARK                         _______ _______ _______ _____ _____    ______ ____
ROOT
ATOM      1  O   UNL     1       8.056   6.835  16.300  0.00  0.00    +0.000 OA
ATOM      2  C   UNL     1       7.603   6.723  17.439  0.00  0.00    +0.000 C 
ATOM      3  N   UNL     1       6.702   5.715  17.786  0.00  0.00    +0.000 N 
ATOM      4  C   UNL     1       6.361   4.566  16.942  0.00  0.00    +0.000 C 
ATOM      5  C   UNL     1       5.071   3.959  17.513  0.00  0.00    +0.000 C 
ATOM      6  C   UNL     1       3.811   4.462  16.794  0.00  0.00    +0.000 C 
ATOM      7  C   UNL     1       2.559   4.400  17.666  0.00  0.00    +0.000 C 
ATOM      8  N   UNL     1       2.823   4.980  18.983  0.00  0.00    +0.000 N 
ATOM      9  C   UNL     1       3.873   4.311  19.753  0.00  0.00    +0.000 C 
ATOM     10  C   UNL     1       5.185   4.361  18.989  0.00  0.00    +0.000 C 
ATOM     11  C   UNL     1       5.816   5.754  18.936  0.00  0.00    +0.000 C 
ENDROOT
BRANCH   8  12
ATOM     12  C   UNL     1       2.355   6.226  19.365  0.00  0.00    +0.000 A 
ATOM     13  C   UNL     1       2.369   7.341  18.516  0.00  0.00    +0.000 A 
ATOM     14  C   UNL     1       1.857   8.572  18.926  0.00  0.00    +0.000 A 
ATOM     15  C   UNL     1       1.336   8.676  20.200  0.00  0.00    +0.000 A 
ATOM     16  N   UNL     1       1.306   7.649  21.066  0.00  0.00    +0.000 NA
ATOM     17  C   UNL     1       1.806   6.472  20.630  0.00  0.00    +0.000 A 
ENDBRANCH   8  12
BRANCH   2  18
ATOM     18  C   UNL     1       8.014   7.676  18.571  0.00  0.00    +0.000 C 
BRANCH  18  19
ATOM     19  C   UNL     1       8.628   9.061  18.278  0.00  0.00    +0.000 C 
ATOM     20  C   UNL     1       7.736  10.133  17.650  0.00  0.00    +0.000 C 
ATOM     21  C   UNL     1       8.613  11.386  17.698  0.00  0.00    +0.000 C 
ATOM     22  C   UNL     1       9.465  11.242  18.957  0.00  0.00    +0.000 C 
ATOM     23  C   UNL     1       9.283   9.800  19.445  0.00  0.00    +0.000 C 
ENDBRANCH  18  19
ENDBRANCH   2  18
TORSDOF 3
ENDMDL
