MODEL 1
REMARK VINA RESULT:      -7.7      0.000      0.000
REMARK  Name = 
REMARK  10 active torsions:
REMARK  status: ('A' for Active; 'I' for Inactive)
REMARK    1  A    between atoms: C_1  and  C_2
REMARK    2  A    between atoms: C_2  and  C_22
REMARK    3  A    between atoms: N_3  and  N_4
REMARK    4  A    between atoms: N_4  and  C_5
REMARK    5  A    between atoms: C_5  and  N_7
REMARK    6  A    between atoms: N_7  and  C_8
REMARK    7  A    between atoms: N_7  and  C_15
REMARK    8  A    between atoms: C_8  and  C_9
REMARK    9  A    between atoms: C_15  and  C_16
REMARK   10  A    between atoms: C_25  and  N_26
REMARK                            x       y       z     vdW  Elec       q    Type
REMARK                         _______ _______ _______ _____ _____    ______ ____
ROOT
ATOM      1  C   UNL     1       2.061   7.613  18.854  0.00  0.00    +0.000 C 
ATOM      2  S   UNL     1       1.731   8.089  20.444  0.00  0.00    +0.000 S 
ENDROOT
BRANCH   1   3
ATOM      3  N   UNL     1       1.873   8.466  17.755  0.00  0.00    +0.000 N 
ATOM      4  H   UNL     1       1.581   8.101  16.858  0.00  0.00    +0.000 HD
BRANCH   3   7
ATOM      5  C   UNL     1       2.226  12.093  18.305  0.00  0.00    +0.000 C 
ATOM      6  C   UNL     1       1.485  10.757  18.284  0.00  0.00    +0.000 C 
ATOM      7  N   UNL     1       2.222   9.771  17.874  0.00  0.00    +0.000 NA
BRANCH   6   8
ATOM      8  C   UNL     1       0.023  10.853  18.587  0.00  0.00    +0.000 A 
ATOM      9  C   UNL     1      -0.923  10.152  17.842  0.00  0.00    +0.000 A 
ATOM     10  C   UNL     1      -2.272  10.551  17.871  0.00  0.00    +0.000 A 
ATOM     11  C   UNL     1      -2.681  11.678  18.591  0.00  0.00    +0.000 A 
ATOM     12  C   UNL     1      -1.770  12.270  19.462  0.00  0.00    +0.000 A 
ATOM     13  C   UNL     1      -0.429  11.870  19.450  0.00  0.00    +0.000 A 
BRANCH  11  14
ATOM     14  N   UNL     1      -4.019  12.093  18.581  0.00  0.00    +0.000 N 
ATOM     15  H   UNL     1      -4.641  11.417  18.145  0.00  0.00    +0.000 HD
ATOM     16  H   UNL     1      -4.150  13.019  18.179  0.00  0.00    +0.000 HD
ENDBRANCH  11  14
ENDBRANCH   6   8
ENDBRANCH   3   7
ENDBRANCH   1   3
BRANCH   1  17
ATOM     17  N   UNL     1       2.561   6.345  18.540  0.00  0.00    +0.000 N 
BRANCH  17  18
ATOM     18  C   UNL     1       3.986   6.011  18.684  0.00  0.00    +0.000 C 
BRANCH  18  19
ATOM     19  C   UNL     1       4.599   5.577  17.371  0.00  0.00    +0.000 A 
ATOM     20  C   UNL     1       5.010   4.245  17.209  0.00  0.00    +0.000 A 
ATOM     21  C   UNL     1       5.663   3.841  16.047  0.00  0.00    +0.000 A 
ATOM     22  C   UNL     1       5.920   4.755  15.033  0.00  0.00    +0.000 A 
ATOM     23  C   UNL     1       5.493   6.066  15.162  0.00  0.00    +0.000 A 
ATOM     24  C   UNL     1       4.827   6.482  16.322  0.00  0.00    +0.000 A 
ENDBRANCH  18  19
ENDBRANCH  17  18
BRANCH  17  25
ATOM     25  C   UNL     1       1.729   5.321  17.883  0.00  0.00    +0.000 C 
BRANCH  25  26
ATOM     26  C   UNL     1       1.582   4.159  18.843  0.00  0.00    +0.000 A 
ATOM     27  C   UNL     1       1.243   4.427  20.179  0.00  0.00    +0.000 A 
ATOM     28  C   UNL     1       1.331   3.424  21.137  0.00  0.00    +0.000 A 
ATOM     29  C   UNL     1       1.742   2.147  20.769  0.00  0.00    +0.000 A 
ATOM     30  C   UNL     1       2.024   1.855  19.436  0.00  0.00    +0.000 A 
ATOM     31  C   UNL     1       1.938   2.857  18.470  0.00  0.00    +0.000 A 
ENDBRANCH  25  26
ENDBRANCH  17  25
ENDBRANCH   1  17
TORSDOF 9
ENDMDL
MODEL 2
REMARK VINA RESULT:      -7.6      0.897      1.251
REMARK  Name = 
REMARK  10 active torsions:
REMARK  status: ('A' for Active; 'I' for Inactive)
REMARK    1  A    between atoms: C_1  and  C_2
REMARK    2  A    between atoms: C_2  and  C_22
REMARK    3  A    between atoms: N_3  and  N_4
REMARK    4  A    between atoms: N_4  and  C_5
REMARK    5  A    between atoms: C_5  and  N_7
REMARK    6  A    between atoms: N_7  and  C_8
REMARK    7  A    between atoms: N_7  and  C_15
REMARK    8  A    between atoms: C_8  and  C_9
REMARK    9  A    between atoms: C_15  and  C_16
REMARK   10  A    between atoms: C_25  and  N_26
REMARK                            x       y       z     vdW  Elec       q    Type
REMARK                         _______ _______ _______ _____ _____    ______ ____
ROOT
ATOM      1  C   UNL     1       2.404   7.133  18.908  0.00  0.00    +0.000 C 
ATOM      2  S   UNL     1       1.875   7.399  20.492  0.00  0.00    +0.000 S 
ENDROOT
BRANCH   1   3
ATOM      3  N   UNL     1       1.984   7.925  17.827  0.00  0.00    +0.000 N 
ATOM      4  H   UNL     1       1.507   7.514  17.036  0.00  0.00    +0.000 HD
BRANCH   3   7
ATOM      5  C   UNL     1       2.394  11.584  17.979  0.00  0.00    +0.000 C 
ATOM      6  C   UNL     1       1.640  10.264  18.129  0.00  0.00    +0.000 C 
ATOM      7  N   UNL     1       2.350   9.231  17.794  0.00  0.00    +0.000 NA
BRANCH   6   8
ATOM      8  C   UNL     1       0.195  10.411  18.484  0.00  0.00    +0.000 A 
ATOM      9  C   UNL     1      -0.814  10.020  17.606  0.00  0.00    +0.000 A 
ATOM     10  C   UNL     1      -2.119  10.519  17.771  0.00  0.00    +0.000 A 
ATOM     11  C   UNL     1      -2.419  11.452  18.769  0.00  0.00    +0.000 A 
ATOM     12  C   UNL     1      -1.455  11.709  19.742  0.00  0.00    +0.000 A 
ATOM     13  C   UNL     1      -0.159  11.204  19.592  0.00  0.00    +0.000 A 
BRANCH  11  14
ATOM     14  N   UNL     1      -3.711  11.976  18.901  0.00  0.00    +0.000 N 
ATOM     15  H   UNL     1      -3.857  12.815  18.345  0.00  0.00    +0.000 HD
ATOM     16  H   UNL     1      -3.986  12.130  19.869  0.00  0.00    +0.000 HD
ENDBRANCH  11  14
ENDBRANCH   6   8
ENDBRANCH   3   7
ENDBRANCH   1   3
BRANCH   1  17
ATOM     17  N   UNL     1       3.309   6.118  18.580  0.00  0.00    +0.000 N 
BRANCH  17  18
ATOM     18  C   UNL     1       4.764   6.322  18.637  0.00  0.00    +0.000 C 
BRANCH  18  19
ATOM     19  C   UNL     1       5.457   5.798  17.399  0.00  0.00    +0.000 A 
ATOM     20  C   UNL     1       5.044   6.246  16.135  0.00  0.00    +0.000 A 
ATOM     21  C   UNL     1       5.600   5.710  14.976  0.00  0.00    +0.000 A 
ATOM     22  C   UNL     1       6.572   4.721  15.057  0.00  0.00    +0.000 A 
ATOM     23  C   UNL     1       7.017   4.291  16.296  0.00  0.00    +0.000 A 
ATOM     24  C   UNL     1       6.470   4.829  17.469  0.00  0.00    +0.000 A 
ENDBRANCH  18  19
ENDBRANCH  17  18
BRANCH  17  25
ATOM     25  C   UNL     1       2.868   4.840  17.992  0.00  0.00    +0.000 C 
BRANCH  25  26
ATOM     26  C   UNL     1       2.475   3.920  19.129  0.00  0.00    +0.000 A 
ATOM     27  C   UNL     1       1.116   3.801  19.461  0.00  0.00    +0.000 A 
ATOM     28  C   UNL     1       0.738   3.162  20.636  0.00  0.00    +0.000 A 
ATOM     29  C   UNL     1       1.707   2.624  21.476  0.00  0.00    +0.000 A 
ATOM     30  C   UNL     1       3.053   2.683  21.126  0.00  0.00    +0.000 A 
ATOM     31  C   UNL     1       3.440   3.325  19.949  0.00  0.00    +0.000 A 
ENDBRANCH  25  26
ENDBRANCH  17  25
ENDBRANCH   1  17
TORSDOF 9
ENDMDL
MODEL 3
REMARK VINA RESULT:      -7.5      0.640      4.096
REMARK  Name = 
REMARK  10 active torsions:
REMARK  status: ('A' for Active; 'I' for Inactive)
REMARK    1  A    between atoms: C_1  and  C_2
REMARK    2  A    between atoms: C_2  and  C_22
REMARK    3  A    between atoms: N_3  and  N_4
REMARK    4  A    between atoms: N_4  and  C_5
REMARK    5  A    between atoms: C_5  and  N_7
REMARK    6  A    between atoms: N_7  and  C_8
REMARK    7  A    between atoms: N_7  and  C_15
REMARK    8  A    between atoms: C_8  and  C_9
REMARK    9  A    between atoms: C_15  and  C_16
REMARK   10  A    between atoms: C_25  and  N_26
REMARK                            x       y       z     vdW  Elec       q    Type
REMARK                         _______ _______ _______ _____ _____    ______ ____
ROOT
ATOM      1  C   UNL     1       2.218   7.288  18.766  0.00  0.00    +0.000 C 
ATOM      2  S   UNL     1       1.852   7.650  20.377  0.00  0.00    +0.000 S 
ENDROOT
BRANCH   1   3
ATOM      3  N   UNL     1       1.883   8.143  17.703  0.00  0.00    +0.000 N 
ATOM      4  H   UNL     1       1.456   7.781  16.861  0.00  0.00    +0.000 HD
BRANCH   3   7
ATOM      5  C   UNL     1       2.340  11.776  18.118  0.00  0.00    +0.000 C 
ATOM      6  C   UNL     1       1.568  10.458  18.170  0.00  0.00    +0.000 C 
ATOM      7  N   UNL     1       2.266   9.442  17.765  0.00  0.00    +0.000 NA
BRANCH   6   8
ATOM      8  C   UNL     1       0.123  10.600  18.528  0.00  0.00    +0.000 A 
ATOM      9  C   UNL     1      -0.884  10.108  17.699  0.00  0.00    +0.000 A 
ATOM     10  C   UNL     1      -2.200  10.587  17.836  0.00  0.00    +0.000 A 
ATOM     11  C   UNL     1      -2.514  11.595  18.753  0.00  0.00    +0.000 A 
ATOM     12  C   UNL     1      -1.548  11.960  19.688  0.00  0.00    +0.000 A 
ATOM     13  C   UNL     1      -0.241  11.477  19.567  0.00  0.00    +0.000 A 
BRANCH  11  14
ATOM     14  N   UNL     1      -3.818  12.096  18.855  0.00  0.00    +0.000 N 
ATOM     15  H   UNL     1      -4.259  12.240  17.949  0.00  0.00    +0.000 HD
ATOM     16  H   UNL     1      -3.884  12.934  19.428  0.00  0.00    +0.000 HD
ENDBRANCH  11  14
ENDBRANCH   6   8
ENDBRANCH   3   7
ENDBRANCH   1   3
BRANCH   1  17
ATOM     17  N   UNL     1       2.897   6.122  18.395  0.00  0.00    +0.000 N 
BRANCH  17  18
ATOM     18  C   UNL     1       2.190   4.864  18.116  0.00  0.00    +0.000 C 
BRANCH  18  19
ATOM     19  C   UNL     1       2.198   3.935  19.309  0.00  0.00    +0.000 A 
ATOM     20  C   UNL     1       1.066   3.865  20.135  0.00  0.00    +0.000 A 
ATOM     21  C   UNL     1       1.080   3.090  21.292  0.00  0.00    +0.000 A 
ATOM     22  C   UNL     1       2.219   2.376  21.645  0.00  0.00    +0.000 A 
ATOM     23  C   UNL     1       3.334   2.408  20.824  0.00  0.00    +0.000 A 
ATOM     24  C   UNL     1       3.328   3.177  19.653  0.00  0.00    +0.000 A 
ENDBRANCH  18  19
ENDBRANCH  17  18
BRANCH  17  25
ATOM     25  C   UNL     1       4.368   6.034  18.429  0.00  0.00    +0.000 C 
BRANCH  25  26
ATOM     26  C   UNL     1       4.832   5.529  17.078  0.00  0.00    +0.000 A 
ATOM     27  C   UNL     1       5.286   4.204  16.973  0.00  0.00    +0.000 A 
ATOM     28  C   UNL     1       5.936   3.779  15.821  0.00  0.00    +0.000 A 
ATOM     29  C   UNL     1       6.124   4.662  14.763  0.00  0.00    +0.000 A 
ATOM     30  C   UNL     1       5.626   5.961  14.834  0.00  0.00    +0.000 A 
ATOM     31  C   UNL     1       4.972   6.395  15.988  0.00  0.00    +0.000 A 
ENDBRANCH  25  26
ENDBRANCH  17  25
ENDBRANCH   1  17
TORSDOF 9
ENDMDL
MODEL 4
REMARK VINA RESULT:      -7.4      2.139      8.519
REMARK  Name = 
REMARK  10 active torsions:
REMARK  status: ('A' for Active; 'I' for Inactive)
REMARK    1  A    between atoms: C_1  and  C_2
REMARK    2  A    between atoms: C_2  and  C_22
REMARK    3  A    between atoms: N_3  and  N_4
REMARK    4  A    between atoms: N_4  and  C_5
REMARK    5  A    between atoms: C_5  and  N_7
REMARK    6  A    between atoms: N_7  and  C_8
REMARK    7  A    between atoms: N_7  and  C_15
REMARK    8  A    between atoms: C_8  and  C_9
REMARK    9  A    between atoms: C_15  and  C_16
REMARK   10  A    between atoms: C_25  and  N_26
REMARK                            x       y       z     vdW  Elec       q    Type
REMARK                         _______ _______ _______ _____ _____    ______ ____
ROOT
ATOM      1  C   UNL     1       0.986  10.502  18.274  0.00  0.00    +0.000 C 
ATOM      2  S   UNL     1       2.283  11.587  18.209  0.00  0.00    +0.000 S 
ENDROOT
BRANCH   1   3
ATOM      3  N   UNL     1       1.112   9.149  17.919  0.00  0.00    +0.000 N 
ATOM      4  H   UNL     1       0.320   8.523  17.971  0.00  0.00    +0.000 HD
BRANCH   3   7
ATOM      5  C   UNL     1       4.234   7.267  17.381  0.00  0.00    +0.000 C 
ATOM      6  C   UNL     1       2.793   7.462  17.850  0.00  0.00    +0.000 C 
ATOM      7  N   UNL     1       2.346   8.661  17.637  0.00  0.00    +0.000 NA
BRANCH   6   8
ATOM      8  C   UNL     1       2.220   6.298  18.595  0.00  0.00    +0.000 A 
ATOM      9  C   UNL     1       2.185   6.272  19.988  0.00  0.00    +0.000 A 
ATOM     10  C   UNL     1       2.025   5.047  20.662  0.00  0.00    +0.000 A 
ATOM     11  C   UNL     1       1.958   3.838  19.963  0.00  0.00    +0.000 A 
ATOM     12  C   UNL     1       1.824   3.883  18.577  0.00  0.00    +0.000 A 
ATOM     13  C   UNL     1       1.967   5.100  17.901  0.00  0.00    +0.000 A 
BRANCH  11  14
ATOM     14  N   UNL     1       1.840   2.618  20.643  0.00  0.00    +0.000 N 
ATOM     15  H   UNL     1       0.952   2.153  20.472  0.00  0.00    +0.000 HD
ATOM     16  H   UNL     1       2.024   2.695  21.640  0.00  0.00    +0.000 HD
ENDBRANCH  11  14
ENDBRANCH   6   8
ENDBRANCH   3   7
ENDBRANCH   1   3
BRANCH   1  17
ATOM     17  N   UNL     1      -0.289  10.883  18.707  0.00  0.00    +0.000 N 
BRANCH  17  18
ATOM     18  C   UNL     1      -0.571  12.237  19.203  0.00  0.00    +0.000 C 
BRANCH  18  19
ATOM     19  C   UNL     1      -1.173  12.216  20.590  0.00  0.00    +0.000 A 
ATOM     20  C   UNL     1      -0.477  11.591  21.635  0.00  0.00    +0.000 A 
ATOM     21  C   UNL     1      -1.049  11.474  22.899  0.00  0.00    +0.000 A 
ATOM     22  C   UNL     1      -2.322  11.974  23.142  0.00  0.00    +0.000 A 
ATOM     23  C   UNL     1      -3.011  12.624  22.132  0.00  0.00    +0.000 A 
ATOM     24  C   UNL     1      -2.442  12.756  20.858  0.00  0.00    +0.000 A 
ENDBRANCH  18  19
ENDBRANCH  17  18
BRANCH  17  25
ATOM     25  C   UNL     1      -1.384   9.908  18.855  0.00  0.00    +0.000 C 
BRANCH  25  26
ATOM     26  C   UNL     1      -2.389  10.170  17.751  0.00  0.00    +0.000 A 
ATOM     27  C   UNL     1      -2.036   9.854  16.429  0.00  0.00    +0.000 A 
ATOM     28  C   UNL     1      -2.823  10.294  15.373  0.00  0.00    +0.000 A 
ATOM     29  C   UNL     1      -3.973  11.035  15.625  0.00  0.00    +0.000 A 
ATOM     30  C   UNL     1      -4.364  11.303  16.935  0.00  0.00    +0.000 A 
ATOM     31  C   UNL     1      -3.578  10.865  18.001  0.00  0.00    +0.000 A 
ENDBRANCH  25  26
ENDBRANCH  17  25
ENDBRANCH   1  17
TORSDOF 9
ENDMDL
MODEL 5
REMARK VINA RESULT:      -7.4      1.455      1.902
REMARK  Name = 
REMARK  10 active torsions:
REMARK  status: ('A' for Active; 'I' for Inactive)
REMARK    1  A    between atoms: C_1  and  C_2
REMARK    2  A    between atoms: C_2  and  C_22
REMARK    3  A    between atoms: N_3  and  N_4
REMARK    4  A    between atoms: N_4  and  C_5
REMARK    5  A    between atoms: C_5  and  N_7
REMARK    6  A    between atoms: N_7  and  C_8
REMARK    7  A    between atoms: N_7  and  C_15
REMARK    8  A    between atoms: C_8  and  C_9
REMARK    9  A    between atoms: C_15  and  C_16
REMARK   10  A    between atoms: C_25  and  N_26
REMARK                            x       y       z     vdW  Elec       q    Type
REMARK                         _______ _______ _______ _____ _____    ______ ____
ROOT
ATOM      1  C   UNL     1       2.443   6.642  18.437  0.00  0.00    +0.000 C 
ATOM      2  S   UNL     1       2.741   6.787  20.096  0.00  0.00    +0.000 S 
ENDROOT
BRANCH   1   3
ATOM      3  N   UNL     1       1.777   7.634  17.698  0.00  0.00    +0.000 N 
ATOM      4  H   UNL     1       1.029   7.392  17.063  0.00  0.00    +0.000 HD
BRANCH   3   7
ATOM      5  C   UNL     1       2.464  11.236  18.062  0.00  0.00    +0.000 C 
ATOM      6  C   UNL     1       1.607   9.972  18.124  0.00  0.00    +0.000 C 
ATOM      7  N   UNL     1       2.243   8.906  17.746  0.00  0.00    +0.000 NA
BRANCH   6   8
ATOM      8  C   UNL     1       0.169  10.213  18.456  0.00  0.00    +0.000 A 
ATOM      9  C   UNL     1      -0.846   9.934  17.543  0.00  0.00    +0.000 A 
ATOM     10  C   UNL     1      -2.114  10.523  17.704  0.00  0.00    +0.000 A 
ATOM     11  C   UNL     1      -2.366  11.434  18.734  0.00  0.00    +0.000 A 
ATOM     12  C   UNL     1      -1.408  11.579  19.735  0.00  0.00    +0.000 A 
ATOM     13  C   UNL     1      -0.150  10.985  19.590  0.00  0.00    +0.000 A 
BRANCH  11  14
ATOM     14  N   UNL     1      -3.619  12.048  18.863  0.00  0.00    +0.000 N 
ATOM     15  H   UNL     1      -3.623  13.012  18.539  0.00  0.00    +0.000 HD
ATOM     16  H   UNL     1      -4.006  11.979  19.802  0.00  0.00    +0.000 HD
ENDBRANCH  11  14
ENDBRANCH   6   8
ENDBRANCH   3   7
ENDBRANCH   1   3
BRANCH   1  17
ATOM     17  N   UNL     1       2.861   5.533  17.695  0.00  0.00    +0.000 N 
BRANCH  17  18
ATOM     18  C   UNL     1       4.039   5.581  16.817  0.00  0.00    +0.000 C 
BRANCH  18  19
ATOM     19  C   UNL     1       5.302   5.903  17.584  0.00  0.00    +0.000 A 
ATOM     20  C   UNL     1       6.153   6.915  17.117  0.00  0.00    +0.000 A 
ATOM     21  C   UNL     1       7.368   7.169  17.749  0.00  0.00    +0.000 A 
ATOM     22  C   UNL     1       7.754   6.419  18.853  0.00  0.00    +0.000 A 
ATOM     23  C   UNL     1       6.912   5.438  19.349  0.00  0.00    +0.000 A 
ATOM     24  C   UNL     1       5.683   5.179  18.726  0.00  0.00    +0.000 A 
ENDBRANCH  18  19
ENDBRANCH  17  18
BRANCH  17  25
ATOM     25  C   UNL     1       2.052   4.303  17.609  0.00  0.00    +0.000 C 
BRANCH  25  26
ATOM     26  C   UNL     1       2.152   3.590  18.942  0.00  0.00    +0.000 A 
ATOM     27  C   UNL     1       1.041   3.605  19.801  0.00  0.00    +0.000 A 
ATOM     28  C   UNL     1       1.169   3.175  21.115  0.00  0.00    +0.000 A 
ATOM     29  C   UNL     1       2.397   2.712  21.578  0.00  0.00    +0.000 A 
ATOM     30  C   UNL     1       3.490   2.637  20.718  0.00  0.00    +0.000 A 
ATOM     31  C   UNL     1       3.369   3.068  19.397  0.00  0.00    +0.000 A 
ENDBRANCH  25  26
ENDBRANCH  17  25
ENDBRANCH   1  17
TORSDOF 9
ENDMDL
MODEL 6
REMARK VINA RESULT:      -7.3      1.270      1.485
REMARK  Name = 
REMARK  10 active torsions:
REMARK  status: ('A' for Active; 'I' for Inactive)
REMARK    1  A    between atoms: C_1  and  C_2
REMARK    2  A    between atoms: C_2  and  C_22
REMARK    3  A    between atoms: N_3  and  N_4
REMARK    4  A    between atoms: N_4  and  C_5
REMARK    5  A    between atoms: C_5  and  N_7
REMARK    6  A    between atoms: N_7  and  C_8
REMARK    7  A    between atoms: N_7  and  C_15
REMARK    8  A    between atoms: C_8  and  C_9
REMARK    9  A    between atoms: C_15  and  C_16
REMARK   10  A    between atoms: C_25  and  N_26
REMARK                            x       y       z     vdW  Elec       q    Type
REMARK                         _______ _______ _______ _____ _____    ______ ____
ROOT
ATOM      1  C   UNL     1       1.993   7.787  19.296  0.00  0.00    +0.000 C 
ATOM      2  S   UNL     1       1.589   7.914  20.933  0.00  0.00    +0.000 S 
ENDROOT
BRANCH   1   3
ATOM      3  N   UNL     1       1.493   8.666  18.322  0.00  0.00    +0.000 N 
ATOM      4  H   UNL     1       1.222   8.329  17.408  0.00  0.00    +0.000 HD
BRANCH   3   7
ATOM      5  C   UNL     1       0.889  12.242  18.979  0.00  0.00    +0.000 C 
ATOM      6  C   UNL     1       0.491  10.803  18.653  0.00  0.00    +0.000 C 
ATOM      7  N   UNL     1       1.506   9.998  18.578  0.00  0.00    +0.000 NA
BRANCH   6   8
ATOM      8  C   UNL     1      -0.959  10.617  18.334  0.00  0.00    +0.000 A 
ATOM      9  C   UNL     1      -1.372   9.856  17.242  0.00  0.00    +0.000 A 
ATOM     10  C   UNL     1      -2.673  10.017  16.729  0.00  0.00    +0.000 A 
ATOM     11  C   UNL     1      -3.550  10.969  17.257  0.00  0.00    +0.000 A 
ATOM     12  C   UNL     1      -3.196  11.603  18.447  0.00  0.00    +0.000 A 
ATOM     13  C   UNL     1      -1.909  11.438  18.971  0.00  0.00    +0.000 A 
BRANCH  11  14
ATOM     14  N   UNL     1      -4.828  11.152  16.715  0.00  0.00    +0.000 N 
ATOM     15  H   UNL     1      -5.510  11.461  17.403  0.00  0.00    +0.000 HD
ATOM     16  H   UNL     1      -5.168  10.340  16.206  0.00  0.00    +0.000 HD
ENDBRANCH  11  14
ENDBRANCH   6   8
ENDBRANCH   3   7
ENDBRANCH   1   3
BRANCH   1  17
ATOM     17  N   UNL     1       2.869   6.808  18.814  0.00  0.00    +0.000 N 
BRANCH  17  18
ATOM     18  C   UNL     1       3.127   6.632  17.377  0.00  0.00    +0.000 C 
BRANCH  18  19
ATOM     19  C   UNL     1       4.583   6.333  17.097  0.00  0.00    +0.000 A 
ATOM     20  C   UNL     1       4.926   5.153  16.419  0.00  0.00    +0.000 A 
ATOM     21  C   UNL     1       6.262   4.807  16.232  0.00  0.00    +0.000 A 
ATOM     22  C   UNL     1       7.274   5.625  16.717  0.00  0.00    +0.000 A 
ATOM     23  C   UNL     1       6.955   6.810  17.359  0.00  0.00    +0.000 A 
ATOM     24  C   UNL     1       5.614   7.173  17.547  0.00  0.00    +0.000 A 
ENDBRANCH  18  19
ENDBRANCH  17  18
BRANCH  17  25
ATOM     25  C   UNL     1       3.453   5.782  19.697  0.00  0.00    +0.000 C 
BRANCH  25  26
ATOM     26  C   UNL     1       2.746   4.473  19.415  0.00  0.00    +0.000 A 
ATOM     27  C   UNL     1       1.408   4.329  19.814  0.00  0.00    +0.000 A 
ATOM     28  C   UNL     1       0.802   3.079  19.790  0.00  0.00    +0.000 A 
ATOM     29  C   UNL     1       1.519   1.968  19.355  0.00  0.00    +0.000 A 
ATOM     30  C   UNL     1       2.828   2.110  18.901  0.00  0.00    +0.000 A 
ATOM     31  C   UNL     1       3.442   3.362  18.923  0.00  0.00    +0.000 A 
ENDBRANCH  25  26
ENDBRANCH  17  25
ENDBRANCH   1  17
TORSDOF 9
ENDMDL
MODEL 7
REMARK VINA RESULT:      -7.2      1.013      1.584
REMARK  Name = 
REMARK  10 active torsions:
REMARK  status: ('A' for Active; 'I' for Inactive)
REMARK    1  A    between atoms: C_1  and  C_2
REMARK    2  A    between atoms: C_2  and  C_22
REMARK    3  A    between atoms: N_3  and  N_4
REMARK    4  A    between atoms: N_4  and  C_5
REMARK    5  A    between atoms: C_5  and  N_7
REMARK    6  A    between atoms: N_7  and  C_8
REMARK    7  A    between atoms: N_7  and  C_15
REMARK    8  A    between atoms: C_8  and  C_9
REMARK    9  A    between atoms: C_15  and  C_16
REMARK   10  A    between atoms: C_25  and  N_26
REMARK                            x       y       z     vdW  Elec       q    Type
REMARK                         _______ _______ _______ _____ _____    ______ ____
ROOT
ATOM      1  C   UNL     1       2.209   7.682  19.051  0.00  0.00    +0.000 C 
ATOM      2  S   UNL     1       1.668   7.796  20.650  0.00  0.00    +0.000 S 
ENDROOT
BRANCH   1   3
ATOM      3  N   UNL     1       1.795   8.572  18.047  0.00  0.00    +0.000 N 
ATOM      4  H   UNL     1       1.418   8.229  17.173  0.00  0.00    +0.000 HD
BRANCH   3   7
ATOM      5  C   UNL     1       1.828  12.210  18.633  0.00  0.00    +0.000 C 
ATOM      6  C   UNL     1       1.188  10.827  18.518  0.00  0.00    +0.000 C 
ATOM      7  N   UNL     1       2.037   9.896  18.208  0.00  0.00    +0.000 NA
BRANCH   6   8
ATOM      8  C   UNL     1      -0.304  10.822  18.631  0.00  0.00    +0.000 A 
ATOM      9  C   UNL     1      -1.106  10.234  17.656  0.00  0.00    +0.000 A 
ATOM     10  C   UNL     1      -2.468  10.579  17.568  0.00  0.00    +0.000 A 
ATOM     11  C   UNL     1      -3.027  11.548  18.405  0.00  0.00    +0.000 A 
ATOM     12  C   UNL     1      -2.270  12.006  19.481  0.00  0.00    +0.000 A 
ATOM     13  C   UNL     1      -0.919  11.657  19.584  0.00  0.00    +0.000 A 
BRANCH  11  14
ATOM     14  N   UNL     1      -4.373  11.916  18.284  0.00  0.00    +0.000 N 
ATOM     15  H   UNL     1      -4.669  12.024  17.317  0.00  0.00    +0.000 HD
ATOM     16  H   UNL     1      -4.616  12.739  18.831  0.00  0.00    +0.000 HD
ENDBRANCH  11  14
ENDBRANCH   6   8
ENDBRANCH   3   7
ENDBRANCH   1   3
BRANCH   1  17
ATOM     17  N   UNL     1       3.120   6.704  18.636  0.00  0.00    +0.000 N 
BRANCH  17  18
ATOM     18  C   UNL     1       3.436   6.486  17.217  0.00  0.00    +0.000 C 
BRANCH  18  19
ATOM     19  C   UNL     1       4.831   5.932  17.028  0.00  0.00    +0.000 A 
ATOM     20  C   UNL     1       5.938   6.710  17.399  0.00  0.00    +0.000 A 
ATOM     21  C   UNL     1       7.234   6.263  17.149  0.00  0.00    +0.000 A 
ATOM     22  C   UNL     1       7.446   5.040  16.526  0.00  0.00    +0.000 A 
ATOM     23  C   UNL     1       6.366   4.244  16.184  0.00  0.00    +0.000 A 
ATOM     24  C   UNL     1       5.058   4.678  16.438  0.00  0.00    +0.000 A 
ENDBRANCH  18  19
ENDBRANCH  17  18
BRANCH  17  25
ATOM     25  C   UNL     1       3.687   5.719  19.575  0.00  0.00    +0.000 C 
BRANCH  25  26
ATOM     26  C   UNL     1       2.726   4.550  19.654  0.00  0.00    +0.000 A 
ATOM     27  C   UNL     1       2.211   4.018  18.461  0.00  0.00    +0.000 A 
ATOM     28  C   UNL     1       1.157   3.114  18.497  0.00  0.00    +0.000 A 
ATOM     29  C   UNL     1       0.620   2.722  19.719  0.00  0.00    +0.000 A 
ATOM     30  C   UNL     1       1.163   3.198  20.911  0.00  0.00    +0.000 A 
ATOM     31  C   UNL     1       2.221   4.107  20.882  0.00  0.00    +0.000 A 
ENDBRANCH  25  26
ENDBRANCH  17  25
ENDBRANCH   1  17
TORSDOF 9
ENDMDL
MODEL 8
REMARK VINA RESULT:      -7.2      1.500      4.346
REMARK  Name = 
REMARK  10 active torsions:
REMARK  status: ('A' for Active; 'I' for Inactive)
REMARK    1  A    between atoms: C_1  and  C_2
REMARK    2  A    between atoms: C_2  and  C_22
REMARK    3  A    between atoms: N_3  and  N_4
REMARK    4  A    between atoms: N_4  and  C_5
REMARK    5  A    between atoms: C_5  and  N_7
REMARK    6  A    between atoms: N_7  and  C_8
REMARK    7  A    between atoms: N_7  and  C_15
REMARK    8  A    between atoms: C_8  and  C_9
REMARK    9  A    between atoms: C_15  and  C_16
REMARK   10  A    between atoms: C_25  and  N_26
REMARK                            x       y       z     vdW  Elec       q    Type
REMARK                         _______ _______ _______ _____ _____    ______ ____
ROOT
ATOM      1  C   UNL     1       2.195   7.678  19.214  0.00  0.00    +0.000 C 
ATOM      2  S   UNL     1       1.725   7.811  20.834  0.00  0.00    +0.000 S 
ENDROOT
BRANCH   1   3
ATOM      3  N   UNL     1       2.092   8.744  18.306  0.00  0.00    +0.000 N 
ATOM      4  H   UNL     1       2.910   9.268  18.025  0.00  0.00    +0.000 HD
BRANCH   3   7
ATOM      5  C   UNL     1      -1.188  10.308  17.689  0.00  0.00    +0.000 C 
ATOM      6  C   UNL     1       0.156  10.130  18.396  0.00  0.00    +0.000 C 
ATOM      7  N   UNL     1       0.859   9.151  17.916  0.00  0.00    +0.000 NA
BRANCH   6   8
ATOM      8  C   UNL     1       0.346  11.004  19.595  0.00  0.00    +0.000 A 
ATOM      9  C   UNL     1      -0.508  10.930  20.694  0.00  0.00    +0.000 A 
ATOM     10  C   UNL     1      -0.565  11.997  21.609  0.00  0.00    +0.000 A 
ATOM     11  C   UNL     1       0.178  13.165  21.411  0.00  0.00    +0.000 A 
ATOM     12  C   UNL     1       1.150  13.166  20.412  0.00  0.00    +0.000 A 
ATOM     13  C   UNL     1       1.223  12.102  19.507  0.00  0.00    +0.000 A 
BRANCH  11  14
ATOM     14  N   UNL     1       0.084  14.240  22.304  0.00  0.00    +0.000 N 
ATOM     15  H   UNL     1      -0.780  14.235  22.840  0.00  0.00    +0.000 HD
ATOM     16  H   UNL     1       0.232  15.144  21.862  0.00  0.00    +0.000 HD
ENDBRANCH  11  14
ENDBRANCH   6   8
ENDBRANCH   3   7
ENDBRANCH   1   3
BRANCH   1  17
ATOM     17  N   UNL     1       2.737   6.502  18.685  0.00  0.00    +0.000 N 
BRANCH  17  18
ATOM     18  C   UNL     1       1.925   5.546  17.918  0.00  0.00    +0.000 C 
BRANCH  18  19
ATOM     19  C   UNL     1       1.733   4.243  18.662  0.00  0.00    +0.000 A 
ATOM     20  C   UNL     1       1.229   4.264  19.971  0.00  0.00    +0.000 A 
ATOM     21  C   UNL     1       1.131   3.089  20.712  0.00  0.00    +0.000 A 
ATOM     22  C   UNL     1       1.534   1.878  20.164  0.00  0.00    +0.000 A 
ATOM     23  C   UNL     1       2.003   1.833  18.862  0.00  0.00    +0.000 A 
ATOM     24  C   UNL     1       2.099   3.008  18.103  0.00  0.00    +0.000 A 
ENDBRANCH  18  19
ENDBRANCH  17  18
BRANCH  17  25
ATOM     25  C   UNL     1       4.106   6.061  19.007  0.00  0.00    +0.000 C 
BRANCH  25  26
ATOM     26  C   UNL     1       4.814   5.760  17.702  0.00  0.00    +0.000 A 
ATOM     27  C   UNL     1       4.850   6.754  16.710  0.00  0.00    +0.000 A 
ATOM     28  C   UNL     1       5.274   6.442  15.424  0.00  0.00    +0.000 A 
ATOM     29  C   UNL     1       5.680   5.146  15.122  0.00  0.00    +0.000 A 
ATOM     30  C   UNL     1       5.705   4.168  16.114  0.00  0.00    +0.000 A 
ATOM     31  C   UNL     1       5.279   4.474  17.406  0.00  0.00    +0.000 A 
ENDBRANCH  25  26
ENDBRANCH  17  25
ENDBRANCH   1  17
TORSDOF 9
ENDMDL
MODEL 9
REMARK VINA RESULT:      -7.2      1.841      4.671
REMARK  Name = 
REMARK  10 active torsions:
REMARK  status: ('A' for Active; 'I' for Inactive)
REMARK    1  A    between atoms: C_1  and  C_2
REMARK    2  A    between atoms: C_2  and  C_22
REMARK    3  A    between atoms: N_3  and  N_4
REMARK    4  A    between atoms: N_4  and  C_5
REMARK    5  A    between atoms: C_5  and  N_7
REMARK    6  A    between atoms: N_7  and  C_8
REMARK    7  A    between atoms: N_7  and  C_15
REMARK    8  A    between atoms: C_8  and  C_9
REMARK    9  A    between atoms: C_15  and  C_16
REMARK   10  A    between atoms: C_25  and  N_26
REMARK                            x       y       z     vdW  Elec       q    Type
REMARK                         _______ _______ _______ _____ _____    ______ ____
ROOT
ATOM      1  C   UNL     1       2.245   7.935  18.967  0.00  0.00    +0.000 C 
ATOM      2  S   UNL     1       1.640   7.925  20.546  0.00  0.00    +0.000 S 
ENDROOT
BRANCH   1   3
ATOM      3  N   UNL     1       1.897   8.921  18.029  0.00  0.00    +0.000 N 
ATOM      4  H   UNL     1       2.543   9.195  17.301  0.00  0.00    +0.000 HD
BRANCH   3   7
ATOM      5  C   UNL     1      -0.886  11.262  18.618  0.00  0.00    +0.000 C 
ATOM      6  C   UNL     1       0.580  10.834  18.557  0.00  0.00    +0.000 C 
ATOM      7  N   UNL     1       0.734   9.598  18.195  0.00  0.00    +0.000 NA
BRANCH   6   8
ATOM      8  C   UNL     1       1.546  11.856  19.065  0.00  0.00    +0.000 A 
ATOM      9  C   UNL     1       1.447  12.374  20.355  0.00  0.00    +0.000 A 
ATOM     10  C   UNL     1       2.087  13.586  20.673  0.00  0.00    +0.000 A 
ATOM     11  C   UNL     1       2.778  14.320  19.704  0.00  0.00    +0.000 A 
ATOM     12  C   UNL     1       3.016  13.720  18.469  0.00  0.00    +0.000 A 
ATOM     13  C   UNL     1       2.395  12.507  18.150  0.00  0.00    +0.000 A 
BRANCH  11  14
ATOM     14  N   UNL     1       3.377  15.546  20.018  0.00  0.00    +0.000 N 
ATOM     15  H   UNL     1       2.846  16.083  20.700  0.00  0.00    +0.000 HD
ATOM     16  H   UNL     1       3.592  16.111  19.199  0.00  0.00    +0.000 HD
ENDBRANCH  11  14
ENDBRANCH   6   8
ENDBRANCH   3   7
ENDBRANCH   1   3
BRANCH   1  17
ATOM     17  N   UNL     1       3.149   6.972  18.504  0.00  0.00    +0.000 N 
BRANCH  17  18
ATOM     18  C   UNL     1       3.580   5.842  19.340  0.00  0.00    +0.000 C 
BRANCH  18  19
ATOM     19  C   UNL     1       2.530   4.756  19.408  0.00  0.00    +0.000 A 
ATOM     20  C   UNL     1       2.145   4.245  20.657  0.00  0.00    +0.000 A 
ATOM     21  C   UNL     1       1.251   3.181  20.743  0.00  0.00    +0.000 A 
ATOM     22  C   UNL     1       0.728   2.609  19.590  0.00  0.00    +0.000 A 
ATOM     23  C   UNL     1       1.071   3.121  18.350  0.00  0.00    +0.000 A 
ATOM     24  C   UNL     1       1.963   4.198  18.251  0.00  0.00    +0.000 A 
ENDBRANCH  18  19
ENDBRANCH  17  18
BRANCH  17  25
ATOM     25  C   UNL     1       3.855   7.121  17.219  0.00  0.00    +0.000 C 
BRANCH  25  26
ATOM     26  C   UNL     1       5.008   6.138  17.209  0.00  0.00    +0.000 A 
ATOM     27  C   UNL     1       6.214   6.507  17.827  0.00  0.00    +0.000 A 
ATOM     28  C   UNL     1       7.359   5.742  17.635  0.00  0.00    +0.000 A 
ATOM     29  C   UNL     1       7.306   4.600  16.843  0.00  0.00    +0.000 A 
ATOM     30  C   UNL     1       6.102   4.193  16.274  0.00  0.00    +0.000 A 
ATOM     31  C   UNL     1       4.949   4.956  16.461  0.00  0.00    +0.000 A 
ENDBRANCH  25  26
ENDBRANCH  17  25
ENDBRANCH   1  17
TORSDOF 9
ENDMDL
