MODEL 1
REMARK VINA RESULT:      -8.5      0.000      0.000
REMARK  Name = 
REMARK  5 active torsions:
REMARK  status: ('A' for Active; 'I' for Inactive)
REMARK    1  A    between atoms: C_1  and  C_2
REMARK    2  A    between atoms: C_7  and  N_8
REMARK    3  A    between atoms: C_9  and  C_21
REMARK    4  A    between atoms: N_10  and  S_11
REMARK    5  A    between atoms: S_11  and  C_14
REMARK                            x       y       z     vdW  Elec       q    Type
REMARK                         _______ _______ _______ _____ _____    ______ ____
ROOT
ATOM      1  N   UNL     1       4.356   3.464  15.709  0.00  0.00    +0.000 NA
ATOM      2  C   UNL     1       5.483   4.083  15.751  0.00  0.00    +0.000 C 
ATOM      3  N   UNL     1       6.245   4.657  16.814  0.00  0.00    +0.000 N 
ATOM      4  H   UNL     1       7.256   4.536  16.704  0.00  0.00    +0.000 HD
ENDROOT
BRANCH   1  11
ATOM      5  C   UNL     1       1.513   2.642  22.477  0.00  0.00    +0.000 C 
ATOM      6  C   UNL     1       1.596   2.682  20.977  0.00  0.00    +0.000 A 
ATOM      7  C   UNL     1       0.520   3.139  20.208  0.00  0.00    +0.000 A 
ATOM      8  C   UNL     1       0.664   3.371  18.831  0.00  0.00    +0.000 A 
ATOM      9  C   UNL     1       1.897   3.090  18.209  0.00  0.00    +0.000 A 
ATOM     10  N   UNL     1       2.329   3.480  16.947  0.00  0.00    +0.000 NA
ATOM     11  C   UNL     1       3.586   3.103  16.760  0.00  0.00    +0.000 A 
ATOM     12  S   UNL     1       4.007   1.787  17.814  0.00  0.00    +0.000 S 
ATOM     13  C   UNL     1       2.860   2.414  18.948  0.00  0.00    +0.000 A 
ATOM     14  C   UNL     1       2.785   2.295  20.343  0.00  0.00    +0.000 A 
ENDBRANCH   1  11
BRANCH   2  15
ATOM     15  C   UNL     1       6.221   4.251  14.428  0.00  0.00    +0.000 A 
ATOM     16  C   UNL     1       7.287   5.158  14.272  0.00  0.00    +0.000 A 
ATOM     17  C   UNL     1       7.928   5.308  13.035  0.00  0.00    +0.000 A 
ATOM     18  C   UNL     1       7.511   4.560  11.939  0.00  0.00    +0.000 A 
ATOM     19  C   UNL     1       6.456   3.659  12.077  0.00  0.00    +0.000 A 
ATOM     20  C   UNL     1       5.815   3.505  13.313  0.00  0.00    +0.000 A 
ENDBRANCH   2  15
BRANCH   3  21
ATOM     21  S   UNL     1       6.029   5.198  18.369  0.00  0.00    +0.000 S 
ATOM     22  O   UNL     1       5.880   4.158  19.348  0.00  0.00    +0.000 OA
ATOM     23  O   UNL     1       7.016   6.249  18.518  0.00  0.00    +0.000 OA
BRANCH  21  24
ATOM     24  C   UNL     1       4.440   5.973  18.392  0.00  0.00    +0.000 A 
ATOM     25  C   UNL     1       3.615   5.811  19.511  0.00  0.00    +0.000 A 
ATOM     26  C   UNL     1       2.546   6.689  19.690  0.00  0.00    +0.000 A 
ATOM     27  C   UNL     1       2.328   7.707  18.763  0.00  0.00    +0.000 A 
ATOM     28  F   UNL     1       1.359   8.602  18.990  0.00  0.00    +0.000 F 
ATOM     29  C   UNL     1       3.130   7.847  17.635  0.00  0.00    +0.000 A 
ATOM     30  C   UNL     1       4.191   6.968  17.438  0.00  0.00    +0.000 A 
ENDBRANCH  21  24
ENDBRANCH   3  21
TORSDOF 4
ENDMDL
MODEL 2
REMARK VINA RESULT:      -7.4      2.384      2.764
REMARK  Name = 
REMARK  5 active torsions:
REMARK  status: ('A' for Active; 'I' for Inactive)
REMARK    1  A    between atoms: C_1  and  C_2
REMARK    2  A    between atoms: C_7  and  N_8
REMARK    3  A    between atoms: C_9  and  C_21
REMARK    4  A    between atoms: N_10  and  S_11
REMARK    5  A    between atoms: S_11  and  C_14
REMARK                            x       y       z     vdW  Elec       q    Type
REMARK                         _______ _______ _______ _____ _____    ______ ____
ROOT
ATOM      1  N   UNL     1       4.539   4.407  15.578  0.00  0.00    +0.000 NA
ATOM      2  C   UNL     1       5.821   4.349  15.490  0.00  0.00    +0.000 C 
ATOM      3  N   UNL     1       6.866   4.264  16.458  0.00  0.00    +0.000 N 
ATOM      4  H   UNL     1       7.646   3.667  16.169  0.00  0.00    +0.000 HD
ENDROOT
BRANCH   1  11
ATOM      5  C   UNL     1       2.088   2.779  22.354  0.00  0.00    +0.000 C 
ATOM      6  C   UNL     1       2.243   3.502  21.046  0.00  0.00    +0.000 A 
ATOM      7  C   UNL     1       2.164   4.897  20.981  0.00  0.00    +0.000 A 
ATOM      8  C   UNL     1       2.511   5.586  19.807  0.00  0.00    +0.000 A 
ATOM      9  C   UNL     1       2.893   4.855  18.665  0.00  0.00    +0.000 A 
ATOM     10  N   UNL     1       3.509   5.326  17.512  0.00  0.00    +0.000 NA
ATOM     11  C   UNL     1       3.796   4.315  16.704  0.00  0.00    +0.000 A 
ATOM     12  S   UNL     1       2.792   2.938  17.046  0.00  0.00    +0.000 S 
ATOM     13  C   UNL     1       2.726   3.475  18.689  0.00  0.00    +0.000 A 
ATOM     14  C   UNL     1       2.512   2.769  19.881  0.00  0.00    +0.000 A 
ENDBRANCH   1  11
BRANCH   2  15
ATOM     15  C   UNL     1       6.410   4.343  14.084  0.00  0.00    +0.000 A 
ATOM     16  C   UNL     1       7.416   5.244  13.686  0.00  0.00    +0.000 A 
ATOM     17  C   UNL     1       7.918   5.229  12.377  0.00  0.00    +0.000 A 
ATOM     18  C   UNL     1       7.420   4.319  11.451  0.00  0.00    +0.000 A 
ATOM     19  C   UNL     1       6.423   3.422  11.828  0.00  0.00    +0.000 A 
ATOM     20  C   UNL     1       5.921   3.433  13.136  0.00  0.00    +0.000 A 
ENDBRANCH   2  15
BRANCH   3  21
ATOM     21  S   UNL     1       7.114   4.565  18.073  0.00  0.00    +0.000 S 
ATOM     22  O   UNL     1       5.990   4.266  18.916  0.00  0.00    +0.000 OA
ATOM     23  O   UNL     1       8.431   4.017  18.337  0.00  0.00    +0.000 OA
BRANCH  21  24
ATOM     24  C   UNL     1       7.245   6.321  18.221  0.00  0.00    +0.000 A 
ATOM     25  C   UNL     1       8.283   6.870  18.982  0.00  0.00    +0.000 A 
ATOM     26  C   UNL     1       8.602   8.216  18.811  0.00  0.00    +0.000 A 
ATOM     27  C   UNL     1       7.891   8.981  17.887  0.00  0.00    +0.000 A 
ATOM     28  F   UNL     1       8.264  10.247  17.660  0.00  0.00    +0.000 F 
ATOM     29  C   UNL     1       6.839   8.442  17.154  0.00  0.00    +0.000 A 
ATOM     30  C   UNL     1       6.502   7.103  17.326  0.00  0.00    +0.000 A 
ENDBRANCH  21  24
ENDBRANCH   3  21
TORSDOF 4
ENDMDL
MODEL 3
REMARK VINA RESULT:      -7.0      7.706     10.440
REMARK  Name = 
REMARK  5 active torsions:
REMARK  status: ('A' for Active; 'I' for Inactive)
REMARK    1  A    between atoms: C_1  and  C_2
REMARK    2  A    between atoms: C_7  and  N_8
REMARK    3  A    between atoms: C_9  and  C_21
REMARK    4  A    between atoms: N_10  and  S_11
REMARK    5  A    between atoms: S_11  and  C_14
REMARK                            x       y       z     vdW  Elec       q    Type
REMARK                         _______ _______ _______ _____ _____    ______ ____
ROOT
ATOM      1  N   UNL     1       0.751  10.900  21.186  0.00  0.00    +0.000 NA
ATOM      2  C   UNL     1       0.527  10.437  20.007  0.00  0.00    +0.000 C 
ATOM      3  N   UNL     1      -0.272  10.888  18.913  0.00  0.00    +0.000 N 
ATOM      4  H   UNL     1       0.156  10.723  17.998  0.00  0.00    +0.000 HD
ENDROOT
BRANCH   1  11
ATOM      5  C   UNL     1      -2.739  17.329  22.223  0.00  0.00    +0.000 C 
ATOM      6  C   UNL     1      -2.001  16.057  22.536  0.00  0.00    +0.000 A 
ATOM      7  C   UNL     1      -2.292  15.322  23.689  0.00  0.00    +0.000 A 
ATOM      8  C   UNL     1      -1.756  14.038  23.881  0.00  0.00    +0.000 A 
ATOM      9  C   UNL     1      -0.873  13.508  22.920  0.00  0.00    +0.000 A 
ATOM     10  N   UNL     1      -0.443  12.194  22.782  0.00  0.00    +0.000 NA
ATOM     11  C   UNL     1       0.309  12.071  21.697  0.00  0.00    +0.000 A 
ATOM     12  S   UNL     1       0.981  13.605  21.228  0.00  0.00    +0.000 S 
ATOM     13  C   UNL     1      -0.417  14.355  21.917  0.00  0.00    +0.000 A 
ATOM     14  C   UNL     1      -1.036  15.582  21.636  0.00  0.00    +0.000 A 
ENDBRANCH   1  11
BRANCH   2  15
ATOM     15  C   UNL     1       1.254   9.152  19.628  0.00  0.00    +0.000 A 
ATOM     16  C   UNL     1       1.498   8.123  20.559  0.00  0.00    +0.000 A 
ATOM     17  C   UNL     1       2.193   6.965  20.185  0.00  0.00    +0.000 A 
ATOM     18  C   UNL     1       2.655   6.821  18.881  0.00  0.00    +0.000 A 
ATOM     19  C   UNL     1       2.423   7.831  17.948  0.00  0.00    +0.000 A 
ATOM     20  C   UNL     1       1.727   8.988  18.319  0.00  0.00    +0.000 A 
ENDBRANCH   2  15
BRANCH   3  21
ATOM     21  S   UNL     1      -1.558  11.900  18.625  0.00  0.00    +0.000 S 
ATOM     22  O   UNL     1      -2.443  12.072  19.743  0.00  0.00    +0.000 OA
ATOM     23  O   UNL     1      -0.969  13.033  17.938  0.00  0.00    +0.000 OA
BRANCH  21  24
ATOM     24  C   UNL     1      -2.581  11.057  17.456  0.00  0.00    +0.000 A 
ATOM     25  C   UNL     1      -3.813  11.614  17.096  0.00  0.00    +0.000 A 
ATOM     26  C   UNL     1      -4.443  11.161  15.938  0.00  0.00    +0.000 A 
ATOM     27  C   UNL     1      -3.834  10.175  15.163  0.00  0.00    +0.000 A 
ATOM     28  F   UNL     1      -4.398   9.812  14.004  0.00  0.00    +0.000 F 
ATOM     29  C   UNL     1      -2.624   9.601  15.538  0.00  0.00    +0.000 A 
ATOM     30  C   UNL     1      -1.992  10.034  16.699  0.00  0.00    +0.000 A 
ENDBRANCH  21  24
ENDBRANCH   3  21
TORSDOF 4
ENDMDL
MODEL 4
REMARK VINA RESULT:      -6.9      7.943     10.663
REMARK  Name = 
REMARK  5 active torsions:
REMARK  status: ('A' for Active; 'I' for Inactive)
REMARK    1  A    between atoms: C_1  and  C_2
REMARK    2  A    between atoms: C_7  and  N_8
REMARK    3  A    between atoms: C_9  and  C_21
REMARK    4  A    between atoms: N_10  and  S_11
REMARK    5  A    between atoms: S_11  and  C_14
REMARK                            x       y       z     vdW  Elec       q    Type
REMARK                         _______ _______ _______ _____ _____    ______ ____
ROOT
ATOM      1  N   UNL     1       0.296  10.923  21.618  0.00  0.00    +0.000 NA
ATOM      2  C   UNL     1       0.245  10.481  20.411  0.00  0.00    +0.000 C 
ATOM      3  N   UNL     1      -0.359  10.971  19.214  0.00  0.00    +0.000 N 
ATOM      4  H   UNL     1       0.201  10.804  18.374  0.00  0.00    +0.000 HD
ENDROOT
BRANCH   1  11
ATOM      5  C   UNL     1      -1.499  16.691  25.871  0.00  0.00    +0.000 C 
ATOM      6  C   UNL     1      -1.197  15.887  24.637  0.00  0.00    +0.000 A 
ATOM      7  C   UNL     1      -0.527  16.460  23.551  0.00  0.00    +0.000 A 
ATOM      8  C   UNL     1      -0.062  15.667  22.489  0.00  0.00    +0.000 A 
ATOM      9  C   UNL     1      -0.324  14.282  22.497  0.00  0.00    +0.000 A 
ATOM     10  N   UNL     1       0.250  13.297  21.703  0.00  0.00    +0.000 NA
ATOM     11  C   UNL     1      -0.185  12.101  22.074  0.00  0.00    +0.000 A 
ATOM     12  S   UNL     1      -1.698  12.223  22.921  0.00  0.00    +0.000 S 
ATOM     13  C   UNL     1      -1.196  13.789  23.459  0.00  0.00    +0.000 A 
ATOM     14  C   UNL     1      -1.557  14.533  24.592  0.00  0.00    +0.000 A 
ENDBRANCH   1  11
BRANCH   2  15
ATOM     15  C   UNL     1       0.984   9.178  20.129  0.00  0.00    +0.000 A 
ATOM     16  C   UNL     1       1.095   8.153  21.088  0.00  0.00    +0.000 A 
ATOM     17  C   UNL     1       1.804   6.977  20.805  0.00  0.00    +0.000 A 
ATOM     18  C   UNL     1       2.411   6.812  19.565  0.00  0.00    +0.000 A 
ATOM     19  C   UNL     1       2.311   7.817  18.605  0.00  0.00    +0.000 A 
ATOM     20  C   UNL     1       1.603   8.992  18.884  0.00  0.00    +0.000 A 
ENDBRANCH   2  15
BRANCH   3  21
ATOM     21  S   UNL     1      -1.553  12.028  18.747  0.00  0.00    +0.000 S 
ATOM     22  O   UNL     1      -2.498  12.355  19.779  0.00  0.00    +0.000 OA
ATOM     23  O   UNL     1      -0.847  13.055  18.007  0.00  0.00    +0.000 OA
BRANCH  21  24
ATOM     24  C   UNL     1      -2.550  11.144  17.585  0.00  0.00    +0.000 A 
ATOM     25  C   UNL     1      -3.806  11.651  17.234  0.00  0.00    +0.000 A 
ATOM     26  C   UNL     1      -4.425  11.171  16.081  0.00  0.00    +0.000 A 
ATOM     27  C   UNL     1      -3.782  10.211  15.302  0.00  0.00    +0.000 A 
ATOM     28  F   UNL     1      -4.340   9.824  14.147  0.00  0.00    +0.000 F 
ATOM     29  C   UNL     1      -2.548   9.685  15.668  0.00  0.00    +0.000 A 
ATOM     30  C   UNL     1      -1.926  10.145  16.825  0.00  0.00    +0.000 A 
ENDBRANCH  21  24
ENDBRANCH   3  21
TORSDOF 4
ENDMDL
MODEL 5
REMARK VINA RESULT:      -6.7      7.920     10.763
REMARK  Name = 
REMARK  5 active torsions:
REMARK  status: ('A' for Active; 'I' for Inactive)
REMARK    1  A    between atoms: C_1  and  C_2
REMARK    2  A    between atoms: C_7  and  N_8
REMARK    3  A    between atoms: C_9  and  C_21
REMARK    4  A    between atoms: N_10  and  S_11
REMARK    5  A    between atoms: S_11  and  C_14
REMARK                            x       y       z     vdW  Elec       q    Type
REMARK                         _______ _______ _______ _____ _____    ______ ____
ROOT
ATOM      1  N   UNL     1      -2.625  12.643  19.395  0.00  0.00    +0.000 NA
ATOM      2  C   UNL     1      -2.155  11.534  18.943  0.00  0.00    +0.000 C 
ATOM      3  N   UNL     1      -1.220  10.585  19.457  0.00  0.00    +0.000 N 
ATOM      4  H   UNL     1      -1.463   9.613  19.244  0.00  0.00    +0.000 HD
ENDROOT
BRANCH   1  11
ATOM      5  C   UNL     1      -2.630  17.080  25.301  0.00  0.00    +0.000 C 
ATOM      6  C   UNL     1      -2.477  15.836  24.471  0.00  0.00    +0.000 A 
ATOM      7  C   UNL     1      -2.809  14.579  24.988  0.00  0.00    +0.000 A 
ATOM      8  C   UNL     1      -2.864  13.448  24.158  0.00  0.00    +0.000 A 
ATOM      9  C   UNL     1      -2.529  13.576  22.795  0.00  0.00    +0.000 A 
ATOM     10  N   UNL     1      -2.761  12.670  21.766  0.00  0.00    +0.000 NA
ATOM     11  C   UNL     1      -2.388  13.193  20.607  0.00  0.00    +0.000 A 
ATOM     12  S   UNL     1      -1.228  14.467  20.840  0.00  0.00    +0.000 S 
ATOM     13  C   UNL     1      -1.973  14.777  22.370  0.00  0.00    +0.000 A 
ATOM     14  C   UNL     1      -2.035  15.944  23.145  0.00  0.00    +0.000 A 
ENDBRANCH   1  11
BRANCH   2  15
ATOM     15  C   UNL     1      -2.684  11.067  17.592  0.00  0.00    +0.000 A 
ATOM     16  C   UNL     1      -3.895  11.543  17.053  0.00  0.00    +0.000 A 
ATOM     17  C   UNL     1      -4.367  11.074  15.820  0.00  0.00    +0.000 A 
ATOM     18  C   UNL     1      -3.639  10.123  15.112  0.00  0.00    +0.000 A 
ATOM     19  C   UNL     1      -2.439   9.641  15.632  0.00  0.00    +0.000 A 
ATOM     20  C   UNL     1      -1.964  10.109  16.863  0.00  0.00    +0.000 A 
ENDBRANCH   2  15
BRANCH   3  21
ATOM     21  S   UNL     1      -0.001  10.500  20.583  0.00  0.00    +0.000 S 
ATOM     22  O   UNL     1       0.781  11.698  20.706  0.00  0.00    +0.000 OA
ATOM     23  O   UNL     1      -0.625   9.876  21.733  0.00  0.00    +0.000 OA
BRANCH  21  24
ATOM     24  C   UNL     1       1.170   9.345  19.938  0.00  0.00    +0.000 A 
ATOM     25  C   UNL     1       1.498   8.210  20.688  0.00  0.00    +0.000 A 
ATOM     26  C   UNL     1       2.124   7.140  20.049  0.00  0.00    +0.000 A 
ATOM     27  C   UNL     1       2.400   7.218  18.685  0.00  0.00    +0.000 A 
ATOM     28  F   UNL     1       2.915   6.152  18.059  0.00  0.00    +0.000 F 
ATOM     29  C   UNL     1       2.102   8.359  17.947  0.00  0.00    +0.000 A 
ATOM     30  C   UNL     1       1.491   9.439  18.577  0.00  0.00    +0.000 A 
ENDBRANCH  21  24
ENDBRANCH   3  21
TORSDOF 4
ENDMDL
MODEL 6
REMARK VINA RESULT:      -6.7      7.599     10.633
REMARK  Name = 
REMARK  5 active torsions:
REMARK  status: ('A' for Active; 'I' for Inactive)
REMARK    1  A    between atoms: C_1  and  C_2
REMARK    2  A    between atoms: C_7  and  N_8
REMARK    3  A    between atoms: C_9  and  C_21
REMARK    4  A    between atoms: N_10  and  S_11
REMARK    5  A    between atoms: S_11  and  C_14
REMARK                            x       y       z     vdW  Elec       q    Type
REMARK                         _______ _______ _______ _____ _____    ______ ____
ROOT
ATOM      1  N   UNL     1      -1.826  12.731  19.379  0.00  0.00    +0.000 NA
ATOM      2  C   UNL     1      -1.700  11.488  19.070  0.00  0.00    +0.000 C 
ATOM      3  N   UNL     1      -1.025  10.391  19.686  0.00  0.00    +0.000 N 
ATOM      4  H   UNL     1      -1.532   9.505  19.612  0.00  0.00    +0.000 HD
ENDROOT
BRANCH   1  11
ATOM      5  C   UNL     1      -0.423  17.651  24.708  0.00  0.00    +0.000 C 
ATOM      6  C   UNL     1      -0.596  16.325  24.022  0.00  0.00    +0.000 A 
ATOM      7  C   UNL     1      -1.125  15.225  24.704  0.00  0.00    +0.000 A 
ATOM      8  C   UNL     1      -1.479  14.051  24.019  0.00  0.00    +0.000 A 
ATOM      9  C   UNL     1      -1.247  13.966  22.631  0.00  0.00    +0.000 A 
ATOM     10  N   UNL     1      -1.745  13.029  21.735  0.00  0.00    +0.000 NA
ATOM     11  C   UNL     1      -1.379  13.340  20.499  0.00  0.00    +0.000 A 
ATOM     12  S   UNL     1       0.029  14.361  20.505  0.00  0.00    +0.000 S 
ATOM     13  C   UNL     1      -0.501  14.975  22.033  0.00  0.00    +0.000 A 
ATOM     14  C   UNL     1      -0.259  16.202  22.666  0.00  0.00    +0.000 A 
ENDBRANCH   1  11
BRANCH   2  15
ATOM     15  C   UNL     1      -2.415  11.021  17.808  0.00  0.00    +0.000 A 
ATOM     16  C   UNL     1      -1.874  10.037  16.958  0.00  0.00    +0.000 A 
ATOM     17  C   UNL     1      -2.544   9.649  15.790  0.00  0.00    +0.000 A 
ATOM     18  C   UNL     1      -3.759  10.238  15.456  0.00  0.00    +0.000 A 
ATOM     19  C   UNL     1      -4.307  11.214  16.286  0.00  0.00    +0.000 A 
ATOM     20  C   UNL     1      -3.640  11.603  17.454  0.00  0.00    +0.000 A 
ENDBRANCH   2  15
BRANCH   3  21
ATOM     21  S   UNL     1       0.192  10.115  20.783  0.00  0.00    +0.000 S 
ATOM     22  O   UNL     1       1.004  11.263  21.074  0.00  0.00    +0.000 OA
ATOM     23  O   UNL     1      -0.447   9.348  21.834  0.00  0.00    +0.000 OA
BRANCH  21  24
ATOM     24  C   UNL     1       1.334   9.036  19.973  0.00  0.00    +0.000 A 
ATOM     25  C   UNL     1       1.682   7.825  20.582  0.00  0.00    +0.000 A 
ATOM     26  C   UNL     1       2.279   6.831  19.808  0.00  0.00    +0.000 A 
ATOM     27  C   UNL     1       2.509   7.059  18.452  0.00  0.00    +0.000 A 
ATOM     28  F   UNL     1       2.996   6.067  17.695  0.00  0.00    +0.000 F 
ATOM     29  C   UNL     1       2.191   8.274  17.855  0.00  0.00    +0.000 A 
ATOM     30  C   UNL     1       1.608   9.279  18.621  0.00  0.00    +0.000 A 
ENDBRANCH  21  24
ENDBRANCH   3  21
TORSDOF 4
ENDMDL
MODEL 7
REMARK VINA RESULT:      -6.5      7.567     10.528
REMARK  Name = 
REMARK  5 active torsions:
REMARK  status: ('A' for Active; 'I' for Inactive)
REMARK    1  A    between atoms: C_1  and  C_2
REMARK    2  A    between atoms: C_7  and  N_8
REMARK    3  A    between atoms: C_9  and  C_21
REMARK    4  A    between atoms: N_10  and  S_11
REMARK    5  A    between atoms: S_11  and  C_14
REMARK                            x       y       z     vdW  Elec       q    Type
REMARK                         _______ _______ _______ _____ _____    ______ ____
ROOT
ATOM      1  N   UNL     1       1.473  11.262  20.605  0.00  0.00    +0.000 NA
ATOM      2  C   UNL     1       0.874  10.512  19.749  0.00  0.00    +0.000 C 
ATOM      3  N   UNL     1      -0.213  10.728  18.848  0.00  0.00    +0.000 N 
ATOM      4  H   UNL     1      -0.100  10.253  17.949  0.00  0.00    +0.000 HD
ENDROOT
BRANCH   1  11
ATOM      5  C   UNL     1      -0.835  18.262  20.097  0.00  0.00    +0.000 C 
ATOM      6  C   UNL     1      -0.315  16.988  20.702  0.00  0.00    +0.000 A 
ATOM      7  C   UNL     1      -0.689  16.598  21.993  0.00  0.00    +0.000 A 
ATOM      8  C   UNL     1      -0.374  15.319  22.481  0.00  0.00    +0.000 A 
ATOM      9  C   UNL     1       0.375  14.438  21.675  0.00  0.00    +0.000 A 
ATOM     10  N   UNL     1       0.569  13.073  21.848  0.00  0.00    +0.000 NA
ATOM     11  C   UNL     1       1.254  12.577  20.827  0.00  0.00    +0.000 A 
ATOM     12  S   UNL     1       2.162  13.822  20.022  0.00  0.00    +0.000 S 
ATOM     13  C   UNL     1       0.935  14.941  20.507  0.00  0.00    +0.000 A 
ATOM     14  C   UNL     1       0.525  16.159  19.945  0.00  0.00    +0.000 A 
ENDBRANCH   1  11
BRANCH   2  15
ATOM     15  C   UNL     1       1.402   9.089  19.599  0.00  0.00    +0.000 A 
ATOM     16  C   UNL     1       1.394   8.168  20.664  0.00  0.00    +0.000 A 
ATOM     17  C   UNL     1       1.911   6.876  20.501  0.00  0.00    +0.000 A 
ATOM     18  C   UNL     1       2.444   6.489  19.276  0.00  0.00    +0.000 A 
ATOM     19  C   UNL     1       2.460   7.389  18.212  0.00  0.00    +0.000 A 
ATOM     20  C   UNL     1       1.943   8.681  18.372  0.00  0.00    +0.000 A 
ENDBRANCH   2  15
BRANCH   3  21
ATOM     21  S   UNL     1      -1.489  11.771  18.642  0.00  0.00    +0.000 S 
ATOM     22  O   UNL     1      -2.342  11.905  19.791  0.00  0.00    +0.000 OA
ATOM     23  O   UNL     1      -0.901  12.925  17.991  0.00  0.00    +0.000 OA
BRANCH  21  24
ATOM     24  C   UNL     1      -2.557  10.998  17.464  0.00  0.00    +0.000 A 
ATOM     25  C   UNL     1      -3.787  11.592  17.161  0.00  0.00    +0.000 A 
ATOM     26  C   UNL     1      -4.454  11.200  16.001  0.00  0.00    +0.000 A 
ATOM     27  C   UNL     1      -3.883  10.239  15.169  0.00  0.00    +0.000 A 
ATOM     28  F   UNL     1      -4.483   9.937  14.010  0.00  0.00    +0.000 F 
ATOM     29  C   UNL     1      -2.675   9.628  15.487  0.00  0.00    +0.000 A 
ATOM     30  C   UNL     1      -2.007   9.999  16.650  0.00  0.00    +0.000 A 
ENDBRANCH  21  24
ENDBRANCH   3  21
TORSDOF 4
ENDMDL
MODEL 8
REMARK VINA RESULT:      -6.4      7.042     10.021
REMARK  Name = 
REMARK  5 active torsions:
REMARK  status: ('A' for Active; 'I' for Inactive)
REMARK    1  A    between atoms: C_1  and  C_2
REMARK    2  A    between atoms: C_7  and  N_8
REMARK    3  A    between atoms: C_9  and  C_21
REMARK    4  A    between atoms: N_10  and  S_11
REMARK    5  A    between atoms: S_11  and  C_14
REMARK                            x       y       z     vdW  Elec       q    Type
REMARK                         _______ _______ _______ _____ _____    ______ ____
ROOT
ATOM      1  N   UNL     1      -1.126  10.210  19.304  0.00  0.00    +0.000 NA
ATOM      2  C   UNL     1      -1.327  11.471  19.149  0.00  0.00    +0.000 C 
ATOM      3  N   UNL     1      -0.454  12.586  18.958  0.00  0.00    +0.000 N 
ATOM      4  H   UNL     1      -0.822  13.287  18.310  0.00  0.00    +0.000 HD
ENDROOT
BRANCH   1  11
ATOM      5  C   UNL     1       4.130   5.019  19.186  0.00  0.00    +0.000 C 
ATOM      6  C   UNL     1       3.442   6.336  18.958  0.00  0.00    +0.000 A 
ATOM      7  C   UNL     1       3.661   7.070  17.788  0.00  0.00    +0.000 A 
ATOM      8  C   UNL     1       2.871   8.189  17.478  0.00  0.00    +0.000 A 
ATOM      9  C   UNL     1       1.880   8.607  18.389  0.00  0.00    +0.000 A 
ATOM     10  N   UNL     1       0.840   9.503  18.172  0.00  0.00    +0.000 NA
ATOM     11  C   UNL     1       0.059   9.562  19.242  0.00  0.00    +0.000 A 
ATOM     12  S   UNL     1       0.909   9.037  20.665  0.00  0.00    +0.000 S 
ATOM     13  C   UNL     1       1.853   8.008  19.643  0.00  0.00    +0.000 A 
ATOM     14  C   UNL     1       2.536   6.815  19.916  0.00  0.00    +0.000 A 
ENDBRANCH   1  11
BRANCH   2  15
ATOM     15  C   UNL     1      -2.779  11.935  19.133  0.00  0.00    +0.000 A 
ATOM     16  C   UNL     1      -3.332  12.711  20.170  0.00  0.00    +0.000 A 
ATOM     17  C   UNL     1      -4.678  13.099  20.138  0.00  0.00    +0.000 A 
ATOM     18  C   UNL     1      -5.488  12.716  19.074  0.00  0.00    +0.000 A 
ATOM     19  C   UNL     1      -4.956  11.948  18.040  0.00  0.00    +0.000 A 
ATOM     20  C   UNL     1      -3.610  11.560  18.068  0.00  0.00    +0.000 A 
ENDBRANCH   2  15
BRANCH   3  21
ATOM     21  S   UNL     1       1.138  12.994  19.198  0.00  0.00    +0.000 S 
ATOM     22  O   UNL     1       1.609  12.801  20.541  0.00  0.00    +0.000 OA
ATOM     23  O   UNL     1       1.826  12.417  18.059  0.00  0.00    +0.000 OA
BRANCH  21  24
ATOM     24  C   UNL     1       1.217  14.751  19.015  0.00  0.00    +0.000 A 
ATOM     25  C   UNL     1       2.423  15.347  18.631  0.00  0.00    +0.000 A 
ATOM     26  C   UNL     1       2.402  16.653  18.144  0.00  0.00    +0.000 A 
ATOM     27  C   UNL     1       1.188  17.331  18.043  0.00  0.00    +0.000 A 
ATOM     28  F   UNL     1       1.163  18.549  17.487  0.00  0.00    +0.000 F 
ATOM     29  C   UNL     1      -0.006  16.749  18.454  0.00  0.00    +0.000 A 
ATOM     30  C   UNL     1       0.004  15.451  18.956  0.00  0.00    +0.000 A 
ENDBRANCH  21  24
ENDBRANCH   3  21
TORSDOF 4
ENDMDL
MODEL 9
REMARK VINA RESULT:      -6.4      8.063     10.641
REMARK  Name = 
REMARK  5 active torsions:
REMARK  status: ('A' for Active; 'I' for Inactive)
REMARK    1  A    between atoms: C_1  and  C_2
REMARK    2  A    between atoms: C_7  and  N_8
REMARK    3  A    between atoms: C_9  and  C_21
REMARK    4  A    between atoms: N_10  and  S_11
REMARK    5  A    between atoms: S_11  and  C_14
REMARK                            x       y       z     vdW  Elec       q    Type
REMARK                         _______ _______ _______ _____ _____    ______ ____
ROOT
ATOM      1  N   UNL     1      -0.500  14.046  20.882  0.00  0.00    +0.000 NA
ATOM      2  C   UNL     1       0.368  13.441  20.151  0.00  0.00    +0.000 C 
ATOM      3  N   UNL     1       0.466  12.108  19.649  0.00  0.00    +0.000 N 
ATOM      4  H   UNL     1       0.853  12.054  18.702  0.00  0.00    +0.000 HD
ENDROOT
BRANCH   1  11
ATOM      5  C   UNL     1      -7.112  13.240  24.077  0.00  0.00    +0.000 C 
ATOM      6  C   UNL     1      -5.953  12.997  23.151  0.00  0.00    +0.000 A 
ATOM      7  C   UNL     1      -6.161  12.590  21.829  0.00  0.00    +0.000 A 
ATOM      8  C   UNL     1      -5.103  12.561  20.907  0.00  0.00    +0.000 A 
ATOM      9  C   UNL     1      -3.804  12.898  21.337  0.00  0.00    +0.000 A 
ATOM     10  N   UNL     1      -2.689  13.182  20.558  0.00  0.00    +0.000 NA
ATOM     11  C   UNL     1      -1.676  13.550  21.328  0.00  0.00    +0.000 A 
ATOM     12  S   UNL     1      -1.882  12.963  22.952  0.00  0.00    +0.000 S 
ATOM     13  C   UNL     1      -3.591  13.060  22.701  0.00  0.00    +0.000 A 
ATOM     14  C   UNL     1      -4.647  13.222  23.609  0.00  0.00    +0.000 A 
ENDBRANCH   1  11
BRANCH   2  15
ATOM     15  C   UNL     1       1.553  14.270  19.669  0.00  0.00    +0.000 A 
ATOM     16  C   UNL     1       2.041  15.376  20.392  0.00  0.00    +0.000 A 
ATOM     17  C   UNL     1       3.116  16.133  19.908  0.00  0.00    +0.000 A 
ATOM     18  C   UNL     1       3.715  15.799  18.698  0.00  0.00    +0.000 A 
ATOM     19  C   UNL     1       3.243  14.707  17.970  0.00  0.00    +0.000 A 
ATOM     20  C   UNL     1       2.170  13.947  18.452  0.00  0.00    +0.000 A 
ENDBRANCH   2  15
BRANCH   3  21
ATOM     21  S   UNL     1      -0.140  10.594  19.966  0.00  0.00    +0.000 S 
ATOM     22  O   UNL     1      -0.319  10.303  21.362  0.00  0.00    +0.000 OA
ATOM     23  O   UNL     1      -1.220  10.438  19.012  0.00  0.00    +0.000 OA
BRANCH  21  24
ATOM     24  C   UNL     1       1.132   9.459  19.501  0.00  0.00    +0.000 A 
ATOM     25  C   UNL     1       1.403   8.358  20.322  0.00  0.00    +0.000 A 
ATOM     26  C   UNL     1       2.129   7.291  19.796  0.00  0.00    +0.000 A 
ATOM     27  C   UNL     1       2.561   7.337  18.471  0.00  0.00    +0.000 A 
ATOM     28  F   UNL     1       3.176   6.270  17.945  0.00  0.00    +0.000 F 
ATOM     29  C   UNL     1       2.319   8.445  17.666  0.00  0.00    +0.000 A 
ATOM     30  C   UNL     1       1.607   9.523  18.184  0.00  0.00    +0.000 A 
ENDBRANCH  21  24
ENDBRANCH   3  21
TORSDOF 4
ENDMDL
