MODEL 1
REMARK VINA RESULT:      -8.7      0.000      0.000
REMARK  Name = 
REMARK  6 active torsions:
REMARK  status: ('A' for Active; 'I' for Inactive)
REMARK    1  A    between atoms: C_1  and  C_2
REMARK    2  A    between atoms: C_5  and  C_6
REMARK    3  A    between atoms: C_6  and  N_7
REMARK    4  A    between atoms: N_12  and  C_13
REMARK    5  A    between atoms: N_12  and  C_14
REMARK    6  A    between atoms: C_21  and  C_22
REMARK                            x       y       z     vdW  Elec       q    Type
REMARK                         _______ _______ _______ _____ _____    ______ ____
ROOT
ATOM      1  N   UNL     1       5.143   5.696  17.685  0.00  0.00    +0.000 N 
ATOM      2  C   UNL     1       5.171   6.931  17.095  0.00  0.00    +0.000 A 
ATOM      3  N   UNL     1       4.202   7.706  17.537  0.00  0.00    +0.000 NA
ATOM      4  C   UNL     1       3.497   6.936  18.448  0.00  0.00    +0.000 A 
ATOM      5  C   UNL     1       2.348   7.181  19.237  0.00  0.00    +0.000 A 
ATOM      6  N   UNL     1       1.578   8.360  19.241  0.00  0.00    +0.000 N 
ATOM      7  C   UNL     1       1.493   9.140  18.007  0.00  0.00    +0.000 C 
ATOM      8  N   UNL     1       1.940   6.144  20.041  0.00  0.00    +0.000 NA
ATOM      9  C   UNL     1       2.579   4.938  20.036  0.00  0.00    +0.000 A 
ATOM     10  N   UNL     1       3.688   4.649  19.312  0.00  0.00    +0.000 NA
ATOM     11  C   UNL     1       4.087   5.682  18.559  0.00  0.00    +0.000 A 
ENDROOT
BRANCH   6  12
ATOM     12  C   UNL     1       0.996   8.963  20.382  0.00  0.00    +0.000 A 
ATOM     13  C   UNL     1      -0.054   9.885  20.245  0.00  0.00    +0.000 A 
ATOM     14  C   UNL     1      -0.669  10.466  21.359  0.00  0.00    +0.000 A 
ATOM     15  C   UNL     1      -0.234  10.143  22.642  0.00  0.00    +0.000 A 
ATOM     16  C   UNL     1       0.808   9.238  22.808  0.00  0.00    +0.000 A 
ATOM     17  C   UNL     1       1.412   8.653  21.688  0.00  0.00    +0.000 A 
ENDBRANCH   6  12
BRANCH   9  18
ATOM     18  C   UNL     1       1.967   3.795  20.860  0.00  0.00    +0.000 C 
ATOM     19  F   UNL     1       0.603   3.737  20.827  0.00  0.00    +0.000 F 
ATOM     20  F   UNL     1       2.388   2.562  20.439  0.00  0.00    +0.000 F 
ATOM     21  F   UNL     1       2.298   3.854  22.187  0.00  0.00    +0.000 F 
ENDBRANCH   9  18
BRANCH   1  22
ATOM     22  C   UNL     1       5.934   4.547  17.283  0.00  0.00    +0.000 C 
BRANCH  22  27
ATOM     23  C   UNL     1       6.994   3.912  11.589  0.00  0.00    +0.000 C 
ATOM     24  C   UNL     1       6.694   4.141  13.039  0.00  0.00    +0.000 A 
ATOM     25  C   UNL     1       7.589   4.832  13.863  0.00  0.00    +0.000 A 
ATOM     26  C   UNL     1       7.320   4.990  15.225  0.00  0.00    +0.000 A 
ATOM     27  C   UNL     1       6.154   4.460  15.794  0.00  0.00    +0.000 A 
ATOM     28  C   UNL     1       5.242   3.795  14.961  0.00  0.00    +0.000 A 
ATOM     29  C   UNL     1       5.516   3.633  13.599  0.00  0.00    +0.000 A 
ENDBRANCH  22  27
ENDBRANCH   1  22
TORSDOF 4
ENDMDL
MODEL 2
REMARK VINA RESULT:      -8.5      0.185      1.454
REMARK  Name = 
REMARK  6 active torsions:
REMARK  status: ('A' for Active; 'I' for Inactive)
REMARK    1  A    between atoms: C_1  and  C_2
REMARK    2  A    between atoms: C_5  and  C_6
REMARK    3  A    between atoms: C_6  and  N_7
REMARK    4  A    between atoms: N_12  and  C_13
REMARK    5  A    between atoms: N_12  and  C_14
REMARK    6  A    between atoms: C_21  and  C_22
REMARK                            x       y       z     vdW  Elec       q    Type
REMARK                         _______ _______ _______ _____ _____    ______ ____
ROOT
ATOM      1  N   UNL     1       5.268   5.635  17.805  0.00  0.00    +0.000 N 
ATOM      2  C   UNL     1       5.312   6.854  17.183  0.00  0.00    +0.000 A 
ATOM      3  N   UNL     1       4.321   7.634  17.564  0.00  0.00    +0.000 NA
ATOM      4  C   UNL     1       3.585   6.882  18.466  0.00  0.00    +0.000 A 
ATOM      5  C   UNL     1       2.403   7.140  19.201  0.00  0.00    +0.000 A 
ATOM      6  N   UNL     1       1.626   8.314  19.142  0.00  0.00    +0.000 N 
ATOM      7  C   UNL     1       1.587   9.060  17.885  0.00  0.00    +0.000 C 
ATOM      8  N   UNL     1       1.969   6.122  20.015  0.00  0.00    +0.000 NA
ATOM      9  C   UNL     1       2.615   4.921  20.069  0.00  0.00    +0.000 A 
ATOM     10  N   UNL     1       3.754   4.621  19.398  0.00  0.00    +0.000 NA
ATOM     11  C   UNL     1       4.177   5.636  18.634  0.00  0.00    +0.000 A 
ENDROOT
BRANCH   6  12
ATOM     12  C   UNL     1       0.993   8.942  20.242  0.00  0.00    +0.000 A 
ATOM     13  C   UNL     1       1.346   8.601  21.558  0.00  0.00    +0.000 A 
ATOM     14  C   UNL     1       0.761   9.234  22.659  0.00  0.00    +0.000 A 
ATOM     15  C   UNL     1      -0.205  10.219  22.466  0.00  0.00    +0.000 A 
ATOM     16  C   UNL     1      -0.578  10.572  21.174  0.00  0.00    +0.000 A 
ATOM     17  C   UNL     1       0.019   9.941  20.076  0.00  0.00    +0.000 A 
ENDBRANCH   6  12
BRANCH   9  18
ATOM     18  C   UNL     1       1.977   3.796  20.897  0.00  0.00    +0.000 C 
ATOM     19  F   UNL     1       2.252   3.847  22.234  0.00  0.00    +0.000 F 
ATOM     20  F   UNL     1       0.610   3.794  20.814  0.00  0.00    +0.000 F 
ATOM     21  F   UNL     1       2.363   2.547  20.492  0.00  0.00    +0.000 F 
ENDBRANCH   9  18
BRANCH   1  22
ATOM     22  C   UNL     1       6.082   4.482  17.466  0.00  0.00    +0.000 C 
BRANCH  22  27
ATOM     23  C   UNL     1       6.941   4.288  11.706  0.00  0.00    +0.000 C 
ATOM     24  C   UNL     1       6.752   4.273  13.193  0.00  0.00    +0.000 A 
ATOM     25  C   UNL     1       5.651   3.637  13.776  0.00  0.00    +0.000 A 
ATOM     26  C   UNL     1       5.460   3.678  15.160  0.00  0.00    +0.000 A 
ATOM     27  C   UNL     1       6.363   4.357  15.990  0.00  0.00    +0.000 A 
ATOM     28  C   UNL     1       7.483   4.967  15.408  0.00  0.00    +0.000 A 
ATOM     29  C   UNL     1       7.669   4.929  14.022  0.00  0.00    +0.000 A 
ENDBRANCH  22  27
ENDBRANCH   1  22
TORSDOF 4
ENDMDL
MODEL 3
REMARK VINA RESULT:      -8.0      4.579     10.725
REMARK  Name = 
REMARK  6 active torsions:
REMARK  status: ('A' for Active; 'I' for Inactive)
REMARK    1  A    between atoms: C_1  and  C_2
REMARK    2  A    between atoms: C_5  and  C_6
REMARK    3  A    between atoms: C_6  and  N_7
REMARK    4  A    between atoms: N_12  and  C_13
REMARK    5  A    between atoms: N_12  and  C_14
REMARK    6  A    between atoms: C_21  and  C_22
REMARK                            x       y       z     vdW  Elec       q    Type
REMARK                         _______ _______ _______ _____ _____    ______ ____
ROOT
ATOM      1  N   UNL     1      -1.465  13.134  21.115  0.00  0.00    +0.000 N 
ATOM      2  C   UNL     1      -0.510  12.990  22.084  0.00  0.00    +0.000 A 
ATOM      3  N   UNL     1       0.182  11.880  21.929  0.00  0.00    +0.000 NA
ATOM      4  C   UNL     1      -0.357  11.260  20.813  0.00  0.00    +0.000 A 
ATOM      5  C   UNL     1      -0.074  10.041  20.152  0.00  0.00    +0.000 A 
ATOM      6  N   UNL     1       0.884   9.086  20.545  0.00  0.00    +0.000 N 
ATOM      7  C   UNL     1       1.185   8.946  21.969  0.00  0.00    +0.000 C 
ATOM      8  N   UNL     1      -0.843   9.764  19.048  0.00  0.00    +0.000 NA
ATOM      9  C   UNL     1      -1.848  10.595  18.647  0.00  0.00    +0.000 A 
ATOM     10  N   UNL     1      -2.158  11.778  19.232  0.00  0.00    +0.000 NA
ATOM     11  C   UNL     1      -1.378  12.044  20.288  0.00  0.00    +0.000 A 
ENDROOT
BRANCH   6  12
ATOM     12  C   UNL     1       1.716   8.343  19.672  0.00  0.00    +0.000 A 
ATOM     13  C   UNL     1       2.142   7.051  20.020  0.00  0.00    +0.000 A 
ATOM     14  C   UNL     1       2.934   6.285  19.159  0.00  0.00    +0.000 A 
ATOM     15  C   UNL     1       3.328   6.804  17.928  0.00  0.00    +0.000 A 
ATOM     16  C   UNL     1       2.927   8.083  17.560  0.00  0.00    +0.000 A 
ATOM     17  C   UNL     1       2.126   8.841  18.424  0.00  0.00    +0.000 A 
ENDBRANCH   6  12
BRANCH   9  18
ATOM     18  C   UNL     1      -2.745  10.135  17.489  0.00  0.00    +0.000 C 
ATOM     19  F   UNL     1      -2.072   9.619  16.418  0.00  0.00    +0.000 F 
ATOM     20  F   UNL     1      -3.624   9.153  17.864  0.00  0.00    +0.000 F 
ATOM     21  F   UNL     1      -3.523  11.139  16.981  0.00  0.00    +0.000 F 
ENDBRANCH   9  18
BRANCH   1  22
ATOM     22  C   UNL     1      -2.522  14.128  21.107  0.00  0.00    +0.000 C 
BRANCH  22  27
ATOM     23  C   UNL     1      -7.480  12.723  23.827  0.00  0.00    +0.000 C 
ATOM     24  C   UNL     1      -6.183  13.016  23.136  0.00  0.00    +0.000 A 
ATOM     25  C   UNL     1      -5.031  13.334  23.863  0.00  0.00    +0.000 A 
ATOM     26  C   UNL     1      -3.843  13.658  23.202  0.00  0.00    +0.000 A 
ATOM     27  C   UNL     1      -3.781  13.672  21.801  0.00  0.00    +0.000 A 
ATOM     28  C   UNL     1      -4.927  13.322  21.074  0.00  0.00    +0.000 A 
ATOM     29  C   UNL     1      -6.117  13.004  21.737  0.00  0.00    +0.000 A 
ENDBRANCH  22  27
ENDBRANCH   1  22
TORSDOF 4
ENDMDL
MODEL 4
REMARK VINA RESULT:      -8.0      5.121      8.010
REMARK  Name = 
REMARK  6 active torsions:
REMARK  status: ('A' for Active; 'I' for Inactive)
REMARK    1  A    between atoms: C_1  and  C_2
REMARK    2  A    between atoms: C_5  and  C_6
REMARK    3  A    between atoms: C_6  and  N_7
REMARK    4  A    between atoms: N_12  and  C_13
REMARK    5  A    between atoms: N_12  and  C_14
REMARK    6  A    between atoms: C_21  and  C_22
REMARK                            x       y       z     vdW  Elec       q    Type
REMARK                         _______ _______ _______ _____ _____    ______ ____
ROOT
ATOM      1  N   UNL     1       0.437  10.862  19.216  0.00  0.00    +0.000 N 
ATOM      2  C   UNL     1       0.536  11.532  20.405  0.00  0.00    +0.000 A 
ATOM      3  N   UNL     1      -0.603  12.101  20.743  0.00  0.00    +0.000 NA
ATOM      4  C   UNL     1      -1.485  11.802  19.716  0.00  0.00    +0.000 A 
ATOM      5  C   UNL     1      -2.839  12.138  19.476  0.00  0.00    +0.000 A 
ATOM      6  N   UNL     1      -3.649  12.957  20.287  0.00  0.00    +0.000 N 
ATOM      7  C   UNL     1      -3.012  14.029  21.049  0.00  0.00    +0.000 C 
ATOM      8  N   UNL     1      -3.384  11.639  18.318  0.00  0.00    +0.000 NA
ATOM      9  C   UNL     1      -2.646  10.906  17.435  0.00  0.00    +0.000 A 
ATOM     10  N   UNL     1      -1.352  10.544  17.615  0.00  0.00    +0.000 NA
ATOM     11  C   UNL     1      -0.848  11.015  18.764  0.00  0.00    +0.000 A 
ENDROOT
BRANCH   6  12
ATOM     12  C   UNL     1      -5.020  12.744  20.567  0.00  0.00    +0.000 A 
ATOM     13  C   UNL     1      -5.495  12.791  21.888  0.00  0.00    +0.000 A 
ATOM     14  C   UNL     1      -6.851  12.619  22.185  0.00  0.00    +0.000 A 
ATOM     15  C   UNL     1      -7.764  12.383  21.161  0.00  0.00    +0.000 A 
ATOM     16  C   UNL     1      -7.322  12.325  19.844  0.00  0.00    +0.000 A 
ATOM     17  C   UNL     1      -5.964  12.507  19.553  0.00  0.00    +0.000 A 
ENDBRANCH   6  12
BRANCH   9  18
ATOM     18  C   UNL     1      -3.300  10.512  16.102  0.00  0.00    +0.000 C 
ATOM     19  F   UNL     1      -3.195   9.187  15.786  0.00  0.00    +0.000 F 
ATOM     20  F   UNL     1      -4.643  10.780  16.077  0.00  0.00    +0.000 F 
ATOM     21  F   UNL     1      -2.780  11.185  15.030  0.00  0.00    +0.000 F 
ENDBRANCH   9  18
BRANCH   1  22
ATOM     22  C   UNL     1       1.546  10.303  18.463  0.00  0.00    +0.000 C 
BRANCH  22  27
ATOM     23  C   UNL     1       2.961   4.813  19.805  0.00  0.00    +0.000 C 
ATOM     24  C   UNL     1       2.536   6.200  19.429  0.00  0.00    +0.000 A 
ATOM     25  C   UNL     1       2.823   6.725  18.164  0.00  0.00    +0.000 A 
ATOM     26  C   UNL     1       2.468   8.040  17.847  0.00  0.00    +0.000 A 
ATOM     27  C   UNL     1       1.823   8.856  18.786  0.00  0.00    +0.000 A 
ATOM     28  C   UNL     1       1.508   8.318  20.042  0.00  0.00    +0.000 A 
ATOM     29  C   UNL     1       1.868   7.004  20.359  0.00  0.00    +0.000 A 
ENDBRANCH  22  27
ENDBRANCH   1  22
TORSDOF 4
ENDMDL
MODEL 5
REMARK VINA RESULT:      -8.0      4.632     10.734
REMARK  Name = 
REMARK  6 active torsions:
REMARK  status: ('A' for Active; 'I' for Inactive)
REMARK    1  A    between atoms: C_1  and  C_2
REMARK    2  A    between atoms: C_5  and  C_6
REMARK    3  A    between atoms: C_6  and  N_7
REMARK    4  A    between atoms: N_12  and  C_13
REMARK    5  A    between atoms: N_12  and  C_14
REMARK    6  A    between atoms: C_21  and  C_22
REMARK                            x       y       z     vdW  Elec       q    Type
REMARK                         _______ _______ _______ _____ _____    ______ ____
ROOT
ATOM      1  N   UNL     1      -1.413  13.320  20.981  0.00  0.00    +0.000 N 
ATOM      2  C   UNL     1      -0.471  13.177  21.963  0.00  0.00    +0.000 A 
ATOM      3  N   UNL     1       0.182  12.039  21.853  0.00  0.00    +0.000 NA
ATOM      4  C   UNL     1      -0.371  11.399  20.756  0.00  0.00    +0.000 A 
ATOM      5  C   UNL     1      -0.127  10.147  20.141  0.00  0.00    +0.000 A 
ATOM      6  N   UNL     1       0.793   9.173  20.575  0.00  0.00    +0.000 N 
ATOM      7  C   UNL     1       1.079   9.075  22.006  0.00  0.00    +0.000 C 
ATOM      8  N   UNL     1      -0.898   9.859  19.041  0.00  0.00    +0.000 NA
ATOM      9  C   UNL     1      -1.871  10.710  18.603  0.00  0.00    +0.000 A 
ATOM     10  N   UNL     1      -2.142  11.923  19.143  0.00  0.00    +0.000 NA
ATOM     11  C   UNL     1      -1.360  12.199  20.195  0.00  0.00    +0.000 A 
ENDROOT
BRANCH   6  12
ATOM     12  C   UNL     1       1.603   8.370  19.736  0.00  0.00    +0.000 A 
ATOM     13  C   UNL     1       1.970   8.819  18.457  0.00  0.00    +0.000 A 
ATOM     14  C   UNL     1       2.799   8.059  17.625  0.00  0.00    +0.000 A 
ATOM     15  C   UNL     1       3.271   6.821  18.055  0.00  0.00    +0.000 A 
ATOM     16  C   UNL     1       2.918   6.349  19.314  0.00  0.00    +0.000 A 
ATOM     17  C   UNL     1       2.096   7.119  20.145  0.00  0.00    +0.000 A 
ENDBRANCH   6  12
BRANCH   9  18
ATOM     18  C   UNL     1      -2.776  10.240  17.455  0.00  0.00    +0.000 C 
ATOM     19  F   UNL     1      -2.111   9.875  16.318  0.00  0.00    +0.000 F 
ATOM     20  F   UNL     1      -3.529   9.147  17.794  0.00  0.00    +0.000 F 
ATOM     21  F   UNL     1      -3.679  11.189  17.060  0.00  0.00    +0.000 F 
ENDBRANCH   9  18
BRANCH   1  22
ATOM     22  C   UNL     1      -2.435  14.351  20.930  0.00  0.00    +0.000 C 
BRANCH  22  27
ATOM     23  C   UNL     1      -7.096  12.673  23.997  0.00  0.00    +0.000 C 
ATOM     24  C   UNL     1      -5.934  13.163  23.187  0.00  0.00    +0.000 A 
ATOM     25  C   UNL     1      -5.840  12.891  21.819  0.00  0.00    +0.000 A 
ATOM     26  C   UNL     1      -4.724  13.308  21.088  0.00  0.00    +0.000 A 
ATOM     27  C   UNL     1      -3.678  14.004  21.710  0.00  0.00    +0.000 A 
ATOM     28  C   UNL     1      -3.788  14.304  23.075  0.00  0.00    +0.000 A 
ATOM     29  C   UNL     1      -4.903  13.881  23.806  0.00  0.00    +0.000 A 
ENDBRANCH  22  27
ENDBRANCH   1  22
TORSDOF 4
ENDMDL
MODEL 6
REMARK VINA RESULT:      -7.9      5.076      7.859
REMARK  Name = 
REMARK  6 active torsions:
REMARK  status: ('A' for Active; 'I' for Inactive)
REMARK    1  A    between atoms: C_1  and  C_2
REMARK    2  A    between atoms: C_5  and  C_6
REMARK    3  A    between atoms: C_6  and  N_7
REMARK    4  A    between atoms: N_12  and  C_13
REMARK    5  A    between atoms: N_12  and  C_14
REMARK    6  A    between atoms: C_21  and  C_22
REMARK                            x       y       z     vdW  Elec       q    Type
REMARK                         _______ _______ _______ _____ _____    ______ ____
ROOT
ATOM      1  N   UNL     1       0.574  10.660  19.177  0.00  0.00    +0.000 N 
ATOM      2  C   UNL     1       0.750  11.356  20.341  0.00  0.00    +0.000 A 
ATOM      3  N   UNL     1      -0.334  12.021  20.684  0.00  0.00    +0.000 NA
ATOM      4  C   UNL     1      -1.259  11.759  19.686  0.00  0.00    +0.000 A 
ATOM      5  C   UNL     1      -2.589  12.190  19.463  0.00  0.00    +0.000 A 
ATOM      6  N   UNL     1      -3.316  13.093  20.263  0.00  0.00    +0.000 N 
ATOM      7  C   UNL     1      -2.582  14.136  20.978  0.00  0.00    +0.000 C 
ATOM      8  N   UNL     1      -3.197  11.699  18.332  0.00  0.00    +0.000 NA
ATOM      9  C   UNL     1      -2.536  10.886  17.459  0.00  0.00    +0.000 A 
ATOM     10  N   UNL     1      -1.270  10.431  17.624  0.00  0.00    +0.000 NA
ATOM     11  C   UNL     1      -0.706  10.897  18.746  0.00  0.00    +0.000 A 
ENDROOT
BRANCH   6  12
ATOM     12  C   UNL     1      -4.693  12.994  20.578  0.00  0.00    +0.000 A 
ATOM     13  C   UNL     1      -5.665  13.123  19.573  0.00  0.00    +0.000 A 
ATOM     14  C   UNL     1      -7.029  12.994  19.854  0.00  0.00    +0.000 A 
ATOM     15  C   UNL     1      -7.452  12.743  21.157  0.00  0.00    +0.000 A 
ATOM     16  C   UNL     1      -6.511  12.617  22.173  0.00  0.00    +0.000 A 
ATOM     17  C   UNL     1      -5.147  12.738  21.883  0.00  0.00    +0.000 A 
ENDBRANCH   6  12
BRANCH   9  18
ATOM     18  C   UNL     1      -3.248  10.502  16.153  0.00  0.00    +0.000 C 
ATOM     19  F   UNL     1      -4.583  10.794  16.125  0.00  0.00    +0.000 F 
ATOM     20  F   UNL     1      -2.721  11.139  15.061  0.00  0.00    +0.000 F 
ATOM     21  F   UNL     1      -3.161   9.167  15.866  0.00  0.00    +0.000 F 
ENDBRANCH   9  18
BRANCH   1  22
ATOM     22  C   UNL     1       1.619   9.995  18.420  0.00  0.00    +0.000 C 
BRANCH  22  27
ATOM     23  C   UNL     1       2.851   4.556  20.110  0.00  0.00    +0.000 C 
ATOM     24  C   UNL     1       2.471   5.931  19.648  0.00  0.00    +0.000 A 
ATOM     25  C   UNL     1       2.729   6.350  18.339  0.00  0.00    +0.000 A 
ATOM     26  C   UNL     1       2.419   7.653  17.939  0.00  0.00    +0.000 A 
ATOM     27  C   UNL     1       1.847   8.564  18.838  0.00  0.00    +0.000 A 
ATOM     28  C   UNL     1       1.560   8.132  20.141  0.00  0.00    +0.000 A 
ATOM     29  C   UNL     1       1.876   6.830  20.541  0.00  0.00    +0.000 A 
ENDBRANCH  22  27
ENDBRANCH   1  22
TORSDOF 4
ENDMDL
MODEL 7
REMARK VINA RESULT:      -7.9      5.161      8.018
REMARK  Name = 
REMARK  6 active torsions:
REMARK  status: ('A' for Active; 'I' for Inactive)
REMARK    1  A    between atoms: C_1  and  C_2
REMARK    2  A    between atoms: C_5  and  C_6
REMARK    3  A    between atoms: C_6  and  N_7
REMARK    4  A    between atoms: N_12  and  C_13
REMARK    5  A    between atoms: N_12  and  C_14
REMARK    6  A    between atoms: C_21  and  C_22
REMARK                            x       y       z     vdW  Elec       q    Type
REMARK                         _______ _______ _______ _____ _____    ______ ____
ROOT
ATOM      1  N   UNL     1       0.493  10.561  19.261  0.00  0.00    +0.000 N 
ATOM      2  C   UNL     1       0.643  11.246  20.435  0.00  0.00    +0.000 A 
ATOM      3  N   UNL     1      -0.440  11.929  20.746  0.00  0.00    +0.000 NA
ATOM      4  C   UNL     1      -1.335  11.691  19.715  0.00  0.00    +0.000 A 
ATOM      5  C   UNL     1      -2.648  12.149  19.449  0.00  0.00    +0.000 A 
ATOM      6  N   UNL     1      -3.385  13.061  20.231  0.00  0.00    +0.000 N 
ATOM      7  C   UNL     1      -2.656  14.086  20.977  0.00  0.00    +0.000 C 
ATOM      8  N   UNL     1      -3.226  11.677  18.296  0.00  0.00    +0.000 NA
ATOM      9  C   UNL     1      -2.552  10.857  17.440  0.00  0.00    +0.000 A 
ATOM     10  N   UNL     1      -1.301  10.377  17.645  0.00  0.00    +0.000 NA
ATOM     11  C   UNL     1      -0.766  10.825  18.789  0.00  0.00    +0.000 A 
ENDROOT
BRANCH   6  12
ATOM     12  C   UNL     1      -4.773  12.986  20.498  0.00  0.00    +0.000 A 
ATOM     13  C   UNL     1      -5.236  12.631  21.775  0.00  0.00    +0.000 A 
ATOM     14  C   UNL     1      -6.602  12.586  22.072  0.00  0.00    +0.000 A 
ATOM     15  C   UNL     1      -7.540  12.886  21.087  0.00  0.00    +0.000 A 
ATOM     16  C   UNL     1      -7.110  13.234  19.811  0.00  0.00    +0.000 A 
ATOM     17  C   UNL     1      -5.741  13.286  19.524  0.00  0.00    +0.000 A 
ENDBRANCH   6  12
BRANCH   9  18
ATOM     18  C   UNL     1      -3.226  10.495  16.108  0.00  0.00    +0.000 C 
ATOM     19  F   UNL     1      -3.198   9.165  15.798  0.00  0.00    +0.000 F 
ATOM     20  F   UNL     1      -4.551  10.840  16.080  0.00  0.00    +0.000 F 
ATOM     21  F   UNL     1      -2.666  11.131  15.033  0.00  0.00    +0.000 F 
ENDBRANCH   9  18
BRANCH   1  22
ATOM     22  C   UNL     1       1.551   9.881  18.535  0.00  0.00    +0.000 C 
BRANCH  22  27
ATOM     23  C   UNL     1       2.337   4.440  20.466  0.00  0.00    +0.000 C 
ATOM     24  C   UNL     1       2.198   5.858  20.002  0.00  0.00    +0.000 A 
ATOM     25  C   UNL     1       1.629   6.836  20.825  0.00  0.00    +0.000 A 
ATOM     26  C   UNL     1       1.456   8.142  20.357  0.00  0.00    +0.000 A 
ATOM     27  C   UNL     1       1.845   8.497  19.058  0.00  0.00    +0.000 A 
ATOM     28  C   UNL     1       2.443   7.524  18.245  0.00  0.00    +0.000 A 
ATOM     29  C   UNL     1       2.611   6.216  18.713  0.00  0.00    +0.000 A 
ENDBRANCH  22  27
ENDBRANCH   1  22
TORSDOF 4
ENDMDL
MODEL 8
REMARK VINA RESULT:      -7.9      5.136      9.779
REMARK  Name = 
REMARK  6 active torsions:
REMARK  status: ('A' for Active; 'I' for Inactive)
REMARK    1  A    between atoms: C_1  and  C_2
REMARK    2  A    between atoms: C_5  and  C_6
REMARK    3  A    between atoms: C_6  and  N_7
REMARK    4  A    between atoms: N_12  and  C_13
REMARK    5  A    between atoms: N_12  and  C_14
REMARK    6  A    between atoms: C_21  and  C_22
REMARK                            x       y       z     vdW  Elec       q    Type
REMARK                         _______ _______ _______ _____ _____    ______ ____
ROOT
ATOM      1  N   UNL     1      -0.474  13.717  20.611  0.00  0.00    +0.000 N 
ATOM      2  C   UNL     1       0.456  13.536  21.598  0.00  0.00    +0.000 A 
ATOM      3  N   UNL     1       0.896  12.295  21.635  0.00  0.00    +0.000 NA
ATOM      4  C   UNL     1       0.208  11.628  20.634  0.00  0.00    +0.000 A 
ATOM      5  C   UNL     1       0.211  10.285  20.188  0.00  0.00    +0.000 A 
ATOM      6  N   UNL     1       0.958   9.227  20.741  0.00  0.00    +0.000 N 
ATOM      7  C   UNL     1       1.263   9.263  22.171  0.00  0.00    +0.000 C 
ATOM      8  N   UNL     1      -0.629   9.999  19.139  0.00  0.00    +0.000 NA
ATOM      9  C   UNL     1      -1.449  10.946  18.598  0.00  0.00    +0.000 A 
ATOM     10  N   UNL     1      -1.488  12.248  18.975  0.00  0.00    +0.000 NA
ATOM     11  C   UNL     1      -0.641  12.512  19.978  0.00  0.00    +0.000 A 
ENDROOT
BRANCH   6  12
ATOM     12  C   UNL     1       1.591   8.192  20.011  0.00  0.00    +0.000 A 
ATOM     13  C   UNL     1       1.691   6.898  20.548  0.00  0.00    +0.000 A 
ATOM     14  C   UNL     1       2.280   5.852  19.830  0.00  0.00    +0.000 A 
ATOM     15  C   UNL     1       2.795   6.083  18.557  0.00  0.00    +0.000 A 
ATOM     16  C   UNL     1       2.715   7.356  18.003  0.00  0.00    +0.000 A 
ATOM     17  C   UNL     1       2.116   8.397  18.724  0.00  0.00    +0.000 A 
ENDBRANCH   6  12
BRANCH   9  18
ATOM     18  C   UNL     1      -2.455  10.501  17.525  0.00  0.00    +0.000 C 
ATOM     19  F   UNL     1      -1.889   9.975  16.398  0.00  0.00    +0.000 F 
ATOM     20  F   UNL     1      -3.312   9.534  17.979  0.00  0.00    +0.000 F 
ATOM     21  F   UNL     1      -3.259  11.518  17.090  0.00  0.00    +0.000 F 
ENDBRANCH   9  18
BRANCH   1  22
ATOM     22  C   UNL     1      -1.300  14.897  20.430  0.00  0.00    +0.000 C 
BRANCH  22  27
ATOM     23  C   UNL     1       0.988  18.630  16.585  0.00  0.00    +0.000 C 
ATOM     24  C   UNL     1       0.429  17.710  17.628  0.00  0.00    +0.000 A 
ATOM     25  C   UNL     1       1.195  16.666  18.157  0.00  0.00    +0.000 A 
ATOM     26  C   UNL     1       0.641  15.783  19.088  0.00  0.00    +0.000 A 
ATOM     27  C   UNL     1      -0.689  15.922  19.508  0.00  0.00    +0.000 A 
ATOM     28  C   UNL     1      -1.446  16.988  19.001  0.00  0.00    +0.000 A 
ATOM     29  C   UNL     1      -0.892  17.867  18.064  0.00  0.00    +0.000 A 
ENDBRANCH  22  27
ENDBRANCH   1  22
TORSDOF 4
ENDMDL
MODEL 9
REMARK VINA RESULT:      -7.9      4.670     10.780
REMARK  Name = 
REMARK  6 active torsions:
REMARK  status: ('A' for Active; 'I' for Inactive)
REMARK    1  A    between atoms: C_1  and  C_2
REMARK    2  A    between atoms: C_5  and  C_6
REMARK    3  A    between atoms: C_6  and  N_7
REMARK    4  A    between atoms: N_12  and  C_13
REMARK    5  A    between atoms: N_12  and  C_14
REMARK    6  A    between atoms: C_21  and  C_22
REMARK                            x       y       z     vdW  Elec       q    Type
REMARK                         _______ _______ _______ _____ _____    ______ ____
ROOT
ATOM      1  N   UNL     1      -1.476  13.377  21.114  0.00  0.00    +0.000 N 
ATOM      2  C   UNL     1      -0.523  13.225  22.084  0.00  0.00    +0.000 A 
ATOM      3  N   UNL     1       0.141  12.096  21.945  0.00  0.00    +0.000 NA
ATOM      4  C   UNL     1      -0.416  11.473  20.840  0.00  0.00    +0.000 A 
ATOM      5  C   UNL     1      -0.164  10.236  20.197  0.00  0.00    +0.000 A 
ATOM      6  N   UNL     1       0.771   9.264  20.603  0.00  0.00    +0.000 N 
ATOM      7  C   UNL     1       1.072   9.139  22.028  0.00  0.00    +0.000 C 
ATOM      8  N   UNL     1      -0.942   9.962  19.099  0.00  0.00    +0.000 NA
ATOM      9  C   UNL     1      -1.928  10.811  18.687  0.00  0.00    +0.000 A 
ATOM     10  N   UNL     1      -2.207  12.010  19.254  0.00  0.00    +0.000 NA
ATOM     11  C   UNL     1      -1.418  12.273  20.304  0.00  0.00    +0.000 A 
ENDROOT
BRANCH   6  12
ATOM     12  C   UNL     1       1.582   8.488  19.740  0.00  0.00    +0.000 A 
ATOM     13  C   UNL     1       2.023   7.213  20.130  0.00  0.00    +0.000 A 
ATOM     14  C   UNL     1       2.795   6.413  19.281  0.00  0.00    +0.000 A 
ATOM     15  C   UNL     1       3.154   6.881  18.019  0.00  0.00    +0.000 A 
ATOM     16  C   UNL     1       2.738   8.143  17.609  0.00  0.00    +0.000 A 
ATOM     17  C   UNL     1       1.957   8.934  18.461  0.00  0.00    +0.000 A 
ENDBRANCH   6  12
BRANCH   9  18
ATOM     18  C   UNL     1      -2.838  10.354  17.538  0.00  0.00    +0.000 C 
ATOM     19  F   UNL     1      -3.467   9.160  17.749  0.00  0.00    +0.000 F 
ATOM     20  F   UNL     1      -3.845  11.247  17.280  0.00  0.00    +0.000 F 
ATOM     21  F   UNL     1      -2.173  10.212  16.351  0.00  0.00    +0.000 F 
ENDBRANCH   9  18
BRANCH   1  22
ATOM     22  C   UNL     1      -2.509  14.397  21.094  0.00  0.00    +0.000 C 
BRANCH  22  27
ATOM     23  C   UNL     1      -7.445  12.373  23.437  0.00  0.00    +0.000 C 
ATOM     24  C   UNL     1      -6.196  12.961  22.854  0.00  0.00    +0.000 A 
ATOM     25  C   UNL     1      -6.178  13.479  21.555  0.00  0.00    +0.000 A 
ATOM     26  C   UNL     1      -4.992  13.973  21.005  0.00  0.00    +0.000 A 
ATOM     27  C   UNL     1      -3.799  13.959  21.741  0.00  0.00    +0.000 A 
ATOM     28  C   UNL     1      -3.825  13.469  23.054  0.00  0.00    +0.000 A 
ATOM     29  C   UNL     1      -5.011  12.969  23.600  0.00  0.00    +0.000 A 
ENDBRANCH  22  27
ENDBRANCH   1  22
TORSDOF 4
ENDMDL
