MODEL 1
REMARK VINA RESULT:      -5.6      0.000      0.000
REMARK  Name = 
REMARK  6 active torsions:
REMARK  status: ('A' for Active; 'I' for Inactive)
REMARK    1  A    between atoms: C_1  and  C_2
REMARK    2  A    between atoms: C_6  and  O_7
REMARK    3  A    between atoms: O_7  and  C_8
REMARK    4  A    between atoms: C_8  and  C_9
REMARK    5  A    between atoms: C_9  and  C_10
REMARK    6  A    between atoms: C_9  and  N_11
REMARK                            x       y       z     vdW  Elec       q    Type
REMARK                         _______ _______ _______ _____ _____    ______ ____
ROOT
ATOM      1  C   UNL     1       1.876   3.131  21.500  0.00  0.00    +0.000 C 
ATOM      2  C   UNL     1       2.278   3.505  20.105  0.00  0.00    +0.000 A 
ATOM      3  C   UNL     1       1.312   3.774  19.123  0.00  0.00    +0.000 A 
ATOM      4  C   UNL     1       1.705   4.127  17.830  0.00  0.00    +0.000 A 
ATOM      5  C   UNL     1       3.062   4.217  17.507  0.00  0.00    +0.000 A 
ATOM      6  C   UNL     1       4.041   3.953  18.472  0.00  0.00    +0.000 A 
ATOM      7  C   UNL     1       3.638   3.594  19.776  0.00  0.00    +0.000 A 
ENDROOT
BRANCH   6   8
ATOM      8  O   UNL     1       5.351   4.059  18.118  0.00  0.00    +0.000 OA
BRANCH   8   9
ATOM      9  C   UNL     1       5.814   4.675  16.971  0.00  0.00    +0.000 C 
BRANCH   9  10
ATOM     10  C   UNL     1       7.245   5.192  17.164  0.00  0.00    +0.000 C 
ATOM     11  C   UNL     1       7.289   6.389  18.126  0.00  0.00    +0.000 C 
BRANCH  10  12
ATOM     12  N   UNL     1       8.089   4.104  17.664  0.00  0.00    +0.000 NA
ATOM     13  H   UNL     1       7.491   3.310  17.997  0.00  0.00    +0.000 HD
ATOM     14  H   UNL     1       8.669   4.444  18.464  0.00  0.00    +0.000 HD
ENDBRANCH  10  12
ENDBRANCH   9  10
ENDBRANCH   8   9
ENDBRANCH   6   8
TORSDOF 4
ENDMDL
MODEL 2
REMARK VINA RESULT:      -5.4      1.164      1.185
REMARK  Name = 
REMARK  6 active torsions:
REMARK  status: ('A' for Active; 'I' for Inactive)
REMARK    1  A    between atoms: C_1  and  C_2
REMARK    2  A    between atoms: C_6  and  O_7
REMARK    3  A    between atoms: O_7  and  C_8
REMARK    4  A    between atoms: C_8  and  C_9
REMARK    5  A    between atoms: C_9  and  C_10
REMARK    6  A    between atoms: C_9  and  N_11
REMARK                            x       y       z     vdW  Elec       q    Type
REMARK                         _______ _______ _______ _____ _____    ______ ____
ROOT
ATOM      1  C   UNL     1       1.655   2.759  21.584  0.00  0.00    +0.000 C 
ATOM      2  C   UNL     1       2.233   2.952  20.213  0.00  0.00    +0.000 A 
ATOM      3  C   UNL     1       1.868   2.109  19.152  0.00  0.00    +0.000 A 
ATOM      4  C   UNL     1       2.412   2.307  17.880  0.00  0.00    +0.000 A 
ATOM      5  C   UNL     1       3.320   3.347  17.658  0.00  0.00    +0.000 A 
ATOM      6  C   UNL     1       3.696   4.198  18.703  0.00  0.00    +0.000 A 
ATOM      7  C   UNL     1       3.146   3.991  19.986  0.00  0.00    +0.000 A 
ENDROOT
BRANCH   6   8
ATOM      8  O   UNL     1       4.577   5.202  18.442  0.00  0.00    +0.000 OA
BRANCH   8   9
ATOM      9  C   UNL     1       5.834   5.320  19.005  0.00  0.00    +0.000 C 
BRANCH   9  10
ATOM     10  C   UNL     1       6.906   5.507  17.923  0.00  0.00    +0.000 C 
ATOM     11  C   UNL     1       7.760   6.757  18.184  0.00  0.00    +0.000 C 
BRANCH  10  12
ATOM     12  N   UNL     1       7.751   4.313  17.870  0.00  0.00    +0.000 NA
ATOM     13  H   UNL     1       7.902   4.022  16.874  0.00  0.00    +0.000 HD
ATOM     14  H   UNL     1       7.288   3.526  18.380  0.00  0.00    +0.000 HD
ENDBRANCH  10  12
ENDBRANCH   9  10
ENDBRANCH   8   9
ENDBRANCH   6   8
TORSDOF 4
ENDMDL
MODEL 3
REMARK VINA RESULT:      -5.4      1.285      1.367
REMARK  Name = 
REMARK  6 active torsions:
REMARK  status: ('A' for Active; 'I' for Inactive)
REMARK    1  A    between atoms: C_1  and  C_2
REMARK    2  A    between atoms: C_6  and  O_7
REMARK    3  A    between atoms: O_7  and  C_8
REMARK    4  A    between atoms: C_8  and  C_9
REMARK    5  A    between atoms: C_9  and  C_10
REMARK    6  A    between atoms: C_9  and  N_11
REMARK                            x       y       z     vdW  Elec       q    Type
REMARK                         _______ _______ _______ _____ _____    ______ ____
ROOT
ATOM      1  C   UNL     1       1.479   2.677  21.348  0.00  0.00    +0.000 C 
ATOM      2  C   UNL     1       2.174   3.805  20.646  0.00  0.00    +0.000 A 
ATOM      3  C   UNL     1       1.585   5.077  20.565  0.00  0.00    +0.000 A 
ATOM      4  C   UNL     1       2.250   6.117  19.912  0.00  0.00    +0.000 A 
ATOM      5  C   UNL     1       3.506   5.899  19.339  0.00  0.00    +0.000 A 
ATOM      6  C   UNL     1       4.111   4.639  19.410  0.00  0.00    +0.000 A 
ATOM      7  C   UNL     1       3.433   3.591  20.068  0.00  0.00    +0.000 A 
ENDROOT
BRANCH   6   8
ATOM      8  O   UNL     1       5.338   4.471  18.845  0.00  0.00    +0.000 OA
BRANCH   8   9
ATOM      9  C   UNL     1       5.585   4.421  17.486  0.00  0.00    +0.000 C 
BRANCH   9  10
ATOM     10  C   UNL     1       6.916   5.102  17.143  0.00  0.00    +0.000 C 
ATOM     11  C   UNL     1       7.139   6.365  17.988  0.00  0.00    +0.000 C 
BRANCH  10  12
ATOM     12  N   UNL     1       8.011   4.152  17.346  0.00  0.00    +0.000 NA
ATOM     13  H   UNL     1       8.788   4.607  17.884  0.00  0.00    +0.000 HD
ATOM     14  H   UNL     1       8.384   3.837  16.422  0.00  0.00    +0.000 HD
ENDBRANCH  10  12
ENDBRANCH   9  10
ENDBRANCH   8   9
ENDBRANCH   6   8
TORSDOF 4
ENDMDL
MODEL 4
REMARK VINA RESULT:      -5.4      0.958      1.183
REMARK  Name = 
REMARK  6 active torsions:
REMARK  status: ('A' for Active; 'I' for Inactive)
REMARK    1  A    between atoms: C_1  and  C_2
REMARK    2  A    between atoms: C_6  and  O_7
REMARK    3  A    between atoms: O_7  and  C_8
REMARK    4  A    between atoms: C_8  and  C_9
REMARK    5  A    between atoms: C_9  and  C_10
REMARK    6  A    between atoms: C_9  and  N_11
REMARK                            x       y       z     vdW  Elec       q    Type
REMARK                         _______ _______ _______ _____ _____    ______ ____
ROOT
ATOM      1  C   UNL     1       1.601   2.670  21.376  0.00  0.00    +0.000 C 
ATOM      2  C   UNL     1       2.002   3.390  20.122  0.00  0.00    +0.000 A 
ATOM      3  C   UNL     1       1.143   3.440  19.013  0.00  0.00    +0.000 A 
ATOM      4  C   UNL     1       1.530   4.119  17.856  0.00  0.00    +0.000 A 
ATOM      5  C   UNL     1       2.774   4.755  17.797  0.00  0.00    +0.000 A 
ATOM      6  C   UNL     1       3.645   4.717  18.892  0.00  0.00    +0.000 A 
ATOM      7  C   UNL     1       3.249   4.026  20.057  0.00  0.00    +0.000 A 
ENDROOT
BRANCH   6   8
ATOM      8  O   UNL     1       4.843   5.355  18.795  0.00  0.00    +0.000 OA
BRANCH   8   9
ATOM      9  C   UNL     1       5.486   5.658  17.610  0.00  0.00    +0.000 C 
BRANCH   9  10
ATOM     10  C   UNL     1       6.386   4.499  17.161  0.00  0.00    +0.000 C 
ATOM     11  C   UNL     1       6.900   4.705  15.728  0.00  0.00    +0.000 C 
BRANCH  10  12
ATOM     12  N   UNL     1       7.508   4.371  18.093  0.00  0.00    +0.000 NA
ATOM     13  H   UNL     1       7.867   5.321  18.357  0.00  0.00    +0.000 HD
ATOM     14  H   UNL     1       8.284   3.835  17.643  0.00  0.00    +0.000 HD
ENDBRANCH  10  12
ENDBRANCH   9  10
ENDBRANCH   8   9
ENDBRANCH   6   8
TORSDOF 4
ENDMDL
MODEL 5
REMARK VINA RESULT:      -5.3      1.187      1.403
REMARK  Name = 
REMARK  6 active torsions:
REMARK  status: ('A' for Active; 'I' for Inactive)
REMARK    1  A    between atoms: C_1  and  C_2
REMARK    2  A    between atoms: C_6  and  O_7
REMARK    3  A    between atoms: O_7  and  C_8
REMARK    4  A    between atoms: C_8  and  C_9
REMARK    5  A    between atoms: C_9  and  C_10
REMARK    6  A    between atoms: C_9  and  N_11
REMARK                            x       y       z     vdW  Elec       q    Type
REMARK                         _______ _______ _______ _____ _____    ______ ____
ROOT
ATOM      1  C   UNL     1       1.240   3.115  21.061  0.00  0.00    +0.000 C 
ATOM      2  C   UNL     1       2.076   3.396  19.847  0.00  0.00    +0.000 A 
ATOM      3  C   UNL     1       1.494   3.472  18.573  0.00  0.00    +0.000 A 
ATOM      4  C   UNL     1       2.286   3.739  17.454  0.00  0.00    +0.000 A 
ATOM      5  C   UNL     1       3.663   3.936  17.599  0.00  0.00    +0.000 A 
ATOM      6  C   UNL     1       4.263   3.864  18.862  0.00  0.00    +0.000 A 
ATOM      7  C   UNL     1       3.457   3.591  19.987  0.00  0.00    +0.000 A 
ENDROOT
BRANCH   6   8
ATOM      8  O   UNL     1       5.605   4.069  18.959  0.00  0.00    +0.000 OA
BRANCH   8   9
ATOM      9  C   UNL     1       6.201   5.276  19.275  0.00  0.00    +0.000 C 
BRANCH   9  10
ATOM     10  C   UNL     1       7.373   5.574  18.330  0.00  0.00    +0.000 C 
ATOM     11  C   UNL     1       7.494   4.511  17.227  0.00  0.00    +0.000 C 
BRANCH  10  12
ATOM     12  N   UNL     1       7.192   6.902  17.742  0.00  0.00    +0.000 NA
ATOM     13  H   UNL     1       7.522   6.904  16.747  0.00  0.00    +0.000 HD
ATOM     14  H   UNL     1       7.747   7.607  18.279  0.00  0.00    +0.000 HD
ENDBRANCH  10  12
ENDBRANCH   9  10
ENDBRANCH   8   9
ENDBRANCH   6   8
TORSDOF 4
ENDMDL
MODEL 6
REMARK VINA RESULT:      -5.3      1.489      2.178
REMARK  Name = 
REMARK  6 active torsions:
REMARK  status: ('A' for Active; 'I' for Inactive)
REMARK    1  A    between atoms: C_1  and  C_2
REMARK    2  A    between atoms: C_6  and  O_7
REMARK    3  A    between atoms: O_7  and  C_8
REMARK    4  A    between atoms: C_8  and  C_9
REMARK    5  A    between atoms: C_9  and  C_10
REMARK    6  A    between atoms: C_9  and  N_11
REMARK                            x       y       z     vdW  Elec       q    Type
REMARK                         _______ _______ _______ _____ _____    ______ ____
ROOT
ATOM      1  C   UNL     1       0.786   2.451  18.749  0.00  0.00    +0.000 C 
ATOM      2  C   UNL     1       1.652   3.672  18.851  0.00  0.00    +0.000 A 
ATOM      3  C   UNL     1       1.572   4.521  19.966  0.00  0.00    +0.000 A 
ATOM      4  C   UNL     1       2.391   5.650  20.047  0.00  0.00    +0.000 A 
ATOM      5  C   UNL     1       3.296   5.938  19.021  0.00  0.00    +0.000 A 
ATOM      6  C   UNL     1       3.390   5.103  17.902  0.00  0.00    +0.000 A 
ATOM      7  C   UNL     1       2.559   3.966  17.824  0.00  0.00    +0.000 A 
ENDROOT
BRANCH   6   8
ATOM      8  O   UNL     1       4.289   5.416  16.929  0.00  0.00    +0.000 OA
BRANCH   8   9
ATOM      9  C   UNL     1       5.659   5.479  17.106  0.00  0.00    +0.000 C 
BRANCH   9  10
ATOM     10  C   UNL     1       6.340   4.208  16.581  0.00  0.00    +0.000 C 
ATOM     11  C   UNL     1       6.120   4.032  15.071  0.00  0.00    +0.000 C 
BRANCH  10  12
ATOM     12  N   UNL     1       7.771   4.268  16.885  0.00  0.00    +0.000 NA
ATOM     13  H   UNL     1       7.925   4.162  17.917  0.00  0.00    +0.000 HD
ATOM     14  H   UNL     1       8.161   5.189  16.583  0.00  0.00    +0.000 HD
ENDBRANCH  10  12
ENDBRANCH   9  10
ENDBRANCH   8   9
ENDBRANCH   6   8
TORSDOF 4
ENDMDL
MODEL 7
REMARK VINA RESULT:      -5.3      2.482      5.381
REMARK  Name = 
REMARK  6 active torsions:
REMARK  status: ('A' for Active; 'I' for Inactive)
REMARK    1  A    between atoms: C_1  and  C_2
REMARK    2  A    between atoms: C_6  and  O_7
REMARK    3  A    between atoms: O_7  and  C_8
REMARK    4  A    between atoms: C_8  and  C_9
REMARK    5  A    between atoms: C_9  and  C_10
REMARK    6  A    between atoms: C_9  and  N_11
REMARK                            x       y       z     vdW  Elec       q    Type
REMARK                         _______ _______ _______ _____ _____    ______ ____
ROOT
ATOM      1  C   UNL     1       6.117   4.014  14.456  0.00  0.00    +0.000 C 
ATOM      2  C   UNL     1       5.968   4.207  15.936  0.00  0.00    +0.000 A 
ATOM      3  C   UNL     1       7.029   4.703  16.709  0.00  0.00    +0.000 A 
ATOM      4  C   UNL     1       6.872   4.882  18.085  0.00  0.00    +0.000 A 
ATOM      5  C   UNL     1       5.654   4.572  18.699  0.00  0.00    +0.000 A 
ATOM      6  C   UNL     1       4.583   4.077  17.946  0.00  0.00    +0.000 A 
ATOM      7  C   UNL     1       4.751   3.895  16.556  0.00  0.00    +0.000 A 
ENDROOT
BRANCH   6   8
ATOM      8  O   UNL     1       3.414   3.795  18.582  0.00  0.00    +0.000 OA
BRANCH   8   9
ATOM      9  C   UNL     1       3.286   2.945  19.665  0.00  0.00    +0.000 C 
BRANCH   9  10
ATOM     10  C   UNL     1       2.501   3.615  20.800  0.00  0.00    +0.000 C 
ATOM     11  C   UNL     1       1.068   3.962  20.369  0.00  0.00    +0.000 C 
BRANCH  10  12
ATOM     12  N   UNL     1       2.484   2.727  21.964  0.00  0.00    +0.000 NA
ATOM     13  H   UNL     1       2.407   1.728  21.654  0.00  0.00    +0.000 HD
ATOM     14  H   UNL     1       1.662   2.952  22.570  0.00  0.00    +0.000 HD
ENDBRANCH  10  12
ENDBRANCH   9  10
ENDBRANCH   8   9
ENDBRANCH   6   8
TORSDOF 4
ENDMDL
MODEL 8
REMARK VINA RESULT:      -5.3      3.827      4.394
REMARK  Name = 
REMARK  6 active torsions:
REMARK  status: ('A' for Active; 'I' for Inactive)
REMARK    1  A    between atoms: C_1  and  C_2
REMARK    2  A    between atoms: C_6  and  O_7
REMARK    3  A    between atoms: O_7  and  C_8
REMARK    4  A    between atoms: C_8  and  C_9
REMARK    5  A    between atoms: C_9  and  C_10
REMARK    6  A    between atoms: C_9  and  N_11
REMARK                            x       y       z     vdW  Elec       q    Type
REMARK                         _______ _______ _______ _____ _____    ______ ____
ROOT
ATOM      1  C   UNL     1       1.533   2.805  21.576  0.00  0.00    +0.000 C 
ATOM      2  C   UNL     1       1.694   3.627  20.331  0.00  0.00    +0.000 A 
ATOM      3  C   UNL     1       1.531   3.053  19.061  0.00  0.00    +0.000 A 
ATOM      4  C   UNL     1       1.679   3.835  17.913  0.00  0.00    +0.000 A 
ATOM      5  C   UNL     1       1.987   5.195  18.024  0.00  0.00    +0.000 A 
ATOM      6  C   UNL     1       2.152   5.786  19.282  0.00  0.00    +0.000 A 
ATOM      7  C   UNL     1       2.005   4.990  20.437  0.00  0.00    +0.000 A 
ENDROOT
BRANCH   6   8
ATOM      8  O   UNL     1       2.444   7.114  19.344  0.00  0.00    +0.000 OA
BRANCH   8   9
ATOM      9  C   UNL     1       2.600   7.944  18.250  0.00  0.00    +0.000 C 
BRANCH   9  10
ATOM     10  C   UNL     1       1.503   9.015  18.211  0.00  0.00    +0.000 C 
ATOM     11  C   UNL     1       1.011   9.372  19.622  0.00  0.00    +0.000 C 
BRANCH  10  12
ATOM     12  N   UNL     1       2.016  10.207  17.532  0.00  0.00    +0.000 NA
ATOM     13  H   UNL     1       3.001  10.043  17.213  0.00  0.00    +0.000 HD
ATOM     14  H   UNL     1       2.010  11.020  18.189  0.00  0.00    +0.000 HD
ENDBRANCH  10  12
ENDBRANCH   9  10
ENDBRANCH   8   9
ENDBRANCH   6   8
TORSDOF 4
ENDMDL
MODEL 9
REMARK VINA RESULT:      -5.3      1.108      1.312
REMARK  Name = 
REMARK  6 active torsions:
REMARK  status: ('A' for Active; 'I' for Inactive)
REMARK    1  A    between atoms: C_1  and  C_2
REMARK    2  A    between atoms: C_6  and  O_7
REMARK    3  A    between atoms: O_7  and  C_8
REMARK    4  A    between atoms: C_8  and  C_9
REMARK    5  A    between atoms: C_9  and  C_10
REMARK    6  A    between atoms: C_9  and  N_11
REMARK                            x       y       z     vdW  Elec       q    Type
REMARK                         _______ _______ _______ _____ _____    ______ ____
ROOT
ATOM      1  C   UNL     1       1.742   2.939  21.586  0.00  0.00    +0.000 C 
ATOM      2  C   UNL     1       2.220   3.048  20.168  0.00  0.00    +0.000 A 
ATOM      3  C   UNL     1       1.741   2.178  19.177  0.00  0.00    +0.000 A 
ATOM      4  C   UNL     1       2.193   2.298  17.860  0.00  0.00    +0.000 A 
ATOM      5  C   UNL     1       3.122   3.287  17.523  0.00  0.00    +0.000 A 
ATOM      6  C   UNL     1       3.612   4.164  18.497  0.00  0.00    +0.000 A 
ATOM      7  C   UNL     1       3.154   4.036  19.826  0.00  0.00    +0.000 A 
ENDROOT
BRANCH   6   8
ATOM      8  O   UNL     1       4.510   5.117  18.125  0.00  0.00    +0.000 OA
BRANCH   8   9
ATOM      9  C   UNL     1       5.881   5.009  18.259  0.00  0.00    +0.000 C 
BRANCH   9  10
ATOM     10  C   UNL     1       6.515   4.435  16.985  0.00  0.00    +0.000 C 
ATOM     11  C   UNL     1       6.294   5.359  15.778  0.00  0.00    +0.000 C 
BRANCH  10  12
ATOM     12  N   UNL     1       7.947   4.225  17.212  0.00  0.00    +0.000 NA
ATOM     13  H   UNL     1       8.221   4.593  18.154  0.00  0.00    +0.000 HD
ATOM     14  H   UNL     1       8.500   4.730  16.482  0.00  0.00    +0.000 HD
ENDBRANCH  10  12
ENDBRANCH   9  10
ENDBRANCH   8   9
ENDBRANCH   6   8
TORSDOF 4
ENDMDL
