MODEL 1
REMARK VINA RESULT:      -7.7      0.000      0.000
REMARK  Name = 
REMARK  17 active torsions:
REMARK  status: ('A' for Active; 'I' for Inactive)
REMARK    1  A    between atoms: C_1  and  C_2
REMARK    2  A    between atoms: C_2  and  C_3
REMARK    3  A    between atoms: C_2  and  C_4
REMARK    4  A    between atoms: C_2  and  N_5
REMARK    5  A    between atoms: N_5  and  C_6
REMARK    6  A    between atoms: C_6  and  C_7
REMARK    7  A    between atoms: N_15  and  C_16
REMARK    8  A    between atoms: C_16  and  C_17
REMARK    9  A    between atoms: C_17  and  O_18
REMARK   10  A    between atoms: C_17  and  C_19
REMARK   11  A    between atoms: C_19  and  N_20
REMARK   12  A    between atoms: N_23  and  C_24
REMARK   13  A    between atoms: N_23  and  C_31
REMARK   14  A    between atoms: C_24  and  C_25
REMARK   15  A    between atoms: C_31  and  C_32
REMARK   16  A    between atoms: C_31  and  C_33
REMARK   17  A    between atoms: C_31  and  C_34
REMARK                            x       y       z     vdW  Elec       q    Type
REMARK                         _______ _______ _______ _____ _____    ______ ____
ROOT
ATOM      1  C   UNL     1       1.296   8.879  20.590  0.00  0.00    +0.000 C 
ENDROOT
BRANCH   1   2
ATOM      2  O   UNL     1       1.376   9.067  19.171  0.00  0.00    +0.000 OA
ATOM      3  H   UNL     1       0.468   9.193  18.840  0.00  0.00    +0.000 HD
ENDBRANCH   1   2
BRANCH   1   4
ATOM      4  C   UNL     1       1.595   7.414  20.931  0.00  0.00    +0.000 C 
BRANCH   4   8
ATOM      5  N   UNL     1       2.982   4.575  19.020  0.00  0.00    +0.000 N 
ATOM      6  C   UNL     1       2.369   5.317  20.029  0.00  0.00    +0.000 C 
ATOM      7  O   UNL     1       1.850   4.824  21.028  0.00  0.00    +0.000 OA
ATOM      8  N   UNL     1       2.348   6.692  19.905  0.00  0.00    +0.000 N 
ATOM      9  H   UNL     1       2.284   7.086  18.982  0.00  0.00    +0.000 HD
BRANCH   5  11
ATOM     10  C   UNL     1       1.505   2.497  19.135  0.00  0.00    +0.000 C 
ATOM     11  C   UNL     1       2.947   3.040  19.047  0.00  0.00    +0.000 C 
ATOM     12  C   UNL     1       3.742   2.496  20.260  0.00  0.00    +0.000 C 
ATOM     13  C   UNL     1       3.575   2.339  17.812  0.00  0.00    +0.000 C 
ENDBRANCH   5  11
BRANCH   5  14
ATOM     14  C   UNL     1       3.691   5.231  17.898  0.00  0.00    +0.000 C 
BRANCH  14  15
ATOM     15  C   UNL     1       5.104   5.730  18.141  0.00  0.00    +0.000 A 
ATOM     16  C   UNL     1       5.941   5.236  19.146  0.00  0.00    +0.000 A 
ATOM     17  C   UNL     1       7.278   5.640  19.228  0.00  0.00    +0.000 A 
ATOM     18  C   UNL     1       7.786   6.579  18.334  0.00  0.00    +0.000 A 
ATOM     19  C   UNL     1       6.954   7.129  17.365  0.00  0.00    +0.000 A 
ATOM     20  C   UNL     1       5.625   6.706  17.267  0.00  0.00    +0.000 A 
ENDBRANCH  14  15
ENDBRANCH   5  14
ENDBRANCH   4   8
ENDBRANCH   1   4
BRANCH   1  21
ATOM     21  C   UNL     1      -0.105   9.286  21.107  0.00  0.00    +0.000 C 
BRANCH  21  22
ATOM     22  N   UNL     1      -0.216  10.722  21.265  0.00  0.00    +0.000 N 
ATOM     23  C   UNL     1      -0.795  11.349  22.333  0.00  0.00    +0.000 C 
ATOM     24  O   UNL     1      -1.256  10.700  23.267  0.00  0.00    +0.000 OA
ATOM     25  N   UNL     1      -0.796  12.758  22.288  0.00  0.00    +0.000 N 
ATOM     26  H   UNL     1      -0.189  11.230  20.407  0.00  0.00    +0.000 HD
BRANCH  25  27
ATOM     27  C   UNL     1      -0.269  13.617  21.151  0.00  0.00    +0.000 C 
ATOM     28  C   UNL     1      -1.055  13.317  19.849  0.00  0.00    +0.000 C 
ATOM     29  C   UNL     1      -0.441  15.144  21.379  0.00  0.00    +0.000 C 
ATOM     30  C   UNL     1       1.258  13.439  20.955  0.00  0.00    +0.000 C 
ENDBRANCH  25  27
BRANCH  25  31
ATOM     31  C   UNL     1      -1.528  13.410  23.396  0.00  0.00    +0.000 C 
BRANCH  31  32
ATOM     32  C   UNL     1      -3.046  13.349  23.350  0.00  0.00    +0.000 A 
ATOM     33  C   UNL     1      -3.727  13.685  22.165  0.00  0.00    +0.000 A 
ATOM     34  C   UNL     1      -5.102  13.473  22.042  0.00  0.00    +0.000 A 
ATOM     35  C   UNL     1      -5.831  12.932  23.092  0.00  0.00    +0.000 A 
ATOM     36  C   UNL     1      -5.177  12.609  24.275  0.00  0.00    +0.000 A 
ATOM     37  C   UNL     1      -3.799  12.812  24.406  0.00  0.00    +0.000 A 
ENDBRANCH  31  32
ENDBRANCH  25  31
ENDBRANCH  21  22
ENDBRANCH   1  21
TORSDOF 11
ENDMDL
MODEL 2
REMARK VINA RESULT:      -7.7      1.090      1.425
REMARK  Name = 
REMARK  17 active torsions:
REMARK  status: ('A' for Active; 'I' for Inactive)
REMARK    1  A    between atoms: C_1  and  C_2
REMARK    2  A    between atoms: C_2  and  C_3
REMARK    3  A    between atoms: C_2  and  C_4
REMARK    4  A    between atoms: C_2  and  N_5
REMARK    5  A    between atoms: N_5  and  C_6
REMARK    6  A    between atoms: C_6  and  C_7
REMARK    7  A    between atoms: N_15  and  C_16
REMARK    8  A    between atoms: C_16  and  C_17
REMARK    9  A    between atoms: C_17  and  O_18
REMARK   10  A    between atoms: C_17  and  C_19
REMARK   11  A    between atoms: C_19  and  N_20
REMARK   12  A    between atoms: N_23  and  C_24
REMARK   13  A    between atoms: N_23  and  C_31
REMARK   14  A    between atoms: C_24  and  C_25
REMARK   15  A    between atoms: C_31  and  C_32
REMARK   16  A    between atoms: C_31  and  C_33
REMARK   17  A    between atoms: C_31  and  C_34
REMARK                            x       y       z     vdW  Elec       q    Type
REMARK                         _______ _______ _______ _____ _____    ______ ____
ROOT
ATOM      1  C   UNL     1       1.207   8.942  20.506  0.00  0.00    +0.000 C 
ENDROOT
BRANCH   1   2
ATOM      2  O   UNL     1       1.170   9.006  19.074  0.00  0.00    +0.000 OA
ATOM      3  H   UNL     1       1.394   9.918  18.815  0.00  0.00    +0.000 HD
ENDBRANCH   1   2
BRANCH   1   4
ATOM      4  C   UNL     1       1.751   7.576  20.944  0.00  0.00    +0.000 C 
BRANCH   4   8
ATOM      5  N   UNL     1       2.640   4.591  18.960  0.00  0.00    +0.000 N 
ATOM      6  C   UNL     1       2.214   5.402  20.011  0.00  0.00    +0.000 C 
ATOM      7  O   UNL     1       1.756   4.975  21.069  0.00  0.00    +0.000 OA
ATOM      8  N   UNL     1       2.317   6.771  19.861  0.00  0.00    +0.000 N 
ATOM      9  H   UNL     1       2.195   7.159  18.941  0.00  0.00    +0.000 HD
BRANCH   5  11
ATOM     10  C   UNL     1       3.551   2.389  19.872  0.00  0.00    +0.000 C 
ATOM     11  C   UNL     1       2.456   3.068  19.023  0.00  0.00    +0.000 C 
ATOM     12  C   UNL     1       2.497   2.452  17.603  0.00  0.00    +0.000 C 
ATOM     13  C   UNL     1       1.110   2.586  19.628  0.00  0.00    +0.000 C 
ENDBRANCH   5  11
BRANCH   5  14
ATOM     14  C   UNL     1       3.290   5.160  17.757  0.00  0.00    +0.000 C 
BRANCH  14  15
ATOM     15  C   UNL     1       4.803   5.093  17.663  0.00  0.00    +0.000 A 
ATOM     16  C   UNL     1       5.663   5.422  18.717  0.00  0.00    +0.000 A 
ATOM     17  C   UNL     1       7.041   5.206  18.611  0.00  0.00    +0.000 A 
ATOM     18  C   UNL     1       7.587   4.700  17.434  0.00  0.00    +0.000 A 
ATOM     19  C   UNL     1       6.756   4.422  16.353  0.00  0.00    +0.000 A 
ATOM     20  C   UNL     1       5.376   4.614  16.468  0.00  0.00    +0.000 A 
ENDBRANCH  14  15
ENDBRANCH   5  14
ENDBRANCH   4   8
ENDBRANCH   1   4
BRANCH   1  21
ATOM     21  C   UNL     1      -0.205   9.182  21.092  0.00  0.00    +0.000 C 
BRANCH  21  22
ATOM     22  N   UNL     1      -0.540  10.591  21.108  0.00  0.00    +0.000 N 
ATOM     23  C   UNL     1      -0.687  11.347  22.238  0.00  0.00    +0.000 C 
ATOM     24  O   UNL     1      -0.517  10.853  23.349  0.00  0.00    +0.000 OA
ATOM     25  N   UNL     1      -1.014  12.702  22.028  0.00  0.00    +0.000 N 
ATOM     26  H   UNL     1      -1.019  10.906  20.292  0.00  0.00    +0.000 HD
BRANCH  25  27
ATOM     27  C   UNL     1      -1.265  13.364  20.685  0.00  0.00    +0.000 C 
ATOM     28  C   UNL     1      -2.596  12.850  20.078  0.00  0.00    +0.000 C 
ATOM     29  C   UNL     1      -1.431  14.907  20.761  0.00  0.00    +0.000 C 
ATOM     30  C   UNL     1      -0.075  13.165  19.713  0.00  0.00    +0.000 C 
ENDBRANCH  25  27
BRANCH  25  31
ATOM     31  C   UNL     1      -1.281  13.469  23.265  0.00  0.00    +0.000 C 
BRANCH  31  32
ATOM     32  C   UNL     1      -2.736  13.731  23.615  0.00  0.00    +0.000 A 
ATOM     33  C   UNL     1      -3.189  15.050  23.799  0.00  0.00    +0.000 A 
ATOM     34  C   UNL     1      -4.549  15.328  23.950  0.00  0.00    +0.000 A 
ATOM     35  C   UNL     1      -5.488  14.305  23.927  0.00  0.00    +0.000 A 
ATOM     36  C   UNL     1      -5.057  12.995  23.761  0.00  0.00    +0.000 A 
ATOM     37  C   UNL     1      -3.696  12.706  23.604  0.00  0.00    +0.000 A 
ENDBRANCH  31  32
ENDBRANCH  25  31
ENDBRANCH  21  22
ENDBRANCH   1  21
TORSDOF 11
ENDMDL
MODEL 3
REMARK VINA RESULT:      -7.6      1.429      1.988
REMARK  Name = 
REMARK  17 active torsions:
REMARK  status: ('A' for Active; 'I' for Inactive)
REMARK    1  A    between atoms: C_1  and  C_2
REMARK    2  A    between atoms: C_2  and  C_3
REMARK    3  A    between atoms: C_2  and  C_4
REMARK    4  A    between atoms: C_2  and  N_5
REMARK    5  A    between atoms: N_5  and  C_6
REMARK    6  A    between atoms: C_6  and  C_7
REMARK    7  A    between atoms: N_15  and  C_16
REMARK    8  A    between atoms: C_16  and  C_17
REMARK    9  A    between atoms: C_17  and  O_18
REMARK   10  A    between atoms: C_17  and  C_19
REMARK   11  A    between atoms: C_19  and  N_20
REMARK   12  A    between atoms: N_23  and  C_24
REMARK   13  A    between atoms: N_23  and  C_31
REMARK   14  A    between atoms: C_24  and  C_25
REMARK   15  A    between atoms: C_31  and  C_32
REMARK   16  A    between atoms: C_31  and  C_33
REMARK   17  A    between atoms: C_31  and  C_34
REMARK                            x       y       z     vdW  Elec       q    Type
REMARK                         _______ _______ _______ _____ _____    ______ ____
ROOT
ATOM      1  C   UNL     1       1.150   8.038  21.579  0.00  0.00    +0.000 C 
ENDROOT
BRANCH   1   2
ATOM      2  O   UNL     1       1.972   8.986  22.273  0.00  0.00    +0.000 OA
ATOM      3  H   UNL     1       1.380   9.618  22.719  0.00  0.00    +0.000 HD
ENDBRANCH   1   2
BRANCH   1   4
ATOM      4  C   UNL     1       1.609   7.934  20.120  0.00  0.00    +0.000 C 
BRANCH   4   8
ATOM      5  N   UNL     1       3.352   4.690  19.842  0.00  0.00    +0.000 N 
ATOM      6  C   UNL     1       2.392   5.654  20.148  0.00  0.00    +0.000 C 
ATOM      7  O   UNL     1       1.294   5.401  20.639  0.00  0.00    +0.000 OA
ATOM      8  N   UNL     1       2.691   6.976  19.889  0.00  0.00    +0.000 N 
ATOM      9  H   UNL     1       3.275   7.187  19.097  0.00  0.00    +0.000 HD
BRANCH   5  11
ATOM     10  C   UNL     1       2.095   2.677  18.906  0.00  0.00    +0.000 C 
ATOM     11  C   UNL     1       3.040   3.195  20.009  0.00  0.00    +0.000 C 
ATOM     12  C   UNL     1       2.375   2.925  21.381  0.00  0.00    +0.000 C 
ATOM     13  C   UNL     1       4.273   2.251  19.972  0.00  0.00    +0.000 C 
ENDBRANCH   5  11
BRANCH   5  14
ATOM     14  C   UNL     1       4.700   5.065  19.359  0.00  0.00    +0.000 C 
BRANCH  14  15
ATOM     15  C   UNL     1       4.904   5.224  17.863  0.00  0.00    +0.000 A 
ATOM     16  C   UNL     1       4.834   6.452  17.196  0.00  0.00    +0.000 A 
ATOM     17  C   UNL     1       5.170   6.550  15.841  0.00  0.00    +0.000 A 
ATOM     18  C   UNL     1       5.535   5.415  15.121  0.00  0.00    +0.000 A 
ATOM     19  C   UNL     1       5.553   4.176  15.752  0.00  0.00    +0.000 A 
ATOM     20  C   UNL     1       5.242   4.081  17.112  0.00  0.00    +0.000 A 
ENDBRANCH  14  15
ENDBRANCH   5  14
ENDBRANCH   4   8
ENDBRANCH   1   4
BRANCH   1  21
ATOM     21  C   UNL     1      -0.337   8.460  21.656  0.00  0.00    +0.000 C 
BRANCH  21  22
ATOM     22  N   UNL     1      -0.507   9.864  21.340  0.00  0.00    +0.000 N 
ATOM     23  C   UNL     1      -0.659  10.860  22.264  0.00  0.00    +0.000 C 
ATOM     24  O   UNL     1      -0.639  10.611  23.465  0.00  0.00    +0.000 OA
ATOM     25  N   UNL     1      -0.809  12.161  21.740  0.00  0.00    +0.000 N 
ATOM     26  H   UNL     1      -0.879  10.035  20.430  0.00  0.00    +0.000 HD
BRANCH  25  27
ATOM     27  C   UNL     1      -0.871  12.531  20.269  0.00  0.00    +0.000 C 
ATOM     28  C   UNL     1      -2.289  12.251  19.709  0.00  0.00    +0.000 C 
ATOM     29  C   UNL     1      -0.619  14.038  19.985  0.00  0.00    +0.000 C 
ATOM     30  C   UNL     1       0.225  11.808  19.446  0.00  0.00    +0.000 C 
ENDBRANCH  25  27
BRANCH  25  31
ATOM     31  C   UNL     1      -1.086  13.204  22.753  0.00  0.00    +0.000 C 
BRANCH  31  32
ATOM     32  C   UNL     1      -2.543  13.561  22.995  0.00  0.00    +0.000 A 
ATOM     33  C   UNL     1      -3.368  12.689  23.727  0.00  0.00    +0.000 A 
ATOM     34  C   UNL     1      -4.656  13.070  24.110  0.00  0.00    +0.000 A 
ATOM     35  C   UNL     1      -5.155  14.320  23.768  0.00  0.00    +0.000 A 
ATOM     36  C   UNL     1      -4.359  15.188  23.032  0.00  0.00    +0.000 A 
ATOM     37  C   UNL     1      -3.065  14.817  22.648  0.00  0.00    +0.000 A 
ENDBRANCH  31  32
ENDBRANCH  25  31
ENDBRANCH  21  22
ENDBRANCH   1  21
TORSDOF 11
ENDMDL
MODEL 4
REMARK VINA RESULT:      -7.6      1.173      1.916
REMARK  Name = 
REMARK  17 active torsions:
REMARK  status: ('A' for Active; 'I' for Inactive)
REMARK    1  A    between atoms: C_1  and  C_2
REMARK    2  A    between atoms: C_2  and  C_3
REMARK    3  A    between atoms: C_2  and  C_4
REMARK    4  A    between atoms: C_2  and  N_5
REMARK    5  A    between atoms: N_5  and  C_6
REMARK    6  A    between atoms: C_6  and  C_7
REMARK    7  A    between atoms: N_15  and  C_16
REMARK    8  A    between atoms: C_16  and  C_17
REMARK    9  A    between atoms: C_17  and  O_18
REMARK   10  A    between atoms: C_17  and  C_19
REMARK   11  A    between atoms: C_19  and  N_20
REMARK   12  A    between atoms: N_23  and  C_24
REMARK   13  A    between atoms: N_23  and  C_31
REMARK   14  A    between atoms: C_24  and  C_25
REMARK   15  A    between atoms: C_31  and  C_32
REMARK   16  A    between atoms: C_31  and  C_33
REMARK   17  A    between atoms: C_31  and  C_34
REMARK                            x       y       z     vdW  Elec       q    Type
REMARK                         _______ _______ _______ _____ _____    ______ ____
ROOT
ATOM      1  C   UNL     1       1.856   9.433  18.555  0.00  0.00    +0.000 C 
ENDROOT
BRANCH   1   2
ATOM      2  O   UNL     1       2.268   9.199  17.202  0.00  0.00    +0.000 OA
ATOM      3  H   UNL     1       3.143   8.772  17.231  0.00  0.00    +0.000 HD
ENDBRANCH   1   2
BRANCH   1   4
ATOM      4  C   UNL     1       1.945   8.126  19.352  0.00  0.00    +0.000 C 
BRANCH   4   8
ATOM      5  N   UNL     1       3.083   4.718  18.497  0.00  0.00    +0.000 N 
ATOM      6  C   UNL     1       2.474   5.781  19.162  0.00  0.00    +0.000 C 
ATOM      7  O   UNL     1       1.753   5.653  20.149  0.00  0.00    +0.000 OA
ATOM      8  N   UNL     1       2.697   7.059  18.690  0.00  0.00    +0.000 N 
ATOM      9  H   UNL     1       2.822   7.186  17.699  0.00  0.00    +0.000 HD
BRANCH   5  11
ATOM     10  C   UNL     1       3.250   2.975  20.352  0.00  0.00    +0.000 C 
ATOM     11  C   UNL     1       2.791   3.268  18.909  0.00  0.00    +0.000 C 
ATOM     12  C   UNL     1       3.511   2.275  17.963  0.00  0.00    +0.000 C 
ATOM     13  C   UNL     1       1.296   2.851  18.860  0.00  0.00    +0.000 C 
ENDBRANCH   5  11
BRANCH   5  14
ATOM     14  C   UNL     1       4.034   4.943  17.384  0.00  0.00    +0.000 C 
BRANCH  14  15
ATOM     15  C   UNL     1       5.410   5.487  17.720  0.00  0.00    +0.000 A 
ATOM     16  C   UNL     1       6.062   6.470  16.968  0.00  0.00    +0.000 A 
ATOM     17  C   UNL     1       7.268   7.027  17.409  0.00  0.00    +0.000 A 
ATOM     18  C   UNL     1       7.863   6.577  18.585  0.00  0.00    +0.000 A 
ATOM     19  C   UNL     1       7.262   5.557  19.315  0.00  0.00    +0.000 A 
ATOM     20  C   UNL     1       6.045   5.019  18.888  0.00  0.00    +0.000 A 
ENDBRANCH  14  15
ENDBRANCH   5  14
ENDBRANCH   4   8
ENDBRANCH   1   4
BRANCH   1  21
ATOM     21  C   UNL     1       0.415   9.997  18.588  0.00  0.00    +0.000 C 
BRANCH  21  22
ATOM     22  N   UNL     1       0.288  11.073  19.550  0.00  0.00    +0.000 N 
ATOM     23  C   UNL     1      -0.308  10.960  20.775  0.00  0.00    +0.000 C 
ATOM     24  O   UNL     1      -0.772   9.887  21.151  0.00  0.00    +0.000 OA
ATOM     25  N   UNL     1      -0.323  12.132  21.558  0.00  0.00    +0.000 N 
ATOM     26  H   UNL     1       0.319  11.985  19.148  0.00  0.00    +0.000 HD
BRANCH  25  27
ATOM     27  C   UNL     1       0.207  13.493  21.141  0.00  0.00    +0.000 C 
ATOM     28  C   UNL     1       1.701  13.383  20.740  0.00  0.00    +0.000 C 
ATOM     29  C   UNL     1      -0.498  14.090  19.892  0.00  0.00    +0.000 C 
ATOM     30  C   UNL     1      -0.016  14.560  22.242  0.00  0.00    +0.000 C 
ENDBRANCH  25  27
BRANCH  25  31
ATOM     31  C   UNL     1      -1.073  12.015  22.828  0.00  0.00    +0.000 C 
BRANCH  31  32
ATOM     32  C   UNL     1      -2.570  12.274  22.772  0.00  0.00    +0.000 A 
ATOM     33  C   UNL     1      -3.306  12.404  23.963  0.00  0.00    +0.000 A 
ATOM     34  C   UNL     1      -4.641  12.812  23.941  0.00  0.00    +0.000 A 
ATOM     35  C   UNL     1      -5.277  13.092  22.739  0.00  0.00    +0.000 A 
ATOM     36  C   UNL     1      -4.569  12.954  21.552  0.00  0.00    +0.000 A 
ATOM     37  C   UNL     1      -3.228  12.551  21.563  0.00  0.00    +0.000 A 
ENDBRANCH  31  32
ENDBRANCH  25  31
ENDBRANCH  21  22
ENDBRANCH   1  21
TORSDOF 11
ENDMDL
MODEL 5
REMARK VINA RESULT:      -7.6      1.882      2.555
REMARK  Name = 
REMARK  17 active torsions:
REMARK  status: ('A' for Active; 'I' for Inactive)
REMARK    1  A    between atoms: C_1  and  C_2
REMARK    2  A    between atoms: C_2  and  C_3
REMARK    3  A    between atoms: C_2  and  C_4
REMARK    4  A    between atoms: C_2  and  N_5
REMARK    5  A    between atoms: N_5  and  C_6
REMARK    6  A    between atoms: C_6  and  C_7
REMARK    7  A    between atoms: N_15  and  C_16
REMARK    8  A    between atoms: C_16  and  C_17
REMARK    9  A    between atoms: C_17  and  O_18
REMARK   10  A    between atoms: C_17  and  C_19
REMARK   11  A    between atoms: C_19  and  N_20
REMARK   12  A    between atoms: N_23  and  C_24
REMARK   13  A    between atoms: N_23  and  C_31
REMARK   14  A    between atoms: C_24  and  C_25
REMARK   15  A    between atoms: C_31  and  C_32
REMARK   16  A    between atoms: C_31  and  C_33
REMARK   17  A    between atoms: C_31  and  C_34
REMARK                            x       y       z     vdW  Elec       q    Type
REMARK                         _______ _______ _______ _____ _____    ______ ____
ROOT
ATOM      1  C   UNL     1       1.143   8.328  21.076  0.00  0.00    +0.000 C 
ENDROOT
BRANCH   1   2
ATOM      2  O   UNL     1       1.850   9.078  22.072  0.00  0.00    +0.000 OA
ATOM      3  H   UNL     1       1.925   9.995  21.751  0.00  0.00    +0.000 HD
ENDBRANCH   1   2
BRANCH   1   4
ATOM      4  C   UNL     1       1.475   6.838  21.225  0.00  0.00    +0.000 C 
BRANCH   4   8
ATOM      5  N   UNL     1       3.082   4.310  19.065  0.00  0.00    +0.000 N 
ATOM      6  C   UNL     1       2.430   4.906  20.143  0.00  0.00    +0.000 C 
ATOM      7  O   UNL     1       1.996   4.288  21.113  0.00  0.00    +0.000 OA
ATOM      8  N   UNL     1       2.265   6.277  20.128  0.00  0.00    +0.000 N 
ATOM      9  H   UNL     1       2.131   6.731  19.240  0.00  0.00    +0.000 HD
BRANCH   5  11
ATOM     10  C   UNL     1       1.841   2.083  19.147  0.00  0.00    +0.000 C 
ATOM     11  C   UNL     1       3.205   2.782  18.973  0.00  0.00    +0.000 C 
ATOM     12  C   UNL     1       4.165   2.244  20.062  0.00  0.00    +0.000 C 
ATOM     13  C   UNL     1       3.777   2.240  17.635  0.00  0.00    +0.000 C 
ENDBRANCH   5  11
BRANCH   5  14
ATOM     14  C   UNL     1       3.685   5.119  17.981  0.00  0.00    +0.000 C 
BRANCH  14  15
ATOM     15  C   UNL     1       5.088   5.659  18.189  0.00  0.00    +0.000 A 
ATOM     16  C   UNL     1       5.950   5.217  19.198  0.00  0.00    +0.000 A 
ATOM     17  C   UNL     1       7.278   5.656  19.250  0.00  0.00    +0.000 A 
ATOM     18  C   UNL     1       7.751   6.578  18.320  0.00  0.00    +0.000 A 
ATOM     19  C   UNL     1       6.894   7.076  17.345  0.00  0.00    +0.000 A 
ATOM     20  C   UNL     1       5.574   6.619  17.278  0.00  0.00    +0.000 A 
ENDBRANCH  14  15
ENDBRANCH   5  14
ENDBRANCH   4   8
ENDBRANCH   1   4
BRANCH   1  21
ATOM     21  C   UNL     1       1.514   8.832  19.661  0.00  0.00    +0.000 C 
BRANCH  21  22
ATOM     22  N   UNL     1       1.085  10.200  19.455  0.00  0.00    +0.000 N 
ATOM     23  C   UNL     1      -0.122  10.570  18.930  0.00  0.00    +0.000 C 
ATOM     24  O   UNL     1      -0.952   9.725  18.607  0.00  0.00    +0.000 OA
ATOM     25  N   UNL     1      -0.339  11.959  18.817  0.00  0.00    +0.000 N 
ATOM     26  H   UNL     1       1.833  10.853  19.364  0.00  0.00    +0.000 HD
BRANCH  25  27
ATOM     27  C   UNL     1       0.655  13.051  19.171  0.00  0.00    +0.000 C 
ATOM     28  C   UNL     1       0.085  14.437  18.775  0.00  0.00    +0.000 C 
ATOM     29  C   UNL     1       0.958  13.163  20.691  0.00  0.00    +0.000 C 
ATOM     30  C   UNL     1       2.042  12.796  18.532  0.00  0.00    +0.000 C 
ENDBRANCH  25  27
BRANCH  25  31
ATOM     31  C   UNL     1      -1.602  12.332  18.142  0.00  0.00    +0.000 C 
BRANCH  31  32
ATOM     32  C   UNL     1      -2.881  12.207  18.952  0.00  0.00    +0.000 A 
ATOM     33  C   UNL     1      -2.945  12.743  20.251  0.00  0.00    +0.000 A 
ATOM     34  C   UNL     1      -4.154  12.795  20.948  0.00  0.00    +0.000 A 
ATOM     35  C   UNL     1      -5.323  12.311  20.376  0.00  0.00    +0.000 A 
ATOM     36  C   UNL     1      -5.275  11.765  19.099  0.00  0.00    +0.000 A 
ATOM     37  C   UNL     1      -4.069  11.713  18.391  0.00  0.00    +0.000 A 
ENDBRANCH  31  32
ENDBRANCH  25  31
ENDBRANCH  21  22
ENDBRANCH   1  21
TORSDOF 11
ENDMDL
MODEL 6
REMARK VINA RESULT:      -7.5      1.234      1.752
REMARK  Name = 
REMARK  17 active torsions:
REMARK  status: ('A' for Active; 'I' for Inactive)
REMARK    1  A    between atoms: C_1  and  C_2
REMARK    2  A    between atoms: C_2  and  C_3
REMARK    3  A    between atoms: C_2  and  C_4
REMARK    4  A    between atoms: C_2  and  N_5
REMARK    5  A    between atoms: N_5  and  C_6
REMARK    6  A    between atoms: C_6  and  C_7
REMARK    7  A    between atoms: N_15  and  C_16
REMARK    8  A    between atoms: C_16  and  C_17
REMARK    9  A    between atoms: C_17  and  O_18
REMARK   10  A    between atoms: C_17  and  C_19
REMARK   11  A    between atoms: C_19  and  N_20
REMARK   12  A    between atoms: N_23  and  C_24
REMARK   13  A    between atoms: N_23  and  C_31
REMARK   14  A    between atoms: C_24  and  C_25
REMARK   15  A    between atoms: C_31  and  C_32
REMARK   16  A    between atoms: C_31  and  C_33
REMARK   17  A    between atoms: C_31  and  C_34
REMARK                            x       y       z     vdW  Elec       q    Type
REMARK                         _______ _______ _______ _____ _____    ______ ____
ROOT
ATOM      1  C   UNL     1       1.188   8.051  21.611  0.00  0.00    +0.000 C 
ENDROOT
BRANCH   1   2
ATOM      2  O   UNL     1       2.082   8.964  22.261  0.00  0.00    +0.000 OA
ATOM      3  H   UNL     1       2.913   8.974  21.752  0.00  0.00    +0.000 HD
ENDBRANCH   1   2
BRANCH   1   4
ATOM      4  C   UNL     1       1.623   7.858  20.153  0.00  0.00    +0.000 C 
BRANCH   4   8
ATOM      5  N   UNL     1       3.424   4.656  19.770  0.00  0.00    +0.000 N 
ATOM      6  C   UNL     1       2.421   5.585  20.046  0.00  0.00    +0.000 C 
ATOM      7  O   UNL     1       1.272   5.285  20.359  0.00  0.00    +0.000 OA
ATOM      8  N   UNL     1       2.737   6.927  19.968  0.00  0.00    +0.000 N 
ATOM      9  H   UNL     1       3.418   7.218  19.286  0.00  0.00    +0.000 HD
BRANCH   5  11
ATOM     10  C   UNL     1       4.381   2.294  19.894  0.00  0.00    +0.000 C 
ATOM     11  C   UNL     1       3.109   3.153  19.737  0.00  0.00    +0.000 C 
ATOM     12  C   UNL     1       2.428   2.766  18.402  0.00  0.00    +0.000 C 
ATOM     13  C   UNL     1       2.137   2.654  20.841  0.00  0.00    +0.000 C 
ENDBRANCH   5  11
BRANCH   5  14
ATOM     14  C   UNL     1       4.819   5.076  19.510  0.00  0.00    +0.000 C 
BRANCH  14  15
ATOM     15  C   UNL     1       5.311   5.072  18.074  0.00  0.00    +0.000 A 
ATOM     16  C   UNL     1       4.591   5.613  17.004  0.00  0.00    +0.000 A 
ATOM     17  C   UNL     1       5.160   5.703  15.729  0.00  0.00    +0.000 A 
ATOM     18  C   UNL     1       6.442   5.211  15.494  0.00  0.00    +0.000 A 
ATOM     19  C   UNL     1       7.152   4.614  16.531  0.00  0.00    +0.000 A 
ATOM     20  C   UNL     1       6.592   4.548  17.810  0.00  0.00    +0.000 A 
ENDBRANCH  14  15
ENDBRANCH   5  14
ENDBRANCH   4   8
ENDBRANCH   1   4
BRANCH   1  21
ATOM     21  C   UNL     1      -0.265   8.578  21.683  0.00  0.00    +0.000 C 
BRANCH  21  22
ATOM     22  N   UNL     1      -0.329   9.997  21.398  0.00  0.00    +0.000 N 
ATOM     23  C   UNL     1      -0.748  10.954  22.280  0.00  0.00    +0.000 C 
ATOM     24  O   UNL     1      -1.090  10.650  23.419  0.00  0.00    +0.000 OA
ATOM     25  N   UNL     1      -0.731  12.278  21.797  0.00  0.00    +0.000 N 
ATOM     26  H   UNL     1      -0.410  10.214  20.427  0.00  0.00    +0.000 HD
BRANCH  25  27
ATOM     27  C   UNL     1      -0.348  12.715  20.394  0.00  0.00    +0.000 C 
ATOM     28  C   UNL     1      -1.292  12.057  19.355  0.00  0.00    +0.000 C 
ATOM     29  C   UNL     1      -0.485  14.243  20.147  0.00  0.00    +0.000 C 
ATOM     30  C   UNL     1       1.141  12.419  20.086  0.00  0.00    +0.000 C 
ENDBRANCH  25  27
BRANCH  25  31
ATOM     31  C   UNL     1      -1.297  13.280  22.729  0.00  0.00    +0.000 C 
BRANCH  31  32
ATOM     32  C   UNL     1      -2.807  13.285  22.902  0.00  0.00    +0.000 A 
ATOM     33  C   UNL     1      -3.644  13.304  21.772  0.00  0.00    +0.000 A 
ATOM     34  C   UNL     1      -5.025  13.136  21.898  0.00  0.00    +0.000 A 
ATOM     35  C   UNL     1      -5.605  12.953  23.146  0.00  0.00    +0.000 A 
ATOM     36  C   UNL     1      -4.794  12.947  24.275  0.00  0.00    +0.000 A 
ATOM     37  C   UNL     1      -3.408  13.110  24.158  0.00  0.00    +0.000 A 
ENDBRANCH  31  32
ENDBRANCH  25  31
ENDBRANCH  21  22
ENDBRANCH   1  21
TORSDOF 11
ENDMDL
MODEL 7
REMARK VINA RESULT:      -7.5      1.854      2.826
REMARK  Name = 
REMARK  17 active torsions:
REMARK  status: ('A' for Active; 'I' for Inactive)
REMARK    1  A    between atoms: C_1  and  C_2
REMARK    2  A    between atoms: C_2  and  C_3
REMARK    3  A    between atoms: C_2  and  C_4
REMARK    4  A    between atoms: C_2  and  N_5
REMARK    5  A    between atoms: N_5  and  C_6
REMARK    6  A    between atoms: C_6  and  C_7
REMARK    7  A    between atoms: N_15  and  C_16
REMARK    8  A    between atoms: C_16  and  C_17
REMARK    9  A    between atoms: C_17  and  O_18
REMARK   10  A    between atoms: C_17  and  C_19
REMARK   11  A    between atoms: C_19  and  N_20
REMARK   12  A    between atoms: N_23  and  C_24
REMARK   13  A    between atoms: N_23  and  C_31
REMARK   14  A    between atoms: C_24  and  C_25
REMARK   15  A    between atoms: C_31  and  C_32
REMARK   16  A    between atoms: C_31  and  C_33
REMARK   17  A    between atoms: C_31  and  C_34
REMARK                            x       y       z     vdW  Elec       q    Type
REMARK                         _______ _______ _______ _____ _____    ______ ____
ROOT
ATOM      1  C   UNL     1       0.467   8.621  20.851  0.00  0.00    +0.000 C 
ENDROOT
BRANCH   1   2
ATOM      2  O   UNL     1      -0.205   8.754  22.110  0.00  0.00    +0.000 OA
ATOM      3  H   UNL     1      -0.315   7.859  22.480  0.00  0.00    +0.000 HD
ENDBRANCH   1   2
BRANCH   1   4
ATOM      4  C   UNL     1       1.845   7.984  21.069  0.00  0.00    +0.000 C 
BRANCH   4   8
ATOM      5  N   UNL     1       2.485   4.954  19.057  0.00  0.00    +0.000 N 
ATOM      6  C   UNL     1       2.156   5.787  20.125  0.00  0.00    +0.000 C 
ATOM      7  O   UNL     1       1.739   5.385  21.209  0.00  0.00    +0.000 OA
ATOM      8  N   UNL     1       2.312   7.150  19.961  0.00  0.00    +0.000 N 
ATOM      9  H   UNL     1       2.157   7.540  19.047  0.00  0.00    +0.000 HD
BRANCH   5  11
ATOM     10  C   UNL     1       3.195   2.752  20.132  0.00  0.00    +0.000 C 
ATOM     11  C   UNL     1       2.236   3.441  19.139  0.00  0.00    +0.000 C 
ATOM     12  C   UNL     1       2.421   2.780  17.752  0.00  0.00    +0.000 C 
ATOM     13  C   UNL     1       0.810   3.026  19.592  0.00  0.00    +0.000 C 
ENDBRANCH   5  11
BRANCH   5  14
ATOM     14  C   UNL     1       3.091   5.489  17.816  0.00  0.00    +0.000 C 
BRANCH  14  15
ATOM     15  C   UNL     1       4.577   5.797  17.822  0.00  0.00    +0.000 A 
ATOM     16  C   UNL     1       5.150   6.879  17.145  0.00  0.00    +0.000 A 
ATOM     17  C   UNL     1       6.505   7.188  17.304  0.00  0.00    +0.000 A 
ATOM     18  C   UNL     1       7.319   6.392  18.107  0.00  0.00    +0.000 A 
ATOM     19  C   UNL     1       6.783   5.276  18.741  0.00  0.00    +0.000 A 
ATOM     20  C   UNL     1       5.423   4.983  18.602  0.00  0.00    +0.000 A 
ENDBRANCH  14  15
ENDBRANCH   5  14
ENDBRANCH   4   8
ENDBRANCH   1   4
BRANCH   1  21
ATOM     21  C   UNL     1       0.606  10.003  20.168  0.00  0.00    +0.000 C 
BRANCH  21  22
ATOM     22  N   UNL     1      -0.348  10.956  20.699  0.00  0.00    +0.000 N 
ATOM     23  C   UNL     1      -1.409  11.468  20.007  0.00  0.00    +0.000 C 
ATOM     24  O   UNL     1      -1.633  11.119  18.852  0.00  0.00    +0.000 OA
ATOM     25  N   UNL     1      -2.216  12.382  20.715  0.00  0.00    +0.000 N 
ATOM     26  H   UNL     1       0.002  11.504  21.456  0.00  0.00    +0.000 HD
BRANCH  25  27
ATOM     27  C   UNL     1      -1.978  12.876  22.131  0.00  0.00    +0.000 C 
ATOM     28  C   UNL     1      -2.252  11.736  23.145  0.00  0.00    +0.000 C 
ATOM     29  C   UNL     1      -0.514  13.315  22.410  0.00  0.00    +0.000 C 
ATOM     30  C   UNL     1      -2.814  14.141  22.448  0.00  0.00    +0.000 C 
ENDBRANCH  25  27
BRANCH  25  31
ATOM     31  C   UNL     1      -3.288  13.009  19.909  0.00  0.00    +0.000 C 
BRANCH  31  32
ATOM     32  C   UNL     1      -4.621  12.281  19.849  0.00  0.00    +0.000 A 
ATOM     33  C   UNL     1      -5.509  12.348  20.937  0.00  0.00    +0.000 A 
ATOM     34  C   UNL     1      -6.804  11.835  20.840  0.00  0.00    +0.000 A 
ATOM     35  C   UNL     1      -7.244  11.238  19.666  0.00  0.00    +0.000 A 
ATOM     36  C   UNL     1      -6.374  11.150  18.586  0.00  0.00    +0.000 A 
ATOM     37  C   UNL     1      -5.076  11.666  18.672  0.00  0.00    +0.000 A 
ENDBRANCH  31  32
ENDBRANCH  25  31
ENDBRANCH  21  22
ENDBRANCH   1  21
TORSDOF 11
ENDMDL
MODEL 8
REMARK VINA RESULT:      -7.5      1.461      2.356
REMARK  Name = 
REMARK  17 active torsions:
REMARK  status: ('A' for Active; 'I' for Inactive)
REMARK    1  A    between atoms: C_1  and  C_2
REMARK    2  A    between atoms: C_2  and  C_3
REMARK    3  A    between atoms: C_2  and  C_4
REMARK    4  A    between atoms: C_2  and  N_5
REMARK    5  A    between atoms: N_5  and  C_6
REMARK    6  A    between atoms: C_6  and  C_7
REMARK    7  A    between atoms: N_15  and  C_16
REMARK    8  A    between atoms: C_16  and  C_17
REMARK    9  A    between atoms: C_17  and  O_18
REMARK   10  A    between atoms: C_17  and  C_19
REMARK   11  A    between atoms: C_19  and  N_20
REMARK   12  A    between atoms: N_23  and  C_24
REMARK   13  A    between atoms: N_23  and  C_31
REMARK   14  A    between atoms: C_24  and  C_25
REMARK   15  A    between atoms: C_31  and  C_32
REMARK   16  A    between atoms: C_31  and  C_33
REMARK   17  A    between atoms: C_31  and  C_34
REMARK                            x       y       z     vdW  Elec       q    Type
REMARK                         _______ _______ _______ _____ _____    ______ ____
ROOT
ATOM      1  C   UNL     1       0.746   8.636  20.789  0.00  0.00    +0.000 C 
ENDROOT
BRANCH   1   2
ATOM      2  O   UNL     1      -0.454   8.162  21.413  0.00  0.00    +0.000 OA
ATOM      3  H   UNL     1      -0.297   8.141  22.374  0.00  0.00    +0.000 HD
ENDBRANCH   1   2
BRANCH   1   4
ATOM      4  C   UNL     1       1.895   7.663  21.081  0.00  0.00    +0.000 C 
BRANCH   4   8
ATOM      5  N   UNL     1       2.538   4.659  19.031  0.00  0.00    +0.000 N 
ATOM      6  C   UNL     1       2.258   5.481  20.122  0.00  0.00    +0.000 C 
ATOM      7  O   UNL     1       1.974   5.064  21.242  0.00  0.00    +0.000 OA
ATOM      8  N   UNL     1       2.309   6.848  19.938  0.00  0.00    +0.000 N 
ATOM      9  H   UNL     1       2.042   7.218  19.040  0.00  0.00    +0.000 HD
BRANCH   5  11
ATOM     10  C   UNL     1       3.561   2.505  19.938  0.00  0.00    +0.000 C 
ATOM     11  C   UNL     1       2.398   3.134  19.144  0.00  0.00    +0.000 C 
ATOM     12  C   UNL     1       2.363   2.482  17.740  0.00  0.00    +0.000 C 
ATOM     13  C   UNL     1       1.105   2.636  19.847  0.00  0.00    +0.000 C 
ENDBRANCH   5  11
BRANCH   5  14
ATOM     14  C   UNL     1       2.987   5.218  17.735  0.00  0.00    +0.000 C 
BRANCH  14  15
ATOM     15  C   UNL     1       4.475   5.439  17.530  0.00  0.00    +0.000 A 
ATOM     16  C   UNL     1       5.400   4.402  17.368  0.00  0.00    +0.000 A 
ATOM     17  C   UNL     1       6.733   4.675  17.043  0.00  0.00    +0.000 A 
ATOM     18  C   UNL     1       7.172   5.992  16.921  0.00  0.00    +0.000 A 
ATOM     19  C   UNL     1       6.283   7.038  17.138  0.00  0.00    +0.000 A 
ATOM     20  C   UNL     1       4.945   6.764  17.437  0.00  0.00    +0.000 A 
ENDBRANCH  14  15
ENDBRANCH   5  14
ENDBRANCH   4   8
ENDBRANCH   1   4
BRANCH   1  21
ATOM     21  C   UNL     1       1.091  10.056  21.297  0.00  0.00    +0.000 C 
BRANCH  21  22
ATOM     22  N   UNL     1      -0.049  10.946  21.198  0.00  0.00    +0.000 N 
ATOM     23  C   UNL     1      -0.831  11.334  22.250  0.00  0.00    +0.000 C 
ATOM     24  O   UNL     1      -0.587  10.948  23.389  0.00  0.00    +0.000 OA
ATOM     25  N   UNL     1      -1.890  12.209  21.933  0.00  0.00    +0.000 N 
ATOM     26  H   UNL     1      -0.467  10.973  20.293  0.00  0.00    +0.000 HD
BRANCH  25  27
ATOM     27  C   UNL     1      -2.261  12.699  20.544  0.00  0.00    +0.000 C 
ATOM     28  C   UNL     1      -1.407  13.939  20.172  0.00  0.00    +0.000 C 
ATOM     29  C   UNL     1      -1.982  11.669  19.414  0.00  0.00    +0.000 C 
ATOM     30  C   UNL     1      -3.778  12.988  20.420  0.00  0.00    +0.000 C 
ENDBRANCH  25  27
BRANCH  25  31
ATOM     31  C   UNL     1      -2.790  12.522  23.066  0.00  0.00    +0.000 C 
BRANCH  31  32
ATOM     32  C   UNL     1      -2.618  13.879  23.728  0.00  0.00    +0.000 A 
ATOM     33  C   UNL     1      -3.742  14.574  24.208  0.00  0.00    +0.000 A 
ATOM     34  C   UNL     1      -3.597  15.736  24.970  0.00  0.00    +0.000 A 
ATOM     35  C   UNL     1      -2.337  16.236  25.265  0.00  0.00    +0.000 A 
ATOM     36  C   UNL     1      -1.215  15.570  24.786  0.00  0.00    +0.000 A 
ATOM     37  C   UNL     1      -1.350  14.403  24.026  0.00  0.00    +0.000 A 
ENDBRANCH  31  32
ENDBRANCH  25  31
ENDBRANCH  21  22
ENDBRANCH   1  21
TORSDOF 11
ENDMDL
MODEL 9
REMARK VINA RESULT:      -7.5      1.919      2.813
REMARK  Name = 
REMARK  17 active torsions:
REMARK  status: ('A' for Active; 'I' for Inactive)
REMARK    1  A    between atoms: C_1  and  C_2
REMARK    2  A    between atoms: C_2  and  C_3
REMARK    3  A    between atoms: C_2  and  C_4
REMARK    4  A    between atoms: C_2  and  N_5
REMARK    5  A    between atoms: N_5  and  C_6
REMARK    6  A    between atoms: C_6  and  C_7
REMARK    7  A    between atoms: N_15  and  C_16
REMARK    8  A    between atoms: C_16  and  C_17
REMARK    9  A    between atoms: C_17  and  O_18
REMARK   10  A    between atoms: C_17  and  C_19
REMARK   11  A    between atoms: C_19  and  N_20
REMARK   12  A    between atoms: N_23  and  C_24
REMARK   13  A    between atoms: N_23  and  C_31
REMARK   14  A    between atoms: C_24  and  C_25
REMARK   15  A    between atoms: C_31  and  C_32
REMARK   16  A    between atoms: C_31  and  C_33
REMARK   17  A    between atoms: C_31  and  C_34
REMARK                            x       y       z     vdW  Elec       q    Type
REMARK                         _______ _______ _______ _____ _____    ______ ____
ROOT
ATOM      1  C   UNL     1       2.347   8.728  18.251  0.00  0.00    +0.000 C 
ENDROOT
BRANCH   1   2
ATOM      2  O   UNL     1       2.997   8.102  17.137  0.00  0.00    +0.000 OA
ATOM      3  H   UNL     1       3.385   7.267  17.454  0.00  0.00    +0.000 HD
ENDBRANCH   1   2
BRANCH   1   4
ATOM      4  C   UNL     1       2.125   7.694  19.361  0.00  0.00    +0.000 C 
BRANCH   4   8
ATOM      5  N   UNL     1       3.677   4.376  19.826  0.00  0.00    +0.000 N 
ATOM      6  C   UNL     1       2.742   5.410  19.822  0.00  0.00    +0.000 C 
ATOM      7  O   UNL     1       1.560   5.270  20.128  0.00  0.00    +0.000 OA
ATOM      8  N   UNL     1       3.167   6.672  19.460  0.00  0.00    +0.000 N 
ATOM      9  H   UNL     1       3.897   6.750  18.770  0.00  0.00    +0.000 HD
BRANCH   5  11
ATOM     10  C   UNL     1       4.451   1.973  20.195  0.00  0.00    +0.000 C 
ATOM     11  C   UNL     1       3.245   2.932  20.119  0.00  0.00    +0.000 C 
ATOM     12  C   UNL     1       2.286   2.414  19.019  0.00  0.00    +0.000 C 
ATOM     13  C   UNL     1       2.473   2.726  21.450  0.00  0.00    +0.000 C 
ENDBRANCH   5  11
BRANCH   5  14
ATOM     14  C   UNL     1       5.112   4.628  19.560  0.00  0.00    +0.000 C 
BRANCH  14  15
ATOM     15  C   UNL     1       5.587   4.599  18.119  0.00  0.00    +0.000 A 
ATOM     16  C   UNL     1       6.927   4.734  17.740  0.00  0.00    +0.000 A 
ATOM     17  C   UNL     1       7.315   4.558  16.407  0.00  0.00    +0.000 A 
ATOM     18  C   UNL     1       6.364   4.290  15.425  0.00  0.00    +0.000 A 
ATOM     19  C   UNL     1       5.019   4.212  15.772  0.00  0.00    +0.000 A 
ATOM     20  C   UNL     1       4.635   4.362  17.108  0.00  0.00    +0.000 A 
ENDBRANCH  14  15
ENDBRANCH   5  14
ENDBRANCH   4   8
ENDBRANCH   1   4
BRANCH   1  21
ATOM     21  C   UNL     1       1.002   9.351  17.806  0.00  0.00    +0.000 C 
BRANCH  21  22
ATOM     22  N   UNL     1       0.810  10.667  18.382  0.00  0.00    +0.000 N 
ATOM     23  C   UNL     1      -0.395  11.182  18.770  0.00  0.00    +0.000 C 
ATOM     24  O   UNL     1      -1.423  10.521  18.665  0.00  0.00    +0.000 OA
ATOM     25  N   UNL     1      -0.357  12.484  19.310  0.00  0.00    +0.000 N 
ATOM     26  H   UNL     1       1.525  11.322  18.147  0.00  0.00    +0.000 HD
BRANCH  25  27
ATOM     27  C   UNL     1       0.875  13.363  19.440  0.00  0.00    +0.000 C 
ATOM     28  C   UNL     1       1.772  12.854  20.598  0.00  0.00    +0.000 C 
ATOM     29  C   UNL     1       1.795  13.352  18.188  0.00  0.00    +0.000 C 
ATOM     30  C   UNL     1       0.501  14.856  19.615  0.00  0.00    +0.000 C 
ENDBRANCH  25  27
BRANCH  25  31
ATOM     31  C   UNL     1      -1.684  13.063  19.615  0.00  0.00    +0.000 C 
BRANCH  31  32
ATOM     32  C   UNL     1      -2.306  12.696  20.953  0.00  0.00    +0.000 A 
ATOM     33  C   UNL     1      -1.491  12.240  22.005  0.00  0.00    +0.000 A 
ATOM     34  C   UNL     1      -2.009  12.062  23.289  0.00  0.00    +0.000 A 
ATOM     35  C   UNL     1      -3.345  12.325  23.557  0.00  0.00    +0.000 A 
ATOM     36  C   UNL     1      -4.168  12.761  22.526  0.00  0.00    +0.000 A 
ATOM     37  C   UNL     1      -3.657  12.948  21.236  0.00  0.00    +0.000 A 
ENDBRANCH  31  32
ENDBRANCH  25  31
ENDBRANCH  21  22
ENDBRANCH   1  21
TORSDOF 11
ENDMDL
