MODEL 1
REMARK VINA RESULT:      -7.6      0.000      0.000
REMARK  Name = 
REMARK  9 active torsions:
REMARK  status: ('A' for Active; 'I' for Inactive)
REMARK    1  A    between atoms: C_2  and  C_12
REMARK    2  A    between atoms: N_7  and  C_8
REMARK    3  A    between atoms: C_8  and  C_9
REMARK    4  A    between atoms: C_9  and  O_10
REMARK    5  A    between atoms: C_12  and  C_13
REMARK    6  A    between atoms: C_12  and  N_20
REMARK    7  A    between atoms: C_13  and  C_14
REMARK    8  A    between atoms: C_24  and  S_25
REMARK    9  A    between atoms: S_25  and  C_28
REMARK                            x       y       z     vdW  Elec       q    Type
REMARK                         _______ _______ _______ _____ _____    ______ ____
ROOT
ATOM      1  C   UNL     1       0.129  10.462  19.160  0.00  0.00    +0.000 C 
ENDROOT
BRANCH   1   3
ATOM      2  O   UNL     1       1.930  10.154  17.658  0.00  0.00    +0.000 OA
ATOM      3  C   UNL     1       1.299   9.664  18.601  0.00  0.00    +0.000 C 
ATOM      4  N   UNL     1       1.603   8.459  19.180  0.00  0.00    +0.000 N 
ATOM      5  C   UNL     1       2.542   7.573  18.694  0.00  0.00    +0.000 A 
ATOM      6  C   UNL     1       2.888   6.361  19.354  0.00  0.00    +0.000 A 
ATOM      7  C   UNL     1       3.890   5.804  18.591  0.00  0.00    +0.000 A 
ATOM      8  N   UNL     1       4.091   6.688  17.569  0.00  0.00    +0.000 N 
ATOM      9  N   UNL     1       3.231   7.710  17.579  0.00  0.00    +0.000 NA
ATOM     10  H   UNL     1       1.291   8.228  20.110  0.00  0.00    +0.000 HD
BRANCH   8  11
ATOM     11  C   UNL     1       5.188   6.663  16.611  0.00  0.00    +0.000 C 
BRANCH  11  12
ATOM     12  C   UNL     1       6.561   6.445  17.230  0.00  0.00    +0.000 C 
BRANCH  12  13
ATOM     13  O   UNL     1       7.424   7.566  16.991  0.00  0.00    +0.000 OA
ATOM     14  H   UNL     1       8.305   7.298  17.354  0.00  0.00    +0.000 HD
ENDBRANCH  12  13
ENDBRANCH  11  12
ENDBRANCH   8  11
ENDBRANCH   1   3
BRANCH   1  15
ATOM     15  N   UNL     1       0.100  10.964  20.542  0.00  0.00    +0.000 N 
ATOM     16  N   UNL     1       0.454  10.065  21.505  0.00  0.00    +0.000 NA
ATOM     17  C   UNL     1      -0.305  10.423  22.543  0.00  0.00    +0.000 A 
ATOM     18  C   UNL     1      -1.185  11.494  22.229  0.00  0.00    +0.000 A 
ATOM     19  C   UNL     1      -1.995  12.343  23.009  0.00  0.00    +0.000 A 
ATOM     20  C   UNL     1      -1.217  13.441  23.384  0.00  0.00    +0.000 A 
ATOM     21  C   UNL     1      -0.490  14.084  22.372  0.00  0.00    +0.000 A 
ATOM     22  C   UNL     1      -0.241  13.449  21.137  0.00  0.00    +0.000 A 
ATOM     23  C   UNL     1      -0.459  12.063  21.167  0.00  0.00    +0.000 A 
BRANCH  19  24
ATOM     24  S   UNL     1      -3.556  13.003  22.206  0.00  0.00    +0.000 S 
ATOM     25  O   UNL     1      -3.348  12.906  20.771  0.00  0.00    +0.000 OA
ATOM     26  O   UNL     1      -4.682  12.338  22.840  0.00  0.00    +0.000 OA
BRANCH  24  27
ATOM     27  C   UNL     1      -3.745  14.758  22.619  0.00  0.00    +0.000 C 
ATOM     28  C   UNL     1      -3.686  15.736  21.484  0.00  0.00    +0.000 C 
ATOM     29  C   UNL     1      -5.018  15.378  22.081  0.00  0.00    +0.000 C 
ENDBRANCH  24  27
ENDBRANCH  19  24
ENDBRANCH   1  15
BRANCH   1  30
ATOM     30  C   UNL     1      -1.224   9.884  18.660  0.00  0.00    +0.000 C 
BRANCH  30  31
ATOM     31  C   UNL     1      -1.969  10.661  17.551  0.00  0.00    +0.000 C 
ATOM     32  C   UNL     1      -3.373  11.050  18.055  0.00  0.00    +0.000 C 
ATOM     33  C   UNL     1      -4.251  11.611  16.944  0.00  0.00    +0.000 C 
ATOM     34  O   UNL     1      -4.319  10.699  15.851  0.00  0.00    +0.000 OA
ATOM     35  C   UNL     1      -3.041  10.499  15.258  0.00  0.00    +0.000 C 
ATOM     36  C   UNL     1      -2.077   9.864  16.249  0.00  0.00    +0.000 C 
ENDBRANCH  30  31
ENDBRANCH   1  30
TORSDOF 9
ENDMDL
MODEL 2
REMARK VINA RESULT:      -7.2      3.066      5.534
REMARK  Name = 
REMARK  9 active torsions:
REMARK  status: ('A' for Active; 'I' for Inactive)
REMARK    1  A    between atoms: C_2  and  C_12
REMARK    2  A    between atoms: N_7  and  C_8
REMARK    3  A    between atoms: C_8  and  C_9
REMARK    4  A    between atoms: C_9  and  O_10
REMARK    5  A    between atoms: C_12  and  C_13
REMARK    6  A    between atoms: C_12  and  N_20
REMARK    7  A    between atoms: C_13  and  C_14
REMARK    8  A    between atoms: C_24  and  S_25
REMARK    9  A    between atoms: S_25  and  C_28
REMARK                            x       y       z     vdW  Elec       q    Type
REMARK                         _______ _______ _______ _____ _____    ______ ____
ROOT
ATOM      1  C   UNL     1       1.809   7.129  19.658  0.00  0.00    +0.000 C 
ENDROOT
BRANCH   1   3
ATOM      2  O   UNL     1       2.622   7.324  17.447  0.00  0.00    +0.000 OA
ATOM      3  C   UNL     1       2.842   6.865  18.572  0.00  0.00    +0.000 C 
ATOM      4  N   UNL     1       3.964   6.150  18.899  0.00  0.00    +0.000 N 
ATOM      5  C   UNL     1       4.911   5.720  17.992  0.00  0.00    +0.000 A 
ATOM      6  C   UNL     1       6.103   5.042  18.368  0.00  0.00    +0.000 A 
ATOM      7  C   UNL     1       6.797   4.845  17.194  0.00  0.00    +0.000 A 
ATOM      8  N   UNL     1       6.020   5.412  16.225  0.00  0.00    +0.000 N 
ATOM      9  N   UNL     1       4.850   5.866  16.683  0.00  0.00    +0.000 NA
ATOM     10  H   UNL     1       4.268   6.054  19.856  0.00  0.00    +0.000 HD
BRANCH   8  11
ATOM     11  C   UNL     1       6.408   5.656  14.842  0.00  0.00    +0.000 C 
BRANCH  11  12
ATOM     12  C   UNL     1       7.155   4.505  14.183  0.00  0.00    +0.000 C 
BRANCH  12  13
ATOM     13  O   UNL     1       6.282   3.396  13.930  0.00  0.00    +0.000 OA
ATOM     14  H   UNL     1       6.448   3.143  12.988  0.00  0.00    +0.000 HD
ENDBRANCH  12  13
ENDBRANCH  11  12
ENDBRANCH   8  11
ENDBRANCH   1   3
BRANCH   1  15
ATOM     15  N   UNL     1       1.428   8.487  20.077  0.00  0.00    +0.000 N 
ATOM     16  N   UNL     1       1.092   8.628  21.391  0.00  0.00    +0.000 NA
ATOM     17  C   UNL     1       0.157   9.581  21.361  0.00  0.00    +0.000 A 
ATOM     18  C   UNL     1      -0.153   9.996  20.038  0.00  0.00    +0.000 A 
ATOM     19  C   UNL     1      -0.880  11.081  19.509  0.00  0.00    +0.000 A 
ATOM     20  C   UNL     1       0.008  12.148  19.354  0.00  0.00    +0.000 A 
ATOM     21  C   UNL     1       1.223  11.881  18.708  0.00  0.00    +0.000 A 
ATOM     22  C   UNL     1       1.698  10.560  18.569  0.00  0.00    +0.000 A 
ATOM     23  C   UNL     1       1.057   9.642  19.414  0.00  0.00    +0.000 A 
BRANCH  19  24
ATOM     24  S   UNL     1      -1.732  10.809  17.861  0.00  0.00    +0.000 S 
ATOM     25  O   UNL     1      -1.614  12.059  17.129  0.00  0.00    +0.000 OA
ATOM     26  O   UNL     1      -1.210   9.572  17.305  0.00  0.00    +0.000 OA
BRANCH  24  27
ATOM     27  C   UNL     1      -3.495  10.498  18.143  0.00  0.00    +0.000 C 
ATOM     28  C   UNL     1      -4.371  11.693  18.372  0.00  0.00    +0.000 C 
ATOM     29  C   UNL     1      -4.391  11.010  17.034  0.00  0.00    +0.000 C 
ENDBRANCH  24  27
ENDBRANCH  19  24
ENDBRANCH   1  15
BRANCH   1  30
ATOM     30  C   UNL     1       1.964   6.119  20.828  0.00  0.00    +0.000 C 
BRANCH  30  31
ATOM     31  C   UNL     1       1.319   4.724  20.662  0.00  0.00    +0.000 C 
ATOM     32  C   UNL     1       2.079   3.703  21.531  0.00  0.00    +0.000 C 
ATOM     33  C   UNL     1       1.653   2.269  21.244  0.00  0.00    +0.000 C 
ATOM     34  O   UNL     1       1.782   1.977  19.854  0.00  0.00    +0.000 OA
ATOM     35  C   UNL     1       0.921   2.791  19.068  0.00  0.00    +0.000 C 
ATOM     36  C   UNL     1       1.292   4.261  19.203  0.00  0.00    +0.000 C 
ENDBRANCH  30  31
ENDBRANCH   1  30
TORSDOF 9
ENDMDL
MODEL 3
REMARK VINA RESULT:      -7.1      3.065      5.656
REMARK  Name = 
REMARK  9 active torsions:
REMARK  status: ('A' for Active; 'I' for Inactive)
REMARK    1  A    between atoms: C_2  and  C_12
REMARK    2  A    between atoms: N_7  and  C_8
REMARK    3  A    between atoms: C_8  and  C_9
REMARK    4  A    between atoms: C_9  and  O_10
REMARK    5  A    between atoms: C_12  and  C_13
REMARK    6  A    between atoms: C_12  and  N_20
REMARK    7  A    between atoms: C_13  and  C_14
REMARK    8  A    between atoms: C_24  and  S_25
REMARK    9  A    between atoms: S_25  and  C_28
REMARK                            x       y       z     vdW  Elec       q    Type
REMARK                         _______ _______ _______ _____ _____    ______ ____
ROOT
ATOM      1  C   UNL     1       1.810   7.129  19.603  0.00  0.00    +0.000 C 
ENDROOT
BRANCH   1   3
ATOM      2  O   UNL     1       2.866   6.981  17.493  0.00  0.00    +0.000 OA
ATOM      3  C   UNL     1       2.988   6.780  18.705  0.00  0.00    +0.000 C 
ATOM      4  N   UNL     1       4.125   6.279  19.286  0.00  0.00    +0.000 N 
ATOM      5  C   UNL     1       5.212   5.795  18.587  0.00  0.00    +0.000 A 
ATOM      6  C   UNL     1       6.407   5.347  19.214  0.00  0.00    +0.000 A 
ATOM      7  C   UNL     1       7.255   5.008  18.182  0.00  0.00    +0.000 A 
ATOM      8  N   UNL     1       6.552   5.279  17.043  0.00  0.00    +0.000 N 
ATOM      9  N   UNL     1       5.298   5.674  17.277  0.00  0.00    +0.000 NA
ATOM     10  H   UNL     1       4.316   6.409  20.266  0.00  0.00    +0.000 HD
BRANCH   8  11
ATOM     11  C   UNL     1       7.083   5.292  15.686  0.00  0.00    +0.000 C 
BRANCH  11  12
ATOM     12  C   UNL     1       6.567   4.170  14.797  0.00  0.00    +0.000 C 
BRANCH  12  13
ATOM     13  O   UNL     1       6.044   3.086  15.577  0.00  0.00    +0.000 OA
ATOM     14  H   UNL     1       6.080   2.296  14.982  0.00  0.00    +0.000 HD
ENDBRANCH  12  13
ENDBRANCH  11  12
ENDBRANCH   8  11
ENDBRANCH   1   3
BRANCH   1  15
ATOM     15  N   UNL     1       1.509   8.507  20.016  0.00  0.00    +0.000 N 
ATOM     16  N   UNL     1       1.248   8.684  21.344  0.00  0.00    +0.000 NA
ATOM     17  C   UNL     1       0.353   9.675  21.345  0.00  0.00    +0.000 A 
ATOM     18  C   UNL     1      -0.008  10.083  20.033  0.00  0.00    +0.000 A 
ATOM     19  C   UNL     1      -0.715  11.190  19.522  0.00  0.00    +0.000 A 
ATOM     20  C   UNL     1       0.208  12.215  19.303  0.00  0.00    +0.000 A 
ATOM     21  C   UNL     1       1.375  11.886  18.600  0.00  0.00    +0.000 A 
ATOM     22  C   UNL     1       1.787  10.543  18.460  0.00  0.00    +0.000 A 
ATOM     23  C   UNL     1       1.152   9.667  19.353  0.00  0.00    +0.000 A 
BRANCH  19  24
ATOM     24  S   UNL     1      -1.661  10.929  17.925  0.00  0.00    +0.000 S 
ATOM     25  O   UNL     1      -1.592  12.186  17.199  0.00  0.00    +0.000 OA
ATOM     26  O   UNL     1      -1.169   9.699  17.327  0.00  0.00    +0.000 OA
BRANCH  24  27
ATOM     27  C   UNL     1      -3.404  10.608  18.308  0.00  0.00    +0.000 C 
ATOM     28  C   UNL     1      -4.287  11.801  18.520  0.00  0.00    +0.000 C 
ATOM     29  C   UNL     1      -4.361  11.051  17.220  0.00  0.00    +0.000 C 
ENDBRANCH  24  27
ENDBRANCH  19  24
ENDBRANCH   1  15
BRANCH   1  30
ATOM     30  C   UNL     1       1.639   6.071  20.729  0.00  0.00    +0.000 C 
BRANCH  30  31
ATOM     31  C   UNL     1       2.123   4.632  20.440  0.00  0.00    +0.000 C 
ATOM     32  C   UNL     1       1.116   3.934  19.504  0.00  0.00    +0.000 C 
ATOM     33  C   UNL     1       1.398   2.444  19.359  0.00  0.00    +0.000 C 
ATOM     34  O   UNL     1       1.449   1.818  20.639  0.00  0.00    +0.000 OA
ATOM     35  C   UNL     1       2.516   2.329  21.429  0.00  0.00    +0.000 C 
ATOM     36  C   UNL     1       2.316   3.810  21.716  0.00  0.00    +0.000 C 
ENDBRANCH  30  31
ENDBRANCH   1  30
TORSDOF 9
ENDMDL
MODEL 4
REMARK VINA RESULT:      -7.1      1.784      2.487
REMARK  Name = 
REMARK  9 active torsions:
REMARK  status: ('A' for Active; 'I' for Inactive)
REMARK    1  A    between atoms: C_2  and  C_12
REMARK    2  A    between atoms: N_7  and  C_8
REMARK    3  A    between atoms: C_8  and  C_9
REMARK    4  A    between atoms: C_9  and  O_10
REMARK    5  A    between atoms: C_12  and  C_13
REMARK    6  A    between atoms: C_12  and  N_20
REMARK    7  A    between atoms: C_13  and  C_14
REMARK    8  A    between atoms: C_24  and  S_25
REMARK    9  A    between atoms: S_25  and  C_28
REMARK                            x       y       z     vdW  Elec       q    Type
REMARK                         _______ _______ _______ _____ _____    ______ ____
ROOT
ATOM      1  C   UNL     1       0.384  10.839  18.636  0.00  0.00    +0.000 C 
ENDROOT
BRANCH   1   3
ATOM      2  O   UNL     1       2.105   9.771  17.416  0.00  0.00    +0.000 OA
ATOM      3  C   UNL     1       1.377   9.707  18.412  0.00  0.00    +0.000 C 
ATOM      4  N   UNL     1       1.425   8.690  19.329  0.00  0.00    +0.000 N 
ATOM      5  C   UNL     1       2.174   7.540  19.184  0.00  0.00    +0.000 A 
ATOM      6  C   UNL     1       2.261   6.533  20.184  0.00  0.00    +0.000 A 
ATOM      7  C   UNL     1       3.141   5.598  19.684  0.00  0.00    +0.000 A 
ATOM      8  N   UNL     1       3.527   6.089  18.470  0.00  0.00    +0.000 N 
ATOM      9  N   UNL     1       2.890   7.212  18.127  0.00  0.00    +0.000 NA
ATOM     10  H   UNL     1       1.062   8.805  20.262  0.00  0.00    +0.000 HD
BRANCH   8  11
ATOM     11  C   UNL     1       4.609   5.578  17.639  0.00  0.00    +0.000 C 
BRANCH  11  12
ATOM     12  C   UNL     1       4.982   4.128  17.909  0.00  0.00    +0.000 C 
BRANCH  12  13
ATOM     13  O   UNL     1       6.337   4.014  18.365  0.00  0.00    +0.000 OA
ATOM     14  H   UNL     1       6.504   3.042  18.444  0.00  0.00    +0.000 HD
ENDBRANCH  12  13
ENDBRANCH  11  12
ENDBRANCH   8  11
ENDBRANCH   1   3
BRANCH   1  15
ATOM     15  N   UNL     1       0.789  12.160  19.139  0.00  0.00    +0.000 N 
ATOM     16  N   UNL     1       1.924  12.183  19.895  0.00  0.00    +0.000 NA
ATOM     17  C   UNL     1       1.683  13.162  20.770  0.00  0.00    +0.000 A 
ATOM     18  C   UNL     1       0.382  13.714  20.623  0.00  0.00    +0.000 A 
ATOM     19  C   UNL     1      -0.245  14.867  21.135  0.00  0.00    +0.000 A 
ATOM     20  C   UNL     1       0.014  15.917  20.250  0.00  0.00    +0.000 A 
ATOM     21  C   UNL     1      -0.215  15.676  18.889  0.00  0.00    +0.000 A 
ATOM     22  C   UNL     1      -0.323  14.361  18.389  0.00  0.00    +0.000 A 
ATOM     23  C   UNL     1       0.162  13.385  19.273  0.00  0.00    +0.000 A 
BRANCH  19  24
ATOM     24  S   UNL     1      -2.101  14.784  21.387  0.00  0.00    +0.000 S 
ATOM     25  O   UNL     1      -2.667  15.878  20.616  0.00  0.00    +0.000 OA
ATOM     26  O   UNL     1      -2.509  13.411  21.138  0.00  0.00    +0.000 OA
BRANCH  24  27
ATOM     27  C   UNL     1      -2.482  15.085  23.134  0.00  0.00    +0.000 C 
ATOM     28  C   UNL     1      -2.939  13.910  23.944  0.00  0.00    +0.000 C 
ATOM     29  C   UNL     1      -1.527  14.405  24.093  0.00  0.00    +0.000 C 
ENDBRANCH  24  27
ENDBRANCH  19  24
ENDBRANCH   1  15
BRANCH   1  30
ATOM     30  C   UNL     1      -0.941  10.301  19.244  0.00  0.00    +0.000 C 
BRANCH  30  31
ATOM     31  C   UNL     1      -2.169  10.202  18.310  0.00  0.00    +0.000 C 
ATOM     32  C   UNL     1      -1.706   9.792  16.898  0.00  0.00    +0.000 C 
ATOM     33  C   UNL     1      -2.824   9.900  15.869  0.00  0.00    +0.000 C 
ATOM     34  O   UNL     1      -3.387  11.209  15.878  0.00  0.00    +0.000 OA
ATOM     35  C   UNL     1      -3.996  11.507  17.129  0.00  0.00    +0.000 C 
ATOM     36  C   UNL     1      -2.964  11.509  18.247  0.00  0.00    +0.000 C 
ENDBRANCH  30  31
ENDBRANCH   1  30
TORSDOF 9
ENDMDL
MODEL 5
REMARK VINA RESULT:      -7.1      2.784      4.002
REMARK  Name = 
REMARK  9 active torsions:
REMARK  status: ('A' for Active; 'I' for Inactive)
REMARK    1  A    between atoms: C_2  and  C_12
REMARK    2  A    between atoms: N_7  and  C_8
REMARK    3  A    between atoms: C_8  and  C_9
REMARK    4  A    between atoms: C_9  and  O_10
REMARK    5  A    between atoms: C_12  and  C_13
REMARK    6  A    between atoms: C_12  and  N_20
REMARK    7  A    between atoms: C_13  and  C_14
REMARK    8  A    between atoms: C_24  and  S_25
REMARK    9  A    between atoms: S_25  and  C_28
REMARK                            x       y       z     vdW  Elec       q    Type
REMARK                         _______ _______ _______ _____ _____    ______ ____
ROOT
ATOM      1  C   UNL     1       1.361  10.412  19.256  0.00  0.00    +0.000 C 
ENDROOT
BRANCH   1   3
ATOM      2  O   UNL     1       2.108   8.883  17.614  0.00  0.00    +0.000 OA
ATOM      3  C   UNL     1       1.811   9.030  18.804  0.00  0.00    +0.000 C 
ATOM      4  N   UNL     1       1.881   8.029  19.738  0.00  0.00    +0.000 N 
ATOM      5  C   UNL     1       2.139   6.705  19.448  0.00  0.00    +0.000 A 
ATOM      6  C   UNL     1       2.277   5.700  20.444  0.00  0.00    +0.000 A 
ATOM      7  C   UNL     1       2.587   4.546  19.757  0.00  0.00    +0.000 A 
ATOM      8  N   UNL     1       2.633   4.917  18.444  0.00  0.00    +0.000 N 
ATOM      9  N   UNL     1       2.286   6.192  18.243  0.00  0.00    +0.000 NA
ATOM     10  H   UNL     1       1.936   8.232  20.724  0.00  0.00    +0.000 HD
BRANCH   8  11
ATOM     11  C   UNL     1       3.128   4.110  17.337  0.00  0.00    +0.000 C 
BRANCH  11  12
ATOM     12  C   UNL     1       2.904   2.613  17.498  0.00  0.00    +0.000 C 
BRANCH  12  13
ATOM     13  O   UNL     1       4.116   1.943  17.870  0.00  0.00    +0.000 OA
ATOM     14  H   UNL     1       4.265   1.263  17.167  0.00  0.00    +0.000 HD
ENDBRANCH  12  13
ENDBRANCH  11  12
ENDBRANCH   8  11
ENDBRANCH   1   3
BRANCH   1  15
ATOM     15  N   UNL     1       0.046  10.657  19.866  0.00  0.00    +0.000 N 
ATOM     16  N   UNL     1      -1.011  10.687  19.004  0.00  0.00    +0.000 NA
ATOM     17  C   UNL     1      -1.829  11.582  19.562  0.00  0.00    +0.000 A 
ATOM     18  C   UNL     1      -1.275  12.170  20.730  0.00  0.00    +0.000 A 
ATOM     19  C   UNL     1      -1.810  12.971  21.759  0.00  0.00    +0.000 A 
ATOM     20  C   UNL     1      -2.307  12.115  22.745  0.00  0.00    +0.000 A 
ATOM     21  C   UNL     1      -1.464  11.083  23.179  0.00  0.00    +0.000 A 
ATOM     22  C   UNL     1      -0.349  10.682  22.413  0.00  0.00    +0.000 A 
ATOM     23  C   UNL     1      -0.386  11.140  21.087  0.00  0.00    +0.000 A 
BRANCH  19  24
ATOM     24  S   UNL     1      -0.641  14.176  22.593  0.00  0.00    +0.000 S 
ATOM     25  O   UNL     1      -0.981  14.165  24.005  0.00  0.00    +0.000 OA
ATOM     26  O   UNL     1       0.705  13.848  22.150  0.00  0.00    +0.000 OA
BRANCH  24  27
ATOM     27  C   UNL     1      -0.954  15.847  21.963  0.00  0.00    +0.000 C 
ATOM     28  C   UNL     1      -1.844  15.968  20.763  0.00  0.00    +0.000 C 
ATOM     29  C   UNL     1      -2.390  16.301  22.123  0.00  0.00    +0.000 C 
ENDBRANCH  24  27
ENDBRANCH  19  24
ENDBRANCH   1  15
BRANCH   1  30
ATOM     30  C   UNL     1       1.807  11.500  18.239  0.00  0.00    +0.000 C 
BRANCH  30  31
ATOM     31  C   UNL     1       2.156  12.900  18.794  0.00  0.00    +0.000 C 
ATOM     32  C   UNL     1       0.960  13.848  18.576  0.00  0.00    +0.000 C 
ATOM     33  C   UNL     1       1.310  15.298  18.884  0.00  0.00    +0.000 C 
ATOM     34  O   UNL     1       2.450  15.708  18.133  0.00  0.00    +0.000 OA
ATOM     35  C   UNL     1       3.605  14.959  18.488  0.00  0.00    +0.000 C 
ATOM     36  C   UNL     1       3.418  13.485  18.157  0.00  0.00    +0.000 C 
ENDBRANCH  30  31
ENDBRANCH   1  30
TORSDOF 9
ENDMDL
MODEL 6
REMARK VINA RESULT:      -7.1      2.263      2.928
REMARK  Name = 
REMARK  9 active torsions:
REMARK  status: ('A' for Active; 'I' for Inactive)
REMARK    1  A    between atoms: C_2  and  C_12
REMARK    2  A    between atoms: N_7  and  C_8
REMARK    3  A    between atoms: C_8  and  C_9
REMARK    4  A    between atoms: C_9  and  O_10
REMARK    5  A    between atoms: C_12  and  C_13
REMARK    6  A    between atoms: C_12  and  N_20
REMARK    7  A    between atoms: C_13  and  C_14
REMARK    8  A    between atoms: C_24  and  S_25
REMARK    9  A    between atoms: S_25  and  C_28
REMARK                            x       y       z     vdW  Elec       q    Type
REMARK                         _______ _______ _______ _____ _____    ______ ____
ROOT
ATOM      1  C   UNL     1       0.354  10.467  18.646  0.00  0.00    +0.000 C 
ENDROOT
BRANCH   1   3
ATOM      2  O   UNL     1       2.262   9.740  17.452  0.00  0.00    +0.000 OA
ATOM      3  C   UNL     1       1.479   9.479  18.371  0.00  0.00    +0.000 C 
ATOM      4  N   UNL     1       1.577   8.365  19.164  0.00  0.00    +0.000 N 
ATOM      5  C   UNL     1       2.456   7.323  18.946  0.00  0.00    +0.000 A 
ATOM      6  C   UNL     1       2.586   6.213  19.825  0.00  0.00    +0.000 A 
ATOM      7  C   UNL     1       3.595   5.442  19.291  0.00  0.00    +0.000 A 
ATOM      8  N   UNL     1       4.007   6.118  18.179  0.00  0.00    +0.000 N 
ATOM      9  N   UNL     1       3.275   7.205  17.919  0.00  0.00    +0.000 NA
ATOM     10  H   UNL     1       1.140   8.324  20.071  0.00  0.00    +0.000 HD
BRANCH   8  11
ATOM     11  C   UNL     1       5.193   5.828  17.384  0.00  0.00    +0.000 C 
BRANCH  11  12
ATOM     12  C   UNL     1       5.542   4.350  17.288  0.00  0.00    +0.000 C 
BRANCH  12  13
ATOM     13  O   UNL     1       6.598   4.005  18.197  0.00  0.00    +0.000 OA
ATOM     14  H   UNL     1       6.226   4.163  19.100  0.00  0.00    +0.000 HD
ENDBRANCH  12  13
ENDBRANCH  11  12
ENDBRANCH   8  11
ENDBRANCH   1   3
BRANCH   1  15
ATOM     15  N   UNL     1       0.320  11.315  19.846  0.00  0.00    +0.000 N 
ATOM     16  N   UNL     1      -0.516  10.900  20.841  0.00  0.00    +0.000 NA
ATOM     17  C   UNL     1      -0.934  12.047  21.381  0.00  0.00    +0.000 A 
ATOM     18  C   UNL     1      -0.427  13.186  20.698  0.00  0.00    +0.000 A 
ATOM     19  C   UNL     1      -0.397  14.562  20.998  0.00  0.00    +0.000 A 
ATOM     20  C   UNL     1       0.769  14.809  21.728  0.00  0.00    +0.000 A 
ATOM     21  C   UNL     1       1.966  14.291  21.216  0.00  0.00    +0.000 A 
ATOM     22  C   UNL     1       1.960  13.263  20.249  0.00  0.00    +0.000 A 
ATOM     23  C   UNL     1       0.726  12.604  20.140  0.00  0.00    +0.000 A 
BRANCH  19  24
ATOM     24  S   UNL     1      -0.418  15.749  19.547  0.00  0.00    +0.000 S 
ATOM     25  O   UNL     1      -0.339  14.931  18.349  0.00  0.00    +0.000 OA
ATOM     26  O   UNL     1      -1.532  16.661  19.751  0.00  0.00    +0.000 OA
BRANCH  24  27
ATOM     27  C   UNL     1       1.065  16.790  19.604  0.00  0.00    +0.000 C 
ATOM     28  C   UNL     1       2.010  16.695  18.443  0.00  0.00    +0.000 C 
ATOM     29  C   UNL     1       1.089  17.878  18.550  0.00  0.00    +0.000 C 
ENDBRANCH  24  27
ENDBRANCH  19  24
ENDBRANCH   1  15
BRANCH   1  30
ATOM     30  C   UNL     1      -1.022   9.864  18.249  0.00  0.00    +0.000 C 
BRANCH  30  31
ATOM     31  C   UNL     1      -1.967  10.738  17.393  0.00  0.00    +0.000 C 
ATOM     32  C   UNL     1      -3.181  11.161  18.245  0.00  0.00    +0.000 C 
ATOM     33  C   UNL     1      -4.268  11.826  17.410  0.00  0.00    +0.000 C 
ATOM     34  O   UNL     1      -4.653  10.984  16.327  0.00  0.00    +0.000 OA
ATOM     35  C   UNL     1      -3.573  10.760  15.429  0.00  0.00    +0.000 C 
ATOM     36  C   UNL     1      -2.435  10.024  16.123  0.00  0.00    +0.000 C 
ENDBRANCH  30  31
ENDBRANCH   1  30
TORSDOF 9
ENDMDL
MODEL 7
REMARK VINA RESULT:      -7.1      2.374      3.172
REMARK  Name = 
REMARK  9 active torsions:
REMARK  status: ('A' for Active; 'I' for Inactive)
REMARK    1  A    between atoms: C_2  and  C_12
REMARK    2  A    between atoms: N_7  and  C_8
REMARK    3  A    between atoms: C_8  and  C_9
REMARK    4  A    between atoms: C_9  and  O_10
REMARK    5  A    between atoms: C_12  and  C_13
REMARK    6  A    between atoms: C_12  and  N_20
REMARK    7  A    between atoms: C_13  and  C_14
REMARK    8  A    between atoms: C_24  and  S_25
REMARK    9  A    between atoms: S_25  and  C_28
REMARK                            x       y       z     vdW  Elec       q    Type
REMARK                         _______ _______ _______ _____ _____    ______ ____
ROOT
ATOM      1  C   UNL     1      -0.012  10.798  18.821  0.00  0.00    +0.000 C 
ENDROOT
BRANCH   1   3
ATOM      2  O   UNL     1       0.444   8.860  20.098  0.00  0.00    +0.000 OA
ATOM      3  C   UNL     1       0.720   9.487  19.070  0.00  0.00    +0.000 C 
ATOM      4  N   UNL     1       1.632   9.061  18.138  0.00  0.00    +0.000 N 
ATOM      5  C   UNL     1       2.463   7.971  18.297  0.00  0.00    +0.000 A 
ATOM      6  C   UNL     1       3.348   7.510  17.285  0.00  0.00    +0.000 A 
ATOM      7  C   UNL     1       3.943   6.382  17.807  0.00  0.00    +0.000 A 
ATOM      8  N   UNL     1       3.388   6.230  19.045  0.00  0.00    +0.000 N 
ATOM      9  N   UNL     1       2.560   7.224  19.379  0.00  0.00    +0.000 NA
ATOM     10  H   UNL     1       1.619   9.408  17.192  0.00  0.00    +0.000 HD
BRANCH   8  11
ATOM     11  C   UNL     1       3.525   5.069  19.915  0.00  0.00    +0.000 C 
BRANCH  11  12
ATOM     12  C   UNL     1       2.720   3.855  19.478  0.00  0.00    +0.000 C 
BRANCH  12  13
ATOM     13  O   UNL     1       1.360   4.208  19.186  0.00  0.00    +0.000 OA
ATOM     14  H   UNL     1       0.877   3.348  19.113  0.00  0.00    +0.000 HD
ENDBRANCH  12  13
ENDBRANCH  11  12
ENDBRANCH   8  11
ENDBRANCH   1   3
BRANCH   1  15
ATOM     15  N   UNL     1       0.595  12.109  19.093  0.00  0.00    +0.000 N 
ATOM     16  N   UNL     1       1.950  12.112  19.250  0.00  0.00    +0.000 NA
ATOM     17  C   UNL     1       2.147  13.082  20.145  0.00  0.00    +0.000 A 
ATOM     18  C   UNL     1       0.930  13.649  20.609  0.00  0.00    +0.000 A 
ATOM     19  C   UNL     1       0.620  14.802  21.358  0.00  0.00    +0.000 A 
ATOM     20  C   UNL     1       0.463  15.859  20.458  0.00  0.00    +0.000 A 
ATOM     21  C   UNL     1      -0.364  15.637  19.349  0.00  0.00    +0.000 A 
ATOM     22  C   UNL     1      -0.706  14.329  18.945  0.00  0.00    +0.000 A 
ATOM     23  C   UNL     1       0.115  13.338  19.505  0.00  0.00    +0.000 A 
BRANCH  19  24
ATOM     24  S   UNL     1      -0.919  14.733  22.426  0.00  0.00    +0.000 S 
ATOM     25  O   UNL     1      -0.460  14.721  23.804  0.00  0.00    +0.000 OA
ATOM     26  O   UNL     1      -1.819  15.772  21.952  0.00  0.00    +0.000 OA
BRANCH  24  27
ATOM     27  C   UNL     1      -1.790  13.173  22.120  0.00  0.00    +0.000 C 
ATOM     28  C   UNL     1      -1.408  12.001  22.973  0.00  0.00    +0.000 C 
ATOM     29  C   UNL     1      -2.685  12.739  23.263  0.00  0.00    +0.000 C 
ENDBRANCH  24  27
ENDBRANCH  19  24
ENDBRANCH   1  15
BRANCH   1  30
ATOM     30  C   UNL     1      -1.505  10.685  19.236  0.00  0.00    +0.000 C 
BRANCH  30  31
ATOM     31  C   UNL     1      -2.538  10.386  18.125  0.00  0.00    +0.000 C 
ATOM     32  C   UNL     1      -1.796  10.045  16.818  0.00  0.00    +0.000 C 
ATOM     33  C   UNL     1      -2.737   9.967  15.623  0.00  0.00    +0.000 C 
ATOM     34  O   UNL     1      -3.492  11.171  15.501  0.00  0.00    +0.000 OA
ATOM     35  C   UNL     1      -4.332  11.377  16.630  0.00  0.00    +0.000 C 
ATOM     36  C   UNL     1      -3.505  11.550  17.896  0.00  0.00    +0.000 C 
ENDBRANCH  30  31
ENDBRANCH   1  30
TORSDOF 9
ENDMDL
MODEL 8
REMARK VINA RESULT:      -7.0      4.182      8.174
REMARK  Name = 
REMARK  9 active torsions:
REMARK  status: ('A' for Active; 'I' for Inactive)
REMARK    1  A    between atoms: C_2  and  C_12
REMARK    2  A    between atoms: N_7  and  C_8
REMARK    3  A    between atoms: C_8  and  C_9
REMARK    4  A    between atoms: C_9  and  O_10
REMARK    5  A    between atoms: C_12  and  C_13
REMARK    6  A    between atoms: C_12  and  N_20
REMARK    7  A    between atoms: C_13  and  C_14
REMARK    8  A    between atoms: C_24  and  S_25
REMARK    9  A    between atoms: S_25  and  C_28
REMARK                            x       y       z     vdW  Elec       q    Type
REMARK                         _______ _______ _______ _____ _____    ______ ____
ROOT
ATOM      1  C   UNL     1       2.860   7.700  18.249  0.00  0.00    +0.000 C 
ENDROOT
BRANCH   1   3
ATOM      2  O   UNL     1       3.870   7.618  16.113  0.00  0.00    +0.000 OA
ATOM      3  C   UNL     1       3.912   7.194  17.273  0.00  0.00    +0.000 C 
ATOM      4  N   UNL     1       4.857   6.313  17.730  0.00  0.00    +0.000 N 
ATOM      5  C   UNL     1       5.780   5.671  16.931  0.00  0.00    +0.000 A 
ATOM      6  C   UNL     1       6.796   4.817  17.442  0.00  0.00    +0.000 A 
ATOM      7  C   UNL     1       7.535   4.432  16.345  0.00  0.00    +0.000 A 
ATOM      8  N   UNL     1       6.953   5.068  15.285  0.00  0.00    +0.000 N 
ATOM      9  N   UNL     1       5.852   5.748  15.617  0.00  0.00    +0.000 NA
ATOM     10  H   UNL     1       5.061   6.223  18.713  0.00  0.00    +0.000 HD
BRANCH   8  11
ATOM     11  C   UNL     1       7.489   5.158  13.934  0.00  0.00    +0.000 C 
BRANCH  11  12
ATOM     12  C   UNL     1       6.874   4.180  12.944  0.00  0.00    +0.000 C 
BRANCH  12  13
ATOM     13  O   UNL     1       6.021   3.236  13.608  0.00  0.00    +0.000 OA
ATOM     14  H   UNL     1       5.655   3.720  14.390  0.00  0.00    +0.000 HD
ENDBRANCH  12  13
ENDBRANCH  11  12
ENDBRANCH   8  11
ENDBRANCH   1   3
BRANCH   1  15
ATOM     15  N   UNL     1       2.117   6.804  19.149  0.00  0.00    +0.000 N 
ATOM     16  N   UNL     1       1.712   7.354  20.330  0.00  0.00    +0.000 NA
ATOM     17  C   UNL     1       1.778   6.326  21.178  0.00  0.00    +0.000 A 
ATOM     18  C   UNL     1       2.284   5.148  20.566  0.00  0.00    +0.000 A 
ATOM     19  C   UNL     1       2.336   3.796  20.961  0.00  0.00    +0.000 A 
ATOM     20  C   UNL     1       1.150   3.188  20.540  0.00  0.00    +0.000 A 
ATOM     21  C   UNL     1       0.760   3.400  19.211  0.00  0.00    +0.000 A 
ATOM     22  C   UNL     1       1.300   4.461  18.453  0.00  0.00    +0.000 A 
ATOM     23  C   UNL     1       1.941   5.436  19.232  0.00  0.00    +0.000 A 
BRANCH  19  24
ATOM     24  S   UNL     1       3.762   2.772  20.301  0.00  0.00    +0.000 S 
ATOM     25  O   UNL     1       4.679   3.707  19.672  0.00  0.00    +0.000 OA
ATOM     26  O   UNL     1       4.207   1.907  21.382  0.00  0.00    +0.000 OA
BRANCH  24  27
ATOM     27  C   UNL     1       3.148   1.651  19.016  0.00  0.00    +0.000 C 
ATOM     28  C   UNL     1       3.536   1.958  17.601  0.00  0.00    +0.000 C 
ATOM     29  C   UNL     1       4.238   0.849  18.334  0.00  0.00    +0.000 C 
ENDBRANCH  24  27
ENDBRANCH  19  24
ENDBRANCH   1  15
BRANCH   1  30
ATOM     30  C   UNL     1       1.996   8.818  17.603  0.00  0.00    +0.000 C 
BRANCH  30  31
ATOM     31  C   UNL     1       1.602  10.023  18.488  0.00  0.00    +0.000 C 
ATOM     32  C   UNL     1       0.068  10.170  18.496  0.00  0.00    +0.000 C 
ATOM     33  C   UNL     1      -0.384  11.468  19.154  0.00  0.00    +0.000 C 
ATOM     34  O   UNL     1       0.249  12.587  18.539  0.00  0.00    +0.000 OA
ATOM     35  C   UNL     1       1.660  12.549  18.712  0.00  0.00    +0.000 C 
ATOM     36  C   UNL     1       2.257  11.327  18.028  0.00  0.00    +0.000 C 
ENDBRANCH  30  31
ENDBRANCH   1  30
TORSDOF 9
ENDMDL
MODEL 9
REMARK VINA RESULT:      -7.0      2.340      2.917
REMARK  Name = 
REMARK  9 active torsions:
REMARK  status: ('A' for Active; 'I' for Inactive)
REMARK    1  A    between atoms: C_2  and  C_12
REMARK    2  A    between atoms: N_7  and  C_8
REMARK    3  A    between atoms: C_8  and  C_9
REMARK    4  A    between atoms: C_9  and  O_10
REMARK    5  A    between atoms: C_12  and  C_13
REMARK    6  A    between atoms: C_12  and  N_20
REMARK    7  A    between atoms: C_13  and  C_14
REMARK    8  A    between atoms: C_24  and  S_25
REMARK    9  A    between atoms: S_25  and  C_28
REMARK                            x       y       z     vdW  Elec       q    Type
REMARK                         _______ _______ _______ _____ _____    ______ ____
ROOT
ATOM      1  C   UNL     1      -0.017  11.184  18.940  0.00  0.00    +0.000 C 
ENDROOT
BRANCH   1   3
ATOM      2  O   UNL     1       0.226   9.212  20.221  0.00  0.00    +0.000 OA
ATOM      3  C   UNL     1       0.599   9.819  19.213  0.00  0.00    +0.000 C 
ATOM      4  N   UNL     1       1.518   9.328  18.322  0.00  0.00    +0.000 N 
ATOM      5  C   UNL     1       2.254   8.176  18.512  0.00  0.00    +0.000 A 
ATOM      6  C   UNL     1       3.149   7.652  17.539  0.00  0.00    +0.000 A 
ATOM      7  C   UNL     1       3.628   6.479  18.080  0.00  0.00    +0.000 A 
ATOM      8  N   UNL     1       3.004   6.365  19.289  0.00  0.00    +0.000 N 
ATOM      9  N   UNL     1       2.240   7.419  19.591  0.00  0.00    +0.000 NA
ATOM     10  H   UNL     1       1.578   9.680  17.380  0.00  0.00    +0.000 HD
BRANCH   8  11
ATOM     11  C   UNL     1       3.008   5.193  20.155  0.00  0.00    +0.000 C 
BRANCH  11  12
ATOM     12  C   UNL     1       3.262   3.877  19.434  0.00  0.00    +0.000 C 
BRANCH  12  13
ATOM     13  O   UNL     1       2.052   3.350  18.871  0.00  0.00    +0.000 OA
ATOM     14  H   UNL     1       2.312   2.983  17.990  0.00  0.00    +0.000 HD
ENDBRANCH  12  13
ENDBRANCH  11  12
ENDBRANCH   8  11
ENDBRANCH   1   3
BRANCH   1  15
ATOM     15  N   UNL     1       0.568  12.433  19.450  0.00  0.00    +0.000 N 
ATOM     16  N   UNL     1       1.911  12.405  19.686  0.00  0.00    +0.000 NA
ATOM     17  C   UNL     1       2.050  13.222  20.732  0.00  0.00    +0.000 A 
ATOM     18  C   UNL     1       0.805  13.715  21.206  0.00  0.00    +0.000 A 
ATOM     19  C   UNL     1       0.446  14.739  22.106  0.00  0.00    +0.000 A 
ATOM     20  C   UNL     1       0.339  15.925  21.375  0.00  0.00    +0.000 A 
ATOM     21  C   UNL     1      -0.419  15.883  20.197  0.00  0.00    +0.000 A 
ATOM     22  C   UNL     1      -0.730  14.657  19.574  0.00  0.00    +0.000 A 
ATOM     23  C   UNL     1       0.059  13.586  20.020  0.00  0.00    +0.000 A 
BRANCH  19  24
ATOM     24  S   UNL     1      -1.154  14.512  23.056  0.00  0.00    +0.000 S 
ATOM     25  O   UNL     1      -0.823  14.686  24.460  0.00  0.00    +0.000 OA
ATOM     26  O   UNL     1      -2.156  15.351  22.420  0.00  0.00    +0.000 OA
BRANCH  24  27
ATOM     27  C   UNL     1      -1.746  12.813  22.834  0.00  0.00    +0.000 C 
ATOM     28  C   UNL     1      -3.045  12.453  23.489  0.00  0.00    +0.000 C 
ATOM     29  C   UNL     1      -3.011  12.709  22.008  0.00  0.00    +0.000 C 
ENDBRANCH  24  27
ENDBRANCH  19  24
ENDBRANCH   1  15
BRANCH   1  30
ATOM     30  C   UNL     1      -1.566  11.120  19.028  0.00  0.00    +0.000 C 
BRANCH  30  31
ATOM     31  C   UNL     1      -2.373  11.525  17.773  0.00  0.00    +0.000 C 
ATOM     32  C   UNL     1      -3.874  11.565  18.122  0.00  0.00    +0.000 C 
ATOM     33  C   UNL     1      -4.750  11.728  16.886  0.00  0.00    +0.000 C 
ATOM     34  O   UNL     1      -4.459  10.712  15.929  0.00  0.00    +0.000 OA
ATOM     35  C   UNL     1      -3.121  10.806  15.458  0.00  0.00    +0.000 C 
ATOM     36  C   UNL     1      -2.130  10.584  16.591  0.00  0.00    +0.000 C 
ENDBRANCH  30  31
ENDBRANCH   1  30
TORSDOF 9
ENDMDL
