MODEL 1
REMARK VINA RESULT:      -7.1      0.000      0.000
REMARK  Name = 
REMARK  6 active torsions:
REMARK  status: ('A' for Active; 'I' for Inactive)
REMARK    1  A    between atoms: C_1  and  O_2
REMARK    2  A    between atoms: O_2  and  C_3
REMARK    3  A    between atoms: C_5  and  N_6
REMARK    4  A    between atoms: C_10  and  C_11
REMARK    5  A    between atoms: N_13  and  C_14
REMARK    6  A    between atoms: C_22  and  C_23
REMARK                            x       y       z     vdW  Elec       q    Type
REMARK                         _______ _______ _______ _____ _____    ______ ____
ROOT
ATOM      1  C   UNL     1       2.187   8.064  18.714  0.00  0.00    +0.000 C 
ATOM      2  O   UNL     1       3.091   8.403  17.951  0.00  0.00    +0.000 OA
ATOM      3  N   UNL     1       2.193   6.841  19.343  0.00  0.00    +0.000 N 
ATOM      4  H   UNL     1       1.406   6.623  19.947  0.00  0.00    +0.000 HD
ENDROOT
BRANCH   3   5
ATOM      5  C   UNL     1       3.259   5.856  19.174  0.00  0.00    +0.000 C 
ATOM      6  C   UNL     1       3.619   5.700  17.696  0.00  0.00    +0.000 C 
ATOM      7  C   UNL     1       4.700   4.638  17.520  0.00  0.00    +0.000 C 
ATOM      8  N   UNL     1       4.243   3.354  18.046  0.00  0.00    +0.000 NA
ATOM      9  C   UNL     1       3.937   3.450  19.476  0.00  0.00    +0.000 C 
ATOM     10  C   UNL     1       2.825   4.493  19.755  0.00  0.00    +0.000 C 
ATOM     11  C   UNL     1       2.493   4.498  21.284  0.00  0.00    +0.000 C 
ATOM     12  C   UNL     1       1.354   3.500  21.003  0.00  0.00    +0.000 C 
ATOM     13  C   UNL     1       1.328   4.012  19.542  0.00  0.00    +0.000 C 
ATOM     14  C   UNL     1       0.990   2.996  18.469  0.00  0.00    +0.000 C 
ATOM     15  H   UNL     1       4.976   2.657  17.909  0.00  0.00    +0.000 HD
ENDBRANCH   3   5
BRANCH   1  22
ATOM     16  C   UNL     1       0.736   9.605  20.210  0.00  0.00    +0.000 A 
ATOM     17  C   UNL     1      -0.360  10.487  20.296  0.00  0.00    +0.000 A 
ATOM     18  C   UNL     1      -1.158  10.787  19.185  0.00  0.00    +0.000 A 
ATOM     19  C   UNL     1      -0.884  10.127  17.980  0.00  0.00    +0.000 A 
ATOM     20 CL   UNL     1      -1.874  10.392  16.587  0.00  0.00    +0.000 Cl
ATOM     21  C   UNL     1       0.212   9.271  17.867  0.00  0.00    +0.000 A 
ATOM     22  C   UNL     1       1.044   9.005  18.972  0.00  0.00    +0.000 A 
BRANCH  18  23
ATOM     23  N   UNL     1      -2.325  11.553  19.367  0.00  0.00    +0.000 N 
ATOM     24  H   UNL     1      -2.776  11.857  18.511  0.00  0.00    +0.000 HD
ATOM     25  H   UNL     1      -2.975  11.128  20.025  0.00  0.00    +0.000 HD
ENDBRANCH  18  23
BRANCH  16  27
ATOM     26  C   UNL     1       0.883   9.234  22.555  0.00  0.00    +0.000 C 
ATOM     27  O   UNL     1       1.538   9.330  21.291  0.00  0.00    +0.000 OA
ENDBRANCH  16  27
ENDBRANCH   1  22
TORSDOF 4
ENDMDL
MODEL 2
REMARK VINA RESULT:      -6.9      2.057      2.690
REMARK  Name = 
REMARK  6 active torsions:
REMARK  status: ('A' for Active; 'I' for Inactive)
REMARK    1  A    between atoms: C_1  and  O_2
REMARK    2  A    between atoms: O_2  and  C_3
REMARK    3  A    between atoms: C_5  and  N_6
REMARK    4  A    between atoms: C_10  and  C_11
REMARK    5  A    between atoms: N_13  and  C_14
REMARK    6  A    between atoms: C_22  and  C_23
REMARK                            x       y       z     vdW  Elec       q    Type
REMARK                         _______ _______ _______ _____ _____    ______ ____
ROOT
ATOM      1  C   UNL     1       2.111   7.663  19.552  0.00  0.00    +0.000 C 
ATOM      2  O   UNL     1       2.760   8.012  18.567  0.00  0.00    +0.000 OA
ATOM      3  N   UNL     1       2.203   6.391  20.065  0.00  0.00    +0.000 N 
ATOM      4  H   UNL     1       1.626   6.168  20.870  0.00  0.00    +0.000 HD
ENDROOT
BRANCH   3   5
ATOM      5  C   UNL     1       3.073   5.359  19.503  0.00  0.00    +0.000 C 
ATOM      6  C   UNL     1       3.067   5.424  17.974  0.00  0.00    +0.000 C 
ATOM      7  C   UNL     1       3.940   4.317  17.391  0.00  0.00    +0.000 C 
ATOM      8  N   UNL     1       3.458   3.007  17.824  0.00  0.00    +0.000 NA
ATOM      9  C   UNL     1       3.498   2.887  19.284  0.00  0.00    +0.000 C 
ATOM     10  C   UNL     1       2.616   3.960  19.970  0.00  0.00    +0.000 C 
ATOM     11  C   UNL     1       2.642   3.738  21.519  0.00  0.00    +0.000 C 
ATOM     12  C   UNL     1       1.354   2.903  21.384  0.00  0.00    +0.000 C 
ATOM     13  C   UNL     1       1.062   3.654  20.062  0.00  0.00    +0.000 C 
ATOM     14  C   UNL     1       0.366   2.866  18.969  0.00  0.00    +0.000 C 
ATOM     15  H   UNL     1       4.049   2.283  17.415  0.00  0.00    +0.000 HD
ENDBRANCH   3   5
BRANCH   1  22
ATOM     16  C   UNL     1       0.397   9.608  19.564  0.00  0.00    +0.000 A 
ATOM     17  C   UNL     1      -0.435  10.453  20.326  0.00  0.00    +0.000 A 
ATOM     18  C   UNL     1      -0.498  10.367  21.722  0.00  0.00    +0.000 A 
ATOM     19  C   UNL     1       0.352   9.457  22.365  0.00  0.00    +0.000 A 
ATOM     20 CL   UNL     1       0.383   9.352  24.091  0.00  0.00    +0.000 Cl
ATOM     21  C   UNL     1       1.164   8.595  21.628  0.00  0.00    +0.000 A 
ATOM     22  C   UNL     1       1.192   8.647  20.221  0.00  0.00    +0.000 A 
BRANCH  18  23
ATOM     23  N   UNL     1      -1.230  11.336  22.435  0.00  0.00    +0.000 N 
ATOM     24  H   UNL     1      -1.026  12.298  22.183  0.00  0.00    +0.000 HD
ATOM     25  H   UNL     1      -2.228  11.138  22.454  0.00  0.00    +0.000 HD
ENDBRANCH  18  23
BRANCH  16  27
ATOM     26  C   UNL     1      -0.795   9.943  17.533  0.00  0.00    +0.000 C 
ATOM     27  O   UNL     1       0.440   9.669  18.192  0.00  0.00    +0.000 OA
ENDBRANCH  16  27
ENDBRANCH   1  22
TORSDOF 4
ENDMDL
MODEL 3
REMARK VINA RESULT:      -6.8      2.610      4.250
REMARK  Name = 
REMARK  6 active torsions:
REMARK  status: ('A' for Active; 'I' for Inactive)
REMARK    1  A    between atoms: C_1  and  O_2
REMARK    2  A    between atoms: O_2  and  C_3
REMARK    3  A    between atoms: C_5  and  N_6
REMARK    4  A    between atoms: C_10  and  C_11
REMARK    5  A    between atoms: N_13  and  C_14
REMARK    6  A    between atoms: C_22  and  C_23
REMARK                            x       y       z     vdW  Elec       q    Type
REMARK                         _______ _______ _______ _____ _____    ______ ____
ROOT
ATOM      1  C   UNL     1       3.323   7.292  17.602  0.00  0.00    +0.000 C 
ATOM      2  O   UNL     1       3.216   7.846  16.509  0.00  0.00    +0.000 OA
ATOM      3  N   UNL     1       4.211   6.262  17.807  0.00  0.00    +0.000 N 
ATOM      4  H   UNL     1       4.233   5.842  18.732  0.00  0.00    +0.000 HD
ENDROOT
BRANCH   3   5
ATOM      5  C   UNL     1       5.100   5.748  16.767  0.00  0.00    +0.000 C 
ATOM      6  C   UNL     1       5.005   4.223  16.683  0.00  0.00    +0.000 C 
ATOM      7  C   UNL     1       5.967   3.687  15.628  0.00  0.00    +0.000 C 
ATOM      8  N   UNL     1       7.340   4.071  15.949  0.00  0.00    +0.000 NA
ATOM      9  C   UNL     1       7.484   5.529  15.988  0.00  0.00    +0.000 C 
ATOM     10  C   UNL     1       6.558   6.168  17.053  0.00  0.00    +0.000 C 
ATOM     11  C   UNL     1       6.807   7.712  17.097  0.00  0.00    +0.000 C 
ATOM     12  C   UNL     1       7.809   7.481  18.244  0.00  0.00    +0.000 C 
ATOM     13  C   UNL     1       7.079   6.151  18.552  0.00  0.00    +0.000 C 
ATOM     14  C   UNL     1       7.933   5.005  19.059  0.00  0.00    +0.000 C 
ATOM     15  H   UNL     1       7.967   3.694  15.237  0.00  0.00    +0.000 HD
ENDBRANCH   3   5
BRANCH   1  22
ATOM     16  C   UNL     1       2.227   7.025  19.936  0.00  0.00    +0.000 A 
ATOM     17  C   UNL     1       1.414   7.592  20.938  0.00  0.00    +0.000 A 
ATOM     18  C   UNL     1       0.835   8.859  20.793  0.00  0.00    +0.000 A 
ATOM     19  C   UNL     1       1.023   9.534  19.579  0.00  0.00    +0.000 A 
ATOM     20 CL   UNL     1       0.275  11.068  19.301  0.00  0.00    +0.000 Cl
ATOM     21  C   UNL     1       1.845   9.001  18.585  0.00  0.00    +0.000 A 
ATOM     22  C   UNL     1       2.467   7.748  18.750  0.00  0.00    +0.000 A 
BRANCH  18  23
ATOM     23  N   UNL     1      -0.085   9.305  21.760  0.00  0.00    +0.000 N 
ATOM     24  H   UNL     1      -0.139  10.313  21.868  0.00  0.00    +0.000 HD
ATOM     25  H   UNL     1      -1.002   8.872  21.660  0.00  0.00    +0.000 HD
ENDBRANCH  18  23
BRANCH  16  27
ATOM     26  C   UNL     1       2.089   4.829  20.840  0.00  0.00    +0.000 C 
ATOM     27  O   UNL     1       2.820   5.795  20.086  0.00  0.00    +0.000 OA
ENDBRANCH  16  27
ENDBRANCH   1  22
TORSDOF 4
ENDMDL
MODEL 4
REMARK VINA RESULT:      -6.7      4.491      7.135
REMARK  Name = 
REMARK  6 active torsions:
REMARK  status: ('A' for Active; 'I' for Inactive)
REMARK    1  A    between atoms: C_1  and  O_2
REMARK    2  A    between atoms: O_2  and  C_3
REMARK    3  A    between atoms: C_5  and  N_6
REMARK    4  A    between atoms: C_10  and  C_11
REMARK    5  A    between atoms: N_13  and  C_14
REMARK    6  A    between atoms: C_22  and  C_23
REMARK                            x       y       z     vdW  Elec       q    Type
REMARK                         _______ _______ _______ _____ _____    ______ ____
ROOT
ATOM      1  C   UNL     1       5.084   3.877  17.253  0.00  0.00    +0.000 C 
ATOM      2  O   UNL     1       4.395   2.861  17.182  0.00  0.00    +0.000 OA
ATOM      3  N   UNL     1       5.121   4.647  18.392  0.00  0.00    +0.000 N 
ATOM      4  H   UNL     1       5.700   5.482  18.373  0.00  0.00    +0.000 HD
ENDROOT
BRANCH   3   5
ATOM      5  C   UNL     1       4.367   4.328  19.602  0.00  0.00    +0.000 C 
ATOM      6  C   UNL     1       4.228   2.813  19.766  0.00  0.00    +0.000 C 
ATOM      7  C   UNL     1       3.402   2.485  21.006  0.00  0.00    +0.000 C 
ATOM      8  N   UNL     1       2.074   3.087  20.906  0.00  0.00    +0.000 NA
ATOM      9  C   UNL     1       2.163   4.546  20.800  0.00  0.00    +0.000 C 
ATOM     10  C   UNL     1       2.969   4.980  19.550  0.00  0.00    +0.000 C 
ATOM     11  C   UNL     1       2.969   6.542  19.452  0.00  0.00    +0.000 C 
ATOM     12  C   UNL     1       1.749   6.447  18.516  0.00  0.00    +0.000 C 
ATOM     13  C   UNL     1       2.186   5.002  18.170  0.00  0.00    +0.000 C 
ATOM     14  C   UNL     1       1.079   4.003  17.896  0.00  0.00    +0.000 C 
ATOM     15  H   UNL     1       1.536   2.847  21.740  0.00  0.00    +0.000 HD
ENDBRANCH   3   5
BRANCH   1  22
ATOM     16  C   UNL     1       7.030   5.153  16.111  0.00  0.00    +0.000 A 
ATOM     17  C   UNL     1       7.724   5.440  14.918  0.00  0.00    +0.000 A 
ATOM     18  C   UNL     1       7.336   4.895  13.687  0.00  0.00    +0.000 A 
ATOM     19  C   UNL     1       6.181   4.103  13.652  0.00  0.00    +0.000 A 
ATOM     20 CL   UNL     1       5.601   3.461  12.154  0.00  0.00    +0.000 Cl
ATOM     21  C   UNL     1       5.496   3.787  14.825  0.00  0.00    +0.000 A 
ATOM     22  C   UNL     1       5.913   4.295  16.070  0.00  0.00    +0.000 A 
BRANCH  18  23
ATOM     23  N   UNL     1       7.974   5.337  12.513  0.00  0.00    +0.000 N 
ATOM     24  H   UNL     1       7.513   5.072  11.648  0.00  0.00    +0.000 HD
ATOM     25  H   UNL     1       8.211   6.327  12.543  0.00  0.00    +0.000 HD
ENDBRANCH  18  23
BRANCH  16  27
ATOM     26  C   UNL     1       7.491   7.084  17.422  0.00  0.00    +0.000 C 
ATOM     27  O   UNL     1       7.424   5.662  17.325  0.00  0.00    +0.000 OA
ENDBRANCH  16  27
ENDBRANCH   1  22
TORSDOF 4
ENDMDL
MODEL 5
REMARK VINA RESULT:      -6.5      2.972      7.137
REMARK  Name = 
REMARK  6 active torsions:
REMARK  status: ('A' for Active; 'I' for Inactive)
REMARK    1  A    between atoms: C_1  and  O_2
REMARK    2  A    between atoms: O_2  and  C_3
REMARK    3  A    between atoms: C_5  and  N_6
REMARK    4  A    between atoms: C_10  and  C_11
REMARK    5  A    between atoms: N_13  and  C_14
REMARK    6  A    between atoms: C_22  and  C_23
REMARK                            x       y       z     vdW  Elec       q    Type
REMARK                         _______ _______ _______ _____ _____    ______ ____
ROOT
ATOM      1  C   UNL     1       1.791   9.598  18.405  0.00  0.00    +0.000 C 
ATOM      2  O   UNL     1       2.108   9.769  17.229  0.00  0.00    +0.000 OA
ATOM      3  N   UNL     1       1.298  10.624  19.178  0.00  0.00    +0.000 N 
ATOM      4  H   UNL     1       1.071  10.413  20.145  0.00  0.00    +0.000 HD
ENDROOT
BRANCH   3   5
ATOM      5  C   UNL     1       1.100  11.983  18.678  0.00  0.00    +0.000 C 
ATOM      6  C   UNL     1       2.325  12.850  18.977  0.00  0.00    +0.000 C 
ATOM      7  C   UNL     1       2.097  14.279  18.493  0.00  0.00    +0.000 C 
ATOM      8  N   UNL     1       0.923  14.855  19.146  0.00  0.00    +0.000 NA
ATOM      9  C   UNL     1      -0.283  14.080  18.841  0.00  0.00    +0.000 C 
ATOM     10  C   UNL     1      -0.156  12.612  19.318  0.00  0.00    +0.000 C 
ATOM     11  C   UNL     1      -1.496  11.856  19.030  0.00  0.00    +0.000 C 
ATOM     12  C   UNL     1      -1.947  12.184  20.466  0.00  0.00    +0.000 C 
ATOM     13  C   UNL     1      -0.455  12.333  20.851  0.00  0.00    +0.000 C 
ATOM     14  C   UNL     1      -0.122  13.373  21.903  0.00  0.00    +0.000 C 
ATOM     15  H   UNL     1       0.795  15.812  18.817  0.00  0.00    +0.000 HD
ENDBRANCH   3   5
BRANCH   1  22
ATOM     16  C   UNL     1       1.601   7.891  20.346  0.00  0.00    +0.000 A 
ATOM     17  C   UNL     1       1.777   6.561  20.780  0.00  0.00    +0.000 A 
ATOM     18  C   UNL     1       2.279   5.566  19.931  0.00  0.00    +0.000 A 
ATOM     19  C   UNL     1       2.678   5.940  18.641  0.00  0.00    +0.000 A 
ATOM     20 CL   UNL     1       3.377   4.780  17.566  0.00  0.00    +0.000 Cl
ATOM     21  C   UNL     1       2.488   7.245  18.185  0.00  0.00    +0.000 A 
ATOM     22  C   UNL     1       1.939   8.235  19.022  0.00  0.00    +0.000 A 
BRANCH  18  23
ATOM     23  N   UNL     1       2.574   4.297  20.465  0.00  0.00    +0.000 N 
ATOM     24  H   UNL     1       2.920   3.620  19.793  0.00  0.00    +0.000 HD
ATOM     25  H   UNL     1       3.148   4.347  21.304  0.00  0.00    +0.000 HD
ENDBRANCH  18  23
BRANCH  16  27
ATOM     26  C   UNL     1      -0.232   8.630  21.669  0.00  0.00    +0.000 C 
ATOM     27  O   UNL     1       1.082   8.863  21.167  0.00  0.00    +0.000 OA
ENDBRANCH  16  27
ENDBRANCH   1  22
TORSDOF 4
ENDMDL
MODEL 6
REMARK VINA RESULT:      -6.5      9.103      9.876
REMARK  Name = 
REMARK  6 active torsions:
REMARK  status: ('A' for Active; 'I' for Inactive)
REMARK    1  A    between atoms: C_1  and  O_2
REMARK    2  A    between atoms: O_2  and  C_3
REMARK    3  A    between atoms: C_5  and  N_6
REMARK    4  A    between atoms: C_10  and  C_11
REMARK    5  A    between atoms: N_13  and  C_14
REMARK    6  A    between atoms: C_22  and  C_23
REMARK                            x       y       z     vdW  Elec       q    Type
REMARK                         _______ _______ _______ _____ _____    ______ ____
ROOT
ATOM      1  C   UNL     1       8.184  15.383  18.178  0.00  0.00    +0.000 C 
ATOM      2  O   UNL     1       8.886  16.149  17.517  0.00  0.00    +0.000 OA
ATOM      3  N   UNL     1       8.687  14.217  18.706  0.00  0.00    +0.000 N 
ATOM      4  H   UNL     1       8.046  13.626  19.227  0.00  0.00    +0.000 HD
ENDROOT
BRANCH   3   5
ATOM      5  C   UNL     1      10.076  13.794  18.543  0.00  0.00    +0.000 C 
ATOM      6  C   UNL     1      10.339  13.355  17.101  0.00  0.00    +0.000 C 
ATOM      7  C   UNL     1      11.778  12.872  16.947  0.00  0.00    +0.000 C 
ATOM      8  N   UNL     1      12.039  11.753  17.850  0.00  0.00    +0.000 NA
ATOM      9  C   UNL     1      11.847  12.149  19.248  0.00  0.00    +0.000 C 
ATOM     10  C   UNL     1      10.400  12.636  19.511  0.00  0.00    +0.000 C 
ATOM     11  C   UNL     1      10.237  12.976  21.030  0.00  0.00    +0.000 C 
ATOM     12  C   UNL     1       9.697  11.550  21.254  0.00  0.00    +0.000 C 
ATOM     13  C   UNL     1       9.305  11.514  19.757  0.00  0.00    +0.000 C 
ATOM     14  C   UNL     1       9.406  10.173  19.057  0.00  0.00    +0.000 C 
ATOM     15  H   UNL     1      13.002  11.440  17.723  0.00  0.00    +0.000 HD
ENDBRANCH   3   5
BRANCH   1  22
ATOM     16  C   UNL     1       6.258  16.954  18.913  0.00  0.00    +0.000 A 
ATOM     17  C   UNL     1       4.869  17.136  19.070  0.00  0.00    +0.000 A 
ATOM     18  C   UNL     1       3.949  16.130  18.751  0.00  0.00    +0.000 A 
ATOM     19  C   UNL     1       4.448  14.889  18.332  0.00  0.00    +0.000 A 
ATOM     20 CL   UNL     1       3.374  13.577  17.995  0.00  0.00    +0.000 Cl
ATOM     21  C   UNL     1       5.818  14.697  18.146  0.00  0.00    +0.000 A 
ATOM     22  C   UNL     1       6.741  15.725  18.421  0.00  0.00    +0.000 A 
BRANCH  18  23
ATOM     23  N   UNL     1       2.591  16.317  19.072  0.00  0.00    +0.000 N 
ATOM     24  H   UNL     1       1.945  16.167  18.304  0.00  0.00    +0.000 HD
ATOM     25  H   UNL     1       2.316  15.825  19.920  0.00  0.00    +0.000 HD
ENDBRANCH  18  23
BRANCH  16  27
ATOM     26  C   UNL     1       7.364  18.241  20.579  0.00  0.00    +0.000 C 
ATOM     27  O   UNL     1       7.162  17.948  19.198  0.00  0.00    +0.000 OA
ENDBRANCH  16  27
ENDBRANCH   1  22
TORSDOF 4
ENDMDL
MODEL 7
REMARK VINA RESULT:      -6.4      2.690      7.390
REMARK  Name = 
REMARK  6 active torsions:
REMARK  status: ('A' for Active; 'I' for Inactive)
REMARK    1  A    between atoms: C_1  and  O_2
REMARK    2  A    between atoms: O_2  and  C_3
REMARK    3  A    between atoms: C_5  and  N_6
REMARK    4  A    between atoms: C_10  and  C_11
REMARK    5  A    between atoms: N_13  and  C_14
REMARK    6  A    between atoms: C_22  and  C_23
REMARK                            x       y       z     vdW  Elec       q    Type
REMARK                         _______ _______ _______ _____ _____    ______ ____
ROOT
ATOM      1  C   UNL     1       1.373   8.707  21.260  0.00  0.00    +0.000 C 
ATOM      2  O   UNL     1       1.849   8.786  22.391  0.00  0.00    +0.000 OA
ATOM      3  N   UNL     1       0.537   9.676  20.758  0.00  0.00    +0.000 N 
ATOM      4  H   UNL     1       0.169   9.536  19.821  0.00  0.00    +0.000 HD
ENDROOT
BRANCH   3   5
ATOM      5  C   UNL     1       0.152  10.871  21.505  0.00  0.00    +0.000 C 
ATOM      6  C   UNL     1      -1.029  10.570  22.431  0.00  0.00    +0.000 C 
ATOM      7  C   UNL     1      -1.456  11.831  23.176  0.00  0.00    +0.000 C 
ATOM      8  N   UNL     1      -1.836  12.878  22.229  0.00  0.00    +0.000 NA
ATOM      9  C   UNL     1      -0.713  13.231  21.357  0.00  0.00    +0.000 C 
ATOM     10  C   UNL     1      -0.220  12.013  20.535  0.00  0.00    +0.000 C 
ATOM     11  C   UNL     1       0.929  12.467  19.574  0.00  0.00    +0.000 C 
ATOM     12  C   UNL     1      -0.125  12.667  18.468  0.00  0.00    +0.000 C 
ATOM     13  C   UNL     1      -1.036  11.665  19.219  0.00  0.00    +0.000 C 
ATOM     14  C   UNL     1      -2.529  11.915  19.149  0.00  0.00    +0.000 C 
ATOM     15  H   UNL     1      -2.127  13.707  22.748  0.00  0.00    +0.000 HD
ENDBRANCH   3   5
BRANCH   1  22
ATOM     16  C   UNL     1       2.235   7.586  19.087  0.00  0.00    +0.000 A 
ATOM     17  C   UNL     1       2.524   6.387  18.403  0.00  0.00    +0.000 A 
ATOM     18  C   UNL     1       2.307   5.132  18.985  0.00  0.00    +0.000 A 
ATOM     19  C   UNL     1       1.720   5.088  20.256  0.00  0.00    +0.000 A 
ATOM     20 CL   UNL     1       1.353   3.572  21.003  0.00  0.00    +0.000 Cl
ATOM     21  C   UNL     1       1.450   6.262  20.960  0.00  0.00    +0.000 A 
ATOM     22  C   UNL     1       1.712   7.525  20.394  0.00  0.00    +0.000 A 
BRANCH  18  23
ATOM     23  N   UNL     1       2.472   3.976  18.198  0.00  0.00    +0.000 N 
ATOM     24  H   UNL     1       3.376   3.524  18.286  0.00  0.00    +0.000 HD
ATOM     25  H   UNL     1       1.696   3.324  18.290  0.00  0.00    +0.000 HD
ENDBRANCH  18  23
BRANCH  16  27
ATOM     26  C   UNL     1       1.491   9.298  17.613  0.00  0.00    +0.000 C 
ATOM     27  O   UNL     1       2.473   8.819  18.531  0.00  0.00    +0.000 OA
ENDBRANCH  16  27
ENDBRANCH   1  22
TORSDOF 4
ENDMDL
MODEL 8
REMARK VINA RESULT:      -6.3      4.134      7.120
REMARK  Name = 
REMARK  6 active torsions:
REMARK  status: ('A' for Active; 'I' for Inactive)
REMARK    1  A    between atoms: C_1  and  O_2
REMARK    2  A    between atoms: O_2  and  C_3
REMARK    3  A    between atoms: C_5  and  N_6
REMARK    4  A    between atoms: C_10  and  C_11
REMARK    5  A    between atoms: N_13  and  C_14
REMARK    6  A    between atoms: C_22  and  C_23
REMARK                            x       y       z     vdW  Elec       q    Type
REMARK                         _______ _______ _______ _____ _____    ______ ____
ROOT
ATOM      1  C   UNL     1       4.491   5.592  16.527  0.00  0.00    +0.000 C 
ATOM      2  O   UNL     1       4.529   6.790  16.804  0.00  0.00    +0.000 OA
ATOM      3  N   UNL     1       3.672   4.719  17.206  0.00  0.00    +0.000 N 
ATOM      4  H   UNL     1       3.705   3.741  16.933  0.00  0.00    +0.000 HD
ENDROOT
BRANCH   3   5
ATOM      5  C   UNL     1       2.783   5.129  18.290  0.00  0.00    +0.000 C 
ATOM      6  C   UNL     1       3.522   6.032  19.280  0.00  0.00    +0.000 C 
ATOM      7  C   UNL     1       2.602   6.422  20.433  0.00  0.00    +0.000 C 
ATOM      8  N   UNL     1       2.125   5.228  21.128  0.00  0.00    +0.000 NA
ATOM      9  C   UNL     1       1.366   4.360  20.224  0.00  0.00    +0.000 C 
ATOM     10  C   UNL     1       2.227   3.891  19.025  0.00  0.00    +0.000 C 
ATOM     11  C   UNL     1       1.387   2.914  18.136  0.00  0.00    +0.000 C 
ATOM     12  C   UNL     1       2.001   1.735  18.916  0.00  0.00    +0.000 C 
ATOM     13  C   UNL     1       3.191   2.656  19.281  0.00  0.00    +0.000 C 
ATOM     14  C   UNL     1       3.827   2.443  20.640  0.00  0.00    +0.000 C 
ATOM     15  H   UNL     1       1.521   5.512  21.901  0.00  0.00    +0.000 HD
ENDBRANCH   3   5
BRANCH   1  22
ATOM     16  C   UNL     1       6.764   5.068  15.398  0.00  0.00    +0.000 A 
ATOM     17  C   UNL     1       7.442   4.512  14.294  0.00  0.00    +0.000 A 
ATOM     18  C   UNL     1       6.755   3.948  13.211  0.00  0.00    +0.000 A 
ATOM     19  C   UNL     1       5.355   4.012  13.213  0.00  0.00    +0.000 A 
ATOM     20 CL   UNL     1       4.445   3.403  11.875  0.00  0.00    +0.000 Cl
ATOM     21  C   UNL     1       4.666   4.535  14.308  0.00  0.00    +0.000 A 
ATOM     22  C   UNL     1       5.355   5.060  15.418  0.00  0.00    +0.000 A 
BRANCH  18  23
ATOM     23  N   UNL     1       7.482   3.547  12.075  0.00  0.00    +0.000 N 
ATOM     24  H   UNL     1       7.214   4.007  11.211  0.00  0.00    +0.000 HD
ATOM     25  H   UNL     1       8.488   3.555  12.228  0.00  0.00    +0.000 HD
ENDBRANCH  18  23
BRANCH  16  27
ATOM     26  C   UNL     1       7.635   4.724  17.585  0.00  0.00    +0.000 C 
ATOM     27  O   UNL     1       7.434   5.597  16.474  0.00  0.00    +0.000 OA
ENDBRANCH  16  27
ENDBRANCH   1  22
TORSDOF 4
ENDMDL
MODEL 9
REMARK VINA RESULT:      -6.3      9.204     11.380
REMARK  Name = 
REMARK  6 active torsions:
REMARK  status: ('A' for Active; 'I' for Inactive)
REMARK    1  A    between atoms: C_1  and  O_2
REMARK    2  A    between atoms: O_2  and  C_3
REMARK    3  A    between atoms: C_5  and  N_6
REMARK    4  A    between atoms: C_10  and  C_11
REMARK    5  A    between atoms: N_13  and  C_14
REMARK    6  A    between atoms: C_22  and  C_23
REMARK                            x       y       z     vdW  Elec       q    Type
REMARK                         _______ _______ _______ _____ _____    ______ ____
ROOT
ATOM      1  C   UNL     1       9.489  13.854  21.086  0.00  0.00    +0.000 C 
ATOM      2  O   UNL     1      10.191  14.418  21.925  0.00  0.00    +0.000 OA
ATOM      3  N   UNL     1       8.217  13.422  21.381  0.00  0.00    +0.000 N 
ATOM      4  H   UNL     1       7.702  12.950  20.644  0.00  0.00    +0.000 HD
ENDROOT
BRANCH   3   5
ATOM      5  C   UNL     1       7.591  13.601  22.689  0.00  0.00    +0.000 C 
ATOM      6  C   UNL     1       6.945  12.297  23.160  0.00  0.00    +0.000 C 
ATOM      7  C   UNL     1       6.254  12.500  24.505  0.00  0.00    +0.000 C 
ATOM      8  N   UNL     1       5.231  13.537  24.400  0.00  0.00    +0.000 NA
ATOM      9  C   UNL     1       5.819  14.819  24.000  0.00  0.00    +0.000 C 
ATOM     10  C   UNL     1       6.528  14.719  22.626  0.00  0.00    +0.000 C 
ATOM     11  C   UNL     1       7.072  16.130  22.222  0.00  0.00    +0.000 C 
ATOM     12  C   UNL     1       5.773  16.363  21.428  0.00  0.00    +0.000 C 
ATOM     13  C   UNL     1       5.605  14.826  21.339  0.00  0.00    +0.000 C 
ATOM     14  C   UNL     1       4.187  14.292  21.361  0.00  0.00    +0.000 C 
ATOM     15  H   UNL     1       4.775  13.649  25.306  0.00  0.00    +0.000 HD
ENDBRANCH   3   5
BRANCH   1  22
ATOM     16  C   UNL     1      10.317  12.374  19.125  0.00  0.00    +0.000 A 
ATOM     17  C   UNL     1      10.799  12.318  17.802  0.00  0.00    +0.000 A 
ATOM     18  C   UNL     1      10.998  13.473  17.036  0.00  0.00    +0.000 A 
ATOM     19  C   UNL     1      10.774  14.714  17.646  0.00  0.00    +0.000 A 
ATOM     20 CL   UNL     1      11.072  16.184  16.785  0.00  0.00    +0.000 Cl
ATOM     21  C   UNL     1      10.273  14.791  18.946  0.00  0.00    +0.000 A 
ATOM     22  C   UNL     1      10.027  13.628  19.701  0.00  0.00    +0.000 A 
BRANCH  18  23
ATOM     23  N   UNL     1      11.621  13.361  15.779  0.00  0.00    +0.000 N 
ATOM     24  H   UNL     1      11.799  12.411  15.472  0.00  0.00    +0.000 HD
ATOM     25  H   UNL     1      11.168  13.927  15.063  0.00  0.00    +0.000 HD
ENDBRANCH  18  23
BRANCH  16  27
ATOM     26  C   UNL     1       9.269  10.244  19.270  0.00  0.00    +0.000 C 
ATOM     27  O   UNL     1      10.093  11.242  19.870  0.00  0.00    +0.000 OA
ENDBRANCH  16  27
ENDBRANCH   1  22
TORSDOF 4
ENDMDL
