MODEL 1
REMARK VINA RESULT:      -7.9      0.000      0.000
REMARK  Name = 
REMARK  6 active torsions:
REMARK  status: ('A' for Active; 'I' for Inactive)
REMARK    1  A    between atoms: C_1  and  C_2
REMARK    2  A    between atoms: N_4  and  C_5
REMARK    3  A    between atoms: C_7  and  O_8
REMARK    4  A    between atoms: C_9  and  C_10
REMARK    5  A    between atoms: C_9  and  N_12
REMARK    6  A    between atoms: C_10  and  O_11
REMARK                            x       y       z     vdW  Elec       q    Type
REMARK                         _______ _______ _______ _____ _____    ______ ____
ROOT
ATOM      1  C   UNL     1       5.119   3.562  18.241  0.00  0.00    +0.000 C 
ATOM      2  C   UNL     1       4.417   3.753  16.894  0.00  0.00    +0.000 C 
ATOM      3  C   UNL     1       5.483   4.254  15.929  0.00  0.00    +0.000 C 
ATOM      4  C   UNL     1       6.197   5.454  16.608  0.00  0.00    +0.000 C 
ATOM      5  S   UNL     1       6.322   4.925  18.380  0.00  0.00    +0.000 S 
ENDROOT
BRANCH   1   9
ATOM      6  C   UNL     1       1.044   5.204  20.586  0.00  0.00    +0.000 C 
ATOM      7  C   UNL     1       2.206   4.277  20.445  0.00  0.00    +0.000 A 
ATOM      8  C   UNL     1       3.165   4.403  19.520  0.00  0.00    +0.000 A 
ATOM      9  N   UNL     1       4.190   3.485  19.371  0.00  0.00    +0.000 N 
ATOM     10  C   UNL     1       4.300   2.389  20.223  0.00  0.00    +0.000 A 
ATOM     11  O   UNL     1       5.139   1.498  20.107  0.00  0.00    +0.000 OA
ATOM     12  N   UNL     1       3.373   2.322  21.229  0.00  0.00    +0.000 N 
ATOM     13  C   UNL     1       2.279   3.121  21.366  0.00  0.00    +0.000 A 
ATOM     14  O   UNL     1       1.397   2.891  22.188  0.00  0.00    +0.000 OA
ATOM     15  H   UNL     1       3.424   1.512  21.827  0.00  0.00    +0.000 HD
ENDBRANCH   1   9
BRANCH   4  16
ATOM     16  N   UNL     1       7.520   5.692  15.986  0.00  0.00    +0.000 NA
ATOM     17  N   UNL     1       7.602   5.535  14.753  0.00  0.00    +0.000 NA
ATOM     18  N   UNL     1       7.699   5.392  13.625  0.00  0.00    +0.000 NA
ENDBRANCH   4  16
BRANCH   3  19
ATOM     19  O   UNL     1       6.378   3.166  15.649  0.00  0.00    +0.000 OA
ATOM     20  H   UNL     1       6.242   2.476  16.329  0.00  0.00    +0.000 HD
ENDBRANCH   3  19
BRANCH   4  21
ATOM     21  C   UNL     1       5.352   6.754  16.602  0.00  0.00    +0.000 C 
BRANCH  21  22
ATOM     22  O   UNL     1       5.020   7.145  15.271  0.00  0.00    +0.000 OA
ATOM     23  H   UNL     1       4.071   7.366  15.259  0.00  0.00    +0.000 HD
ENDBRANCH  21  22
ENDBRANCH   4  21
TORSDOF 5
ENDMDL
MODEL 2
REMARK VINA RESULT:      -7.6      2.425      6.396
REMARK  Name = 
REMARK  6 active torsions:
REMARK  status: ('A' for Active; 'I' for Inactive)
REMARK    1  A    between atoms: C_1  and  C_2
REMARK    2  A    between atoms: N_4  and  C_5
REMARK    3  A    between atoms: C_7  and  O_8
REMARK    4  A    between atoms: C_9  and  C_10
REMARK    5  A    between atoms: C_9  and  N_12
REMARK    6  A    between atoms: C_10  and  O_11
REMARK                            x       y       z     vdW  Elec       q    Type
REMARK                         _______ _______ _______ _____ _____    ______ ____
ROOT
ATOM      1  C   UNL     1       4.462   4.742  18.785  0.00  0.00    +0.000 C 
ATOM      2  C   UNL     1       3.400   5.842  18.691  0.00  0.00    +0.000 C 
ATOM      3  C   UNL     1       2.267   5.415  19.613  0.00  0.00    +0.000 C 
ATOM      4  C   UNL     1       1.899   3.950  19.250  0.00  0.00    +0.000 C 
ATOM      5  S   UNL     1       3.547   3.170  18.919  0.00  0.00    +0.000 S 
ENDROOT
BRANCH   1   9
ATOM      6  C   UNL     1       5.490   4.049  13.961  0.00  0.00    +0.000 C 
ATOM      7  C   UNL     1       5.862   4.462  15.347  0.00  0.00    +0.000 A 
ATOM      8  C   UNL     1       5.073   4.311  16.418  0.00  0.00    +0.000 A 
ATOM      9  N   UNL     1       5.420   4.769  17.677  0.00  0.00    +0.000 N 
ATOM     10  C   UNL     1       6.651   5.379  17.903  0.00  0.00    +0.000 A 
ATOM     11  O   UNL     1       6.997   5.872  18.975  0.00  0.00    +0.000 OA
ATOM     12  N   UNL     1       7.493   5.439  16.826  0.00  0.00    +0.000 N 
ATOM     13  C   UNL     1       7.176   5.114  15.541  0.00  0.00    +0.000 A 
ATOM     14  O   UNL     1       7.922   5.360  14.599  0.00  0.00    +0.000 OA
ATOM     15  H   UNL     1       8.370   5.912  16.972  0.00  0.00    +0.000 HD
ENDBRANCH   1   9
BRANCH   4  16
ATOM     16  N   UNL     1       1.174   3.303  20.368  0.00  0.00    +0.000 NA
ATOM     17  N   UNL     1       1.856   2.913  21.335  0.00  0.00    +0.000 NA
ATOM     18  N   UNL     1       2.464   2.545  22.229  0.00  0.00    +0.000 NA
ENDBRANCH   4  16
BRANCH   3  19
ATOM     19  O   UNL     1       2.720   5.550  20.969  0.00  0.00    +0.000 OA
ATOM     20  H   UNL     1       3.677   5.351  20.992  0.00  0.00    +0.000 HD
ENDBRANCH   3  19
BRANCH   4  21
ATOM     21  C   UNL     1       1.088   3.829  17.934  0.00  0.00    +0.000 C 
BRANCH  21  22
ATOM     22  O   UNL     1       1.864   3.216  16.906  0.00  0.00    +0.000 OA
ATOM     23  H   UNL     1       1.269   2.637  16.396  0.00  0.00    +0.000 HD
ENDBRANCH  21  22
ENDBRANCH   4  21
TORSDOF 5
ENDMDL
MODEL 3
REMARK VINA RESULT:      -7.4      2.346      6.596
REMARK  Name = 
REMARK  6 active torsions:
REMARK  status: ('A' for Active; 'I' for Inactive)
REMARK    1  A    between atoms: C_1  and  C_2
REMARK    2  A    between atoms: N_4  and  C_5
REMARK    3  A    between atoms: C_7  and  O_8
REMARK    4  A    between atoms: C_9  and  C_10
REMARK    5  A    between atoms: C_9  and  N_12
REMARK    6  A    between atoms: C_10  and  O_11
REMARK                            x       y       z     vdW  Elec       q    Type
REMARK                         _______ _______ _______ _____ _____    ______ ____
ROOT
ATOM      1  C   UNL     1       4.550   5.725  18.366  0.00  0.00    +0.000 C 
ATOM      2  C   UNL     1       3.238   6.392  17.942  0.00  0.00    +0.000 C 
ATOM      3  C   UNL     1       2.263   6.177  19.090  0.00  0.00    +0.000 C 
ATOM      4  C   UNL     1       2.285   4.663  19.441  0.00  0.00    +0.000 C 
ATOM      5  S   UNL     1       4.075   4.216  19.275  0.00  0.00    +0.000 S 
ENDROOT
BRANCH   1   9
ATOM      6  C   UNL     1       5.345   3.935  13.787  0.00  0.00    +0.000 C 
ATOM      7  C   UNL     1       5.788   4.635  15.029  0.00  0.00    +0.000 A 
ATOM      8  C   UNL     1       5.044   4.754  16.136  0.00  0.00    +0.000 A 
ATOM      9  N   UNL     1       5.458   5.471  17.245  0.00  0.00    +0.000 N 
ATOM     10  C   UNL     1       6.711   6.075  17.281  0.00  0.00    +0.000 A 
ATOM     11  O   UNL     1       7.117   6.784  18.200  0.00  0.00    +0.000 OA
ATOM     12  N   UNL     1       7.506   5.864  16.186  0.00  0.00    +0.000 N 
ATOM     13  C   UNL     1       7.125   5.270  15.021  0.00  0.00    +0.000 A 
ATOM     14  O   UNL     1       7.833   5.274  14.020  0.00  0.00    +0.000 OA
ATOM     15  H   UNL     1       8.400   6.329  16.189  0.00  0.00    +0.000 HD
ENDBRANCH   1   9
BRANCH   4  16
ATOM     16  N   UNL     1       1.763   4.439  20.808  0.00  0.00    +0.000 NA
ATOM     17  N   UNL     1       2.191   3.443  21.422  0.00  0.00    +0.000 NA
ATOM     18  N   UNL     1       2.569   2.533  21.999  0.00  0.00    +0.000 NA
ENDBRANCH   4  16
BRANCH   3  19
ATOM     19  O   UNL     1       2.678   7.003  20.189  0.00  0.00    +0.000 OA
ATOM     20  H   UNL     1       3.648   6.922  20.282  0.00  0.00    +0.000 HD
ENDBRANCH   3  19
BRANCH   4  21
ATOM     21  C   UNL     1       1.521   3.785  18.416  0.00  0.00    +0.000 C 
BRANCH  21  22
ATOM     22  O   UNL     1       1.139   2.537  18.991  0.00  0.00    +0.000 OA
ATOM     23  H   UNL     1       0.328   2.688  19.509  0.00  0.00    +0.000 HD
ENDBRANCH  21  22
ENDBRANCH   4  21
TORSDOF 5
ENDMDL
MODEL 4
REMARK VINA RESULT:      -7.3      2.144      6.725
REMARK  Name = 
REMARK  6 active torsions:
REMARK  status: ('A' for Active; 'I' for Inactive)
REMARK    1  A    between atoms: C_1  and  C_2
REMARK    2  A    between atoms: N_4  and  C_5
REMARK    3  A    between atoms: C_7  and  O_8
REMARK    4  A    between atoms: C_9  and  C_10
REMARK    5  A    between atoms: C_9  and  N_12
REMARK    6  A    between atoms: C_10  and  O_11
REMARK                            x       y       z     vdW  Elec       q    Type
REMARK                         _______ _______ _______ _____ _____    ______ ____
ROOT
ATOM      1  C   UNL     1       4.875   4.959  17.894  0.00  0.00    +0.000 C 
ATOM      2  C   UNL     1       3.383   4.756  17.619  0.00  0.00    +0.000 C 
ATOM      3  C   UNL     1       2.757   4.359  18.948  0.00  0.00    +0.000 C 
ATOM      4  C   UNL     1       3.603   3.193  19.529  0.00  0.00    +0.000 C 
ATOM      5  S   UNL     1       5.340   3.680  19.108  0.00  0.00    +0.000 S 
ENDROOT
BRANCH   1   9
ATOM      6  C   UNL     1       5.504   3.608  13.143  0.00  0.00    +0.000 C 
ATOM      7  C   UNL     1       5.940   4.305  14.388  0.00  0.00    +0.000 A 
ATOM      8  C   UNL     1       5.304   4.224  15.563  0.00  0.00    +0.000 A 
ATOM      9  N   UNL     1       5.695   4.940  16.680  0.00  0.00    +0.000 N 
ATOM     10  C   UNL     1       6.820   5.760  16.648  0.00  0.00    +0.000 A 
ATOM     11  O   UNL     1       7.185   6.478  17.577  0.00  0.00    +0.000 OA
ATOM     12  N   UNL     1       7.523   5.760  15.474  0.00  0.00    +0.000 N 
ATOM     13  C   UNL     1       7.137   5.173  14.307  0.00  0.00    +0.000 A 
ATOM     14  O   UNL     1       7.728   5.363  13.250  0.00  0.00    +0.000 OA
ATOM     15  H   UNL     1       8.317   6.379  15.431  0.00  0.00    +0.000 HD
ENDBRANCH   1   9
BRANCH   4  16
ATOM     16  N   UNL     1       3.381   3.066  20.988  0.00  0.00    +0.000 NA
ATOM     17  N   UNL     1       2.217   2.827  21.364  0.00  0.00    +0.000 NA
ATOM     18  N   UNL     1       1.158   2.611  21.730  0.00  0.00    +0.000 NA
ENDBRANCH   4  16
BRANCH   3  19
ATOM     19  O   UNL     1       2.750   5.514  19.801  0.00  0.00    +0.000 OA
ATOM     20  H   UNL     1       2.937   6.300  19.251  0.00  0.00    +0.000 HD
ENDBRANCH   3  19
BRANCH   4  21
ATOM     21  C   UNL     1       3.348   1.837  18.820  0.00  0.00    +0.000 C 
BRANCH  21  22
ATOM     22  O   UNL     1       1.957   1.521  18.799  0.00  0.00    +0.000 OA
ATOM     23  H   UNL     1       1.555   1.915  19.595  0.00  0.00    +0.000 HD
ENDBRANCH  21  22
ENDBRANCH   4  21
TORSDOF 5
ENDMDL
MODEL 5
REMARK VINA RESULT:      -7.2      0.951      1.341
REMARK  Name = 
REMARK  6 active torsions:
REMARK  status: ('A' for Active; 'I' for Inactive)
REMARK    1  A    between atoms: C_1  and  C_2
REMARK    2  A    between atoms: N_4  and  C_5
REMARK    3  A    between atoms: C_7  and  O_8
REMARK    4  A    between atoms: C_9  and  C_10
REMARK    5  A    between atoms: C_9  and  N_12
REMARK    6  A    between atoms: C_10  and  O_11
REMARK                            x       y       z     vdW  Elec       q    Type
REMARK                         _______ _______ _______ _____ _____    ______ ____
ROOT
ATOM      1  C   UNL     1       5.220   3.798  18.644  0.00  0.00    +0.000 C 
ATOM      2  C   UNL     1       4.727   3.664  17.200  0.00  0.00    +0.000 C 
ATOM      3  C   UNL     1       5.763   4.363  16.332  0.00  0.00    +0.000 C 
ATOM      4  C   UNL     1       6.004   5.772  16.940  0.00  0.00    +0.000 C 
ATOM      5  S   UNL     1       5.970   5.456  18.766  0.00  0.00    +0.000 S 
ENDROOT
BRANCH   1   9
ATOM      6  C   UNL     1       0.700   4.814  20.470  0.00  0.00    +0.000 C 
ATOM      7  C   UNL     1       1.980   4.046  20.459  0.00  0.00    +0.000 A 
ATOM      8  C   UNL     1       3.026   4.332  19.673  0.00  0.00    +0.000 A 
ATOM      9  N   UNL     1       4.171   3.556  19.638  0.00  0.00    +0.000 N 
ATOM     10  C   UNL     1       4.312   2.446  20.466  0.00  0.00    +0.000 A 
ATOM     11  O   UNL     1       5.267   1.673  20.438  0.00  0.00    +0.000 OA
ATOM     12  N   UNL     1       3.281   2.220  21.337  0.00  0.00    +0.000 N 
ATOM     13  C   UNL     1       2.083   2.869  21.350  0.00  0.00    +0.000 A 
ATOM     14  O   UNL     1       1.141   2.495  22.040  0.00  0.00    +0.000 OA
ATOM     15  H   UNL     1       3.358   1.397  21.915  0.00  0.00    +0.000 HD
ENDBRANCH   1   9
BRANCH   4  16
ATOM     16  N   UNL     1       7.298   6.324  16.478  0.00  0.00    +0.000 NA
ATOM     17  N   UNL     1       7.629   7.440  16.922  0.00  0.00    +0.000 NA
ATOM     18  N   UNL     1       7.948   8.463  17.315  0.00  0.00    +0.000 NA
ENDBRANCH   4  16
BRANCH   3  19
ATOM     19  O   UNL     1       6.952   3.558  16.320  0.00  0.00    +0.000 OA
ATOM     20  H   UNL     1       7.574   3.921  16.982  0.00  0.00    +0.000 HD
ENDBRANCH   3  19
BRANCH   4  21
ATOM     21  C   UNL     1       4.853   6.770  16.651  0.00  0.00    +0.000 C 
BRANCH  21  22
ATOM     22  O   UNL     1       4.869   7.193  15.289  0.00  0.00    +0.000 OA
ATOM     23  H   UNL     1       5.767   7.038  14.944  0.00  0.00    +0.000 HD
ENDBRANCH  21  22
ENDBRANCH   4  21
TORSDOF 5
ENDMDL
MODEL 6
REMARK VINA RESULT:      -7.0      2.049      6.692
REMARK  Name = 
REMARK  6 active torsions:
REMARK  status: ('A' for Active; 'I' for Inactive)
REMARK    1  A    between atoms: C_1  and  C_2
REMARK    2  A    between atoms: N_4  and  C_5
REMARK    3  A    between atoms: C_7  and  O_8
REMARK    4  A    between atoms: C_9  and  C_10
REMARK    5  A    between atoms: C_9  and  N_12
REMARK    6  A    between atoms: C_10  and  O_11
REMARK                            x       y       z     vdW  Elec       q    Type
REMARK                         _______ _______ _______ _____ _____    ______ ____
ROOT
ATOM      1  C   UNL     1       4.018   5.026  17.428  0.00  0.00    +0.000 C 
ATOM      2  C   UNL     1       3.093   3.818  17.255  0.00  0.00    +0.000 C 
ATOM      3  C   UNL     1       2.264   3.733  18.528  0.00  0.00    +0.000 C 
ATOM      4  C   UNL     1       3.249   3.790  19.729  0.00  0.00    +0.000 C 
ATOM      5  S   UNL     1       4.507   5.037  19.185  0.00  0.00    +0.000 S 
ENDROOT
BRANCH   1   9
ATOM      6  C   UNL     1       6.104   3.494  13.174  0.00  0.00    +0.000 C 
ATOM      7  C   UNL     1       6.105   4.294  14.435  0.00  0.00    +0.000 A 
ATOM      8  C   UNL     1       5.161   4.214  15.381  0.00  0.00    +0.000 A 
ATOM      9  N   UNL     1       5.155   5.021  16.505  0.00  0.00    +0.000 N 
ATOM     10  C   UNL     1       6.174   5.942  16.732  0.00  0.00    +0.000 A 
ATOM     11  O   UNL     1       6.197   6.738  17.668  0.00  0.00    +0.000 OA
ATOM     12  N   UNL     1       7.187   5.947  15.811  0.00  0.00    +0.000 N 
ATOM     13  C   UNL     1       7.203   5.266  14.631  0.00  0.00    +0.000 A 
ATOM     14  O   UNL     1       8.061   5.456  13.775  0.00  0.00    +0.000 OA
ATOM     15  H   UNL     1       7.910   6.636  15.949  0.00  0.00    +0.000 HD
ENDBRANCH   1   9
BRANCH   4  16
ATOM     16  N   UNL     1       2.540   4.192  20.965  0.00  0.00    +0.000 NA
ATOM     17  N   UNL     1       1.937   3.298  21.588  0.00  0.00    +0.000 NA
ATOM     18  N   UNL     1       1.375   2.493  22.172  0.00  0.00    +0.000 NA
ENDBRANCH   4  16
BRANCH   3  19
ATOM     19  O   UNL     1       1.332   4.826  18.528  0.00  0.00    +0.000 OA
ATOM     20  H   UNL     1       0.592   4.595  17.932  0.00  0.00    +0.000 HD
ENDBRANCH   3  19
BRANCH   4  21
ATOM     21  C   UNL     1       4.020   2.463  19.952  0.00  0.00    +0.000 C 
BRANCH  21  22
ATOM     22  O   UNL     1       5.370   2.571  19.503  0.00  0.00    +0.000 OA
ATOM     23  H   UNL     1       5.829   1.749  19.756  0.00  0.00    +0.000 HD
ENDBRANCH  21  22
ENDBRANCH   4  21
TORSDOF 5
ENDMDL
MODEL 7
REMARK VINA RESULT:      -6.9      1.849      2.868
REMARK  Name = 
REMARK  6 active torsions:
REMARK  status: ('A' for Active; 'I' for Inactive)
REMARK    1  A    between atoms: C_1  and  C_2
REMARK    2  A    between atoms: N_4  and  C_5
REMARK    3  A    between atoms: C_7  and  O_8
REMARK    4  A    between atoms: C_9  and  C_10
REMARK    5  A    between atoms: C_9  and  N_12
REMARK    6  A    between atoms: C_10  and  O_11
REMARK                            x       y       z     vdW  Elec       q    Type
REMARK                         _______ _______ _______ _____ _____    ______ ____
ROOT
ATOM      1  C   UNL     1       4.064   4.813  17.107  0.00  0.00    +0.000 C 
ATOM      2  C   UNL     1       4.541   6.181  17.604  0.00  0.00    +0.000 C 
ATOM      3  C   UNL     1       5.631   6.624  16.639  0.00  0.00    +0.000 C 
ATOM      4  C   UNL     1       6.641   5.452  16.509  0.00  0.00    +0.000 C 
ATOM      5  S   UNL     1       5.551   3.954  16.496  0.00  0.00    +0.000 S 
ENDROOT
BRANCH   1   9
ATOM      6  C   UNL     1       4.051   1.941  21.176  0.00  0.00    +0.000 C 
ATOM      7  C   UNL     1       3.363   2.712  20.098  0.00  0.00    +0.000 A 
ATOM      8  C   UNL     1       3.987   3.289  19.065  0.00  0.00    +0.000 A 
ATOM      9  N   UNL     1       3.326   4.056  18.122  0.00  0.00    +0.000 N 
ATOM     10  C   UNL     1       1.946   4.228  18.178  0.00  0.00    +0.000 A 
ATOM     11  O   UNL     1       1.302   4.950  17.419  0.00  0.00    +0.000 OA
ATOM     12  N   UNL     1       1.301   3.552  19.179  0.00  0.00    +0.000 N 
ATOM     13  C   UNL     1       1.895   2.876  20.202  0.00  0.00    +0.000 A 
ATOM     14  O   UNL     1       1.262   2.446  21.159  0.00  0.00    +0.000 OA
ATOM     15  H   UNL     1       0.307   3.701  19.248  0.00  0.00    +0.000 HD
ENDBRANCH   1   9
BRANCH   4  16
ATOM     16  N   UNL     1       7.441   5.589  15.270  0.00  0.00    +0.000 NA
ATOM     17  N   UNL     1       7.042   4.968  14.266  0.00  0.00    +0.000 NA
ATOM     18  N   UNL     1       6.695   4.403  13.337  0.00  0.00    +0.000 NA
ENDBRANCH   4  16
BRANCH   3  19
ATOM     19  O   UNL     1       5.010   6.959  15.388  0.00  0.00    +0.000 OA
ATOM     20  H   UNL     1       5.210   6.247  14.748  0.00  0.00    +0.000 HD
ENDBRANCH   3  19
BRANCH   4  21
ATOM     21  C   UNL     1       7.570   5.303  17.741  0.00  0.00    +0.000 C 
BRANCH  21  22
ATOM     22  O   UNL     1       8.251   4.050  17.725  0.00  0.00    +0.000 OA
ATOM     23  H   UNL     1       8.417   3.794  18.650  0.00  0.00    +0.000 HD
ENDBRANCH  21  22
ENDBRANCH   4  21
TORSDOF 5
ENDMDL
MODEL 8
REMARK VINA RESULT:      -6.9      1.942      2.585
REMARK  Name = 
REMARK  6 active torsions:
REMARK  status: ('A' for Active; 'I' for Inactive)
REMARK    1  A    between atoms: C_1  and  C_2
REMARK    2  A    between atoms: N_4  and  C_5
REMARK    3  A    between atoms: C_7  and  O_8
REMARK    4  A    between atoms: C_9  and  C_10
REMARK    5  A    between atoms: C_9  and  N_12
REMARK    6  A    between atoms: C_10  and  O_11
REMARK                            x       y       z     vdW  Elec       q    Type
REMARK                         _______ _______ _______ _____ _____    ______ ____
ROOT
ATOM      1  C   UNL     1       4.102   4.956  17.153  0.00  0.00    +0.000 C 
ATOM      2  C   UNL     1       4.235   6.436  17.523  0.00  0.00    +0.000 C 
ATOM      3  C   UNL     1       5.442   6.957  16.756  0.00  0.00    +0.000 C 
ATOM      4  C   UNL     1       6.620   5.981  17.025  0.00  0.00    +0.000 C 
ATOM      5  S   UNL     1       5.804   4.318  17.010  0.00  0.00    +0.000 S 
ENDROOT
BRANCH   1   9
ATOM      6  C   UNL     1       2.391   4.226  21.773  0.00  0.00    +0.000 C 
ATOM      7  C   UNL     1       2.442   3.907  20.315  0.00  0.00    +0.000 A 
ATOM      8  C   UNL     1       3.296   4.465  19.449  0.00  0.00    +0.000 A 
ATOM      9  N   UNL     1       3.270   4.199  18.091  0.00  0.00    +0.000 N 
ATOM     10  C   UNL     1       2.365   3.285  17.558  0.00  0.00    +0.000 A 
ATOM     11  O   UNL     1       2.236   3.051  16.357  0.00  0.00    +0.000 OA
ATOM     12  N   UNL     1       1.563   2.643  18.463  0.00  0.00    +0.000 N 
ATOM     13  C   UNL     1       1.457   2.935  19.789  0.00  0.00    +0.000 A 
ATOM     14  O   UNL     1       0.591   2.441  20.503  0.00  0.00    +0.000 OA
ATOM     15  H   UNL     1       0.881   2.007  18.081  0.00  0.00    +0.000 HD
ENDBRANCH   1   9
BRANCH   4  16
ATOM     16  N   UNL     1       7.659   6.120  15.978  0.00  0.00    +0.000 NA
ATOM     17  N   UNL     1       7.430   5.580  14.879  0.00  0.00    +0.000 NA
ATOM     18  N   UNL     1       7.240   5.089  13.866  0.00  0.00    +0.000 NA
ENDBRANCH   4  16
BRANCH   3  19
ATOM     19  O   UNL     1       5.090   7.027  15.365  0.00  0.00    +0.000 OA
ATOM     20  H   UNL     1       4.507   6.269  15.160  0.00  0.00    +0.000 HD
ENDBRANCH   3  19
BRANCH   4  21
ATOM     21  C   UNL     1       7.244   6.147  18.435  0.00  0.00    +0.000 C 
BRANCH  21  22
ATOM     22  O   UNL     1       6.972   5.013  19.255  0.00  0.00    +0.000 OA
ATOM     23  H   UNL     1       7.288   5.218  20.154  0.00  0.00    +0.000 HD
ENDBRANCH  21  22
ENDBRANCH   4  21
TORSDOF 5
ENDMDL
MODEL 9
REMARK VINA RESULT:      -6.9      1.921      2.520
REMARK  Name = 
REMARK  6 active torsions:
REMARK  status: ('A' for Active; 'I' for Inactive)
REMARK    1  A    between atoms: C_1  and  C_2
REMARK    2  A    between atoms: N_4  and  C_5
REMARK    3  A    between atoms: C_7  and  O_8
REMARK    4  A    between atoms: C_9  and  C_10
REMARK    5  A    between atoms: C_9  and  N_12
REMARK    6  A    between atoms: C_10  and  O_11
REMARK                            x       y       z     vdW  Elec       q    Type
REMARK                         _______ _______ _______ _____ _____    ______ ____
ROOT
ATOM      1  C   UNL     1       4.039   5.161  17.242  0.00  0.00    +0.000 C 
ATOM      2  C   UNL     1       4.365   6.646  17.429  0.00  0.00    +0.000 C 
ATOM      3  C   UNL     1       5.551   6.936  16.520  0.00  0.00    +0.000 C 
ATOM      4  C   UNL     1       6.634   5.861  16.812  0.00  0.00    +0.000 C 
ATOM      5  S   UNL     1       5.643   4.314  17.049  0.00  0.00    +0.000 S 
ENDROOT
BRANCH   1   9
ATOM      6  C   UNL     1       0.411   2.103  18.757  0.00  0.00    +0.000 C 
ATOM      7  C   UNL     1       1.493   3.101  19.011  0.00  0.00    +0.000 A 
ATOM      8  C   UNL     1       2.168   3.745  18.051  0.00  0.00    +0.000 A 
ATOM      9  N   UNL     1       3.213   4.611  18.320  0.00  0.00    +0.000 N 
ATOM     10  C   UNL     1       3.589   4.895  19.629  0.00  0.00    +0.000 A 
ATOM     11  O   UNL     1       4.550   5.597  19.942  0.00  0.00    +0.000 OA
ATOM     12  N   UNL     1       2.830   4.312  20.607  0.00  0.00    +0.000 N 
ATOM     13  C   UNL     1       1.866   3.367  20.418  0.00  0.00    +0.000 A 
ATOM     14  O   UNL     1       1.350   2.760  21.350  0.00  0.00    +0.000 OA
ATOM     15  H   UNL     1       3.118   4.483  21.557  0.00  0.00    +0.000 HD
ENDBRANCH   1   9
BRANCH   4  16
ATOM     16  N   UNL     1       7.588   5.763  15.683  0.00  0.00    +0.000 NA
ATOM     17  N   UNL     1       7.209   5.138  14.675  0.00  0.00    +0.000 NA
ATOM     18  N   UNL     1       6.881   4.565  13.743  0.00  0.00    +0.000 NA
ENDBRANCH   4  16
BRANCH   3  19
ATOM     19  O   UNL     1       5.090   6.899  15.160  0.00  0.00    +0.000 OA
ATOM     20  H   UNL     1       4.203   6.488  15.150  0.00  0.00    +0.000 HD
ENDBRANCH   3  19
BRANCH   4  21
ATOM     21  C   UNL     1       7.392   6.101  18.144  0.00  0.00    +0.000 C 
BRANCH  21  22
ATOM     22  O   UNL     1       7.179   5.026  19.057  0.00  0.00    +0.000 OA
ATOM     23  H   UNL     1       6.217   4.924  19.173  0.00  0.00    +0.000 HD
ENDBRANCH  21  22
ENDBRANCH   4  21
TORSDOF 5
ENDMDL
