MODEL 1
REMARK VINA RESULT:      -8.3      0.000      0.000
REMARK  Name = 
REMARK  9 active torsions:
REMARK  status: ('A' for Active; 'I' for Inactive)
REMARK    1  A    between atoms: C_1  and  C_2
REMARK    2  A    between atoms: C_7  and  C_8
REMARK    3  A    between atoms: C_13  and  O_14
REMARK    4  A    between atoms: O_14  and  C_15
REMARK    5  A    between atoms: N_26  and  C_27
REMARK    6  A    between atoms: C_27  and  C_28
REMARK    7  A    between atoms: N_32  and  C_33
REMARK    8  A    between atoms: C_33  and  C_34
REMARK    9  A    between atoms: C_33  and  C_35
REMARK                            x       y       z     vdW  Elec       q    Type
REMARK                         _______ _______ _______ _____ _____    ______ ____
ROOT
ATOM      1  C   UNL     1       0.120  10.821  20.153  0.00  0.00    +0.000 A 
ATOM      2  N   UNL     1       0.289   9.588  20.540  0.00  0.00    +0.000 NA
ATOM      3  C   UNL     1       1.209   8.754  19.909  0.00  0.00    +0.000 A 
ATOM      4  C   UNL     1       1.370   7.453  20.393  0.00  0.00    +0.000 A 
ATOM      5  C   UNL     1       2.183   6.527  19.731  0.00  0.00    +0.000 A 
ATOM      6  C   UNL     1       2.898   6.898  18.593  0.00  0.00    +0.000 A 
ATOM      7  C   UNL     1       2.768   8.225  18.120  0.00  0.00    +0.000 A 
ATOM      8  C   UNL     1       1.926   9.146  18.792  0.00  0.00    +0.000 A 
ATOM      9  C   UNL     1       1.740  10.559  18.356  0.00  0.00    +0.000 A 
ATOM     10  O   UNL     1       2.315  10.925  17.332  0.00  0.00    +0.000 OA
ATOM     11  N   UNL     1       0.895  11.393  19.133  0.00  0.00    +0.000 N 
ENDROOT
BRANCH   1  18
ATOM     12  C   UNL     1      -2.699  11.988  19.108  0.00  0.00    +0.000 C 
ATOM     13  C   UNL     1      -2.153  12.104  20.504  0.00  0.00    +0.000 A 
ATOM     14  C   UNL     1      -3.019  12.699  21.456  0.00  0.00    +0.000 A 
ATOM     15  C   UNL     1      -2.728  12.696  22.820  0.00  0.00    +0.000 A 
ATOM     16  C   UNL     1      -1.551  12.116  23.263  0.00  0.00    +0.000 A 
ATOM     17  C   UNL     1      -0.647  11.591  22.337  0.00  0.00    +0.000 A 
ATOM     18  C   UNL     1      -0.914  11.591  20.952  0.00  0.00    +0.000 A 
ENDBRANCH   1  18
BRANCH   6  19
ATOM     19  O   UNL     1       3.695   6.031  17.856  0.00  0.00    +0.000 OA
BRANCH  19  20
ATOM     20  C   UNL     1       3.670   4.670  18.113  0.00  0.00    +0.000 A 
ATOM     21  C   UNL     1       2.804   3.870  17.354  0.00  0.00    +0.000 A 
ATOM     22  C   UNL     1       2.752   2.485  17.576  0.00  0.00    +0.000 A 
ATOM     23  C   UNL     1       3.567   1.913  18.544  0.00  0.00    +0.000 A 
ATOM     24  F   UNL     1       3.499   0.593  18.778  0.00  0.00    +0.000 F 
ATOM     25  C   UNL     1       4.460   2.689  19.274  0.00  0.00    +0.000 A 
ATOM     26  C   UNL     1       4.530   4.060  19.037  0.00  0.00    +0.000 A 
ENDBRANCH  19  20
ENDBRANCH   6  19
BRANCH  11  27
ATOM     27  C   UNL     1       0.731  12.802  18.673  0.00  0.00    +0.000 C 
BRANCH  27  28
ATOM     28  C   UNL     1       1.078  13.943  19.680  0.00  0.00    +0.000 C 
ATOM     29  C   UNL     1       0.046  15.080  19.712  0.00  0.00    +0.000 C 
ATOM     30  C   UNL     1       0.257  16.173  18.662  0.00  0.00    +0.000 C 
ATOM     31  C   UNL     1       1.715  16.572  18.400  0.00  0.00    +0.000 C 
ATOM     32  N   UNL     1       2.610  15.419  18.267  0.00  0.00    +0.000 NA
ATOM     33  C   UNL     1       2.504  14.504  19.416  0.00  0.00    +0.000 C 
BRANCH  32  34
ATOM     34  C   UNL     1       4.028  15.767  17.960  0.00  0.00    +0.000 C 
ATOM     35  C   UNL     1       4.532  16.846  18.925  0.00  0.00    +0.000 C 
ATOM     36  C   UNL     1       5.075  14.640  17.907  0.00  0.00    +0.000 C 
ENDBRANCH  32  34
ENDBRANCH  27  28
ENDBRANCH  11  27
TORSDOF 6
ENDMDL
MODEL 2
REMARK VINA RESULT:      -8.2      1.618      1.974
REMARK  Name = 
REMARK  9 active torsions:
REMARK  status: ('A' for Active; 'I' for Inactive)
REMARK    1  A    between atoms: C_1  and  C_2
REMARK    2  A    between atoms: C_7  and  C_8
REMARK    3  A    between atoms: C_13  and  O_14
REMARK    4  A    between atoms: O_14  and  C_15
REMARK    5  A    between atoms: N_26  and  C_27
REMARK    6  A    between atoms: C_27  and  C_28
REMARK    7  A    between atoms: N_32  and  C_33
REMARK    8  A    between atoms: C_33  and  C_34
REMARK    9  A    between atoms: C_33  and  C_35
REMARK                            x       y       z     vdW  Elec       q    Type
REMARK                         _______ _______ _______ _____ _____    ______ ____
ROOT
ATOM      1  C   UNL     1      -1.028  12.018  20.853  0.00  0.00    +0.000 A 
ATOM      2  N   UNL     1      -0.914  10.879  21.474  0.00  0.00    +0.000 NA
ATOM      3  C   UNL     1       0.026   9.930  21.075  0.00  0.00    +0.000 A 
ATOM      4  C   UNL     1       0.124   8.742  21.803  0.00  0.00    +0.000 A 
ATOM      5  C   UNL     1       0.957   7.699  21.384  0.00  0.00    +0.000 A 
ATOM      6  C   UNL     1       1.753   7.842  20.248  0.00  0.00    +0.000 A 
ATOM      7  C   UNL     1       1.686   9.058  19.528  0.00  0.00    +0.000 A 
ATOM      8  C   UNL     1       0.824  10.098  19.957  0.00  0.00    +0.000 A 
ATOM      9  C   UNL     1       0.700  11.406  19.253  0.00  0.00    +0.000 A 
ATOM     10  O   UNL     1       1.350  11.567  18.221  0.00  0.00    +0.000 OA
ATOM     11  N   UNL     1      -0.174  12.380  19.801  0.00  0.00    +0.000 N 
ENDROOT
BRANCH   1  18
ATOM     12  C   UNL     1      -4.005  12.511  19.715  0.00  0.00    +0.000 C 
ATOM     13  C   UNL     1      -3.402  13.156  20.931  0.00  0.00    +0.000 A 
ATOM     14  C   UNL     1      -4.274  13.978  21.689  0.00  0.00    +0.000 A 
ATOM     15  C   UNL     1      -3.914  14.481  22.938  0.00  0.00    +0.000 A 
ATOM     16  C   UNL     1      -2.661  14.191  23.452  0.00  0.00    +0.000 A 
ATOM     17  C   UNL     1      -1.756  13.446  22.692  0.00  0.00    +0.000 A 
ATOM     18  C   UNL     1      -2.094  12.936  21.421  0.00  0.00    +0.000 A 
ENDBRANCH   1  18
BRANCH   6  19
ATOM     19  O   UNL     1       2.577   6.844  19.743  0.00  0.00    +0.000 OA
BRANCH  19  20
ATOM     20  C   UNL     1       2.068   5.581  19.488  0.00  0.00    +0.000 A 
ATOM     21  C   UNL     1       2.080   5.118  18.164  0.00  0.00    +0.000 A 
ATOM     22  C   UNL     1       1.581   3.842  17.862  0.00  0.00    +0.000 A 
ATOM     23  C   UNL     1       1.084   3.039  18.881  0.00  0.00    +0.000 A 
ATOM     24  F   UNL     1       0.581   1.829  18.590  0.00  0.00    +0.000 F 
ATOM     25  C   UNL     1       1.105   3.469  20.202  0.00  0.00    +0.000 A 
ATOM     26  C   UNL     1       1.623   4.727  20.506  0.00  0.00    +0.000 A 
ENDBRANCH  19  20
ENDBRANCH   6  19
BRANCH  11  27
ATOM     27  C   UNL     1      -0.274  13.680  19.075  0.00  0.00    +0.000 C 
BRANCH  27  28
ATOM     28  C   UNL     1       0.052  14.984  19.867  0.00  0.00    +0.000 C 
ATOM     29  C   UNL     1      -0.878  16.161  19.539  0.00  0.00    +0.000 C 
ATOM     30  C   UNL     1      -0.461  16.995  18.326  0.00  0.00    +0.000 C 
ATOM     31  C   UNL     1       1.046  17.243  18.176  0.00  0.00    +0.000 C 
ATOM     32  N   UNL     1       1.851  16.038  18.392  0.00  0.00    +0.000 NA
ATOM     33  C   UNL     1       1.541  15.393  19.679  0.00  0.00    +0.000 C 
BRANCH  32  34
ATOM     34  C   UNL     1       3.318  16.230  18.203  0.00  0.00    +0.000 C 
ATOM     35  C   UNL     1       3.932  16.892  19.442  0.00  0.00    +0.000 C 
ATOM     36  C   UNL     1       4.184  15.015  17.828  0.00  0.00    +0.000 C 
ENDBRANCH  32  34
ENDBRANCH  27  28
ENDBRANCH  11  27
TORSDOF 6
ENDMDL
MODEL 3
REMARK VINA RESULT:      -8.2      1.669      2.384
REMARK  Name = 
REMARK  9 active torsions:
REMARK  status: ('A' for Active; 'I' for Inactive)
REMARK    1  A    between atoms: C_1  and  C_2
REMARK    2  A    between atoms: C_7  and  C_8
REMARK    3  A    between atoms: C_13  and  O_14
REMARK    4  A    between atoms: O_14  and  C_15
REMARK    5  A    between atoms: N_26  and  C_27
REMARK    6  A    between atoms: C_27  and  C_28
REMARK    7  A    between atoms: N_32  and  C_33
REMARK    8  A    between atoms: C_33  and  C_34
REMARK    9  A    between atoms: C_33  and  C_35
REMARK                            x       y       z     vdW  Elec       q    Type
REMARK                         _______ _______ _______ _____ _____    ______ ____
ROOT
ATOM      1  C   UNL     1      -1.237  12.066  20.860  0.00  0.00    +0.000 A 
ATOM      2  N   UNL     1      -1.136  10.923  21.477  0.00  0.00    +0.000 NA
ATOM      3  C   UNL     1      -0.161   9.994  21.121  0.00  0.00    +0.000 A 
ATOM      4  C   UNL     1      -0.081   8.801  21.844  0.00  0.00    +0.000 A 
ATOM      5  C   UNL     1       0.790   7.775  21.461  0.00  0.00    +0.000 A 
ATOM      6  C   UNL     1       1.644   7.942  20.371  0.00  0.00    +0.000 A 
ATOM      7  C   UNL     1       1.594   9.163  19.658  0.00  0.00    +0.000 A 
ATOM      8  C   UNL     1       0.694  10.184  20.049  0.00  0.00    +0.000 A 
ATOM      9  C   UNL     1       0.585  11.496  19.349  0.00  0.00    +0.000 A 
ATOM     10  O   UNL     1       1.286  11.677  18.355  0.00  0.00    +0.000 OA
ATOM     11  N   UNL     1      -0.334  12.451  19.857  0.00  0.00    +0.000 N 
ENDROOT
BRANCH   1  18
ATOM     12  C   UNL     1      -1.094  14.144  23.321  0.00  0.00    +0.000 C 
ATOM     13  C   UNL     1      -2.292  13.876  22.454  0.00  0.00    +0.000 A 
ATOM     14  C   UNL     1      -3.423  14.698  22.695  0.00  0.00    +0.000 A 
ATOM     15  C   UNL     1      -4.529  14.697  21.846  0.00  0.00    +0.000 A 
ATOM     16  C   UNL     1      -4.540  13.858  20.745  0.00  0.00    +0.000 A 
ATOM     17  C   UNL     1      -3.471  12.986  20.528  0.00  0.00    +0.000 A 
ATOM     18  C   UNL     1      -2.346  12.961  21.377  0.00  0.00    +0.000 A 
ENDBRANCH   1  18
BRANCH   6  19
ATOM     19  O   UNL     1       2.510   6.962  19.903  0.00  0.00    +0.000 OA
BRANCH  19  20
ATOM     20  C   UNL     1       2.034   5.696  19.599  0.00  0.00    +0.000 A 
ATOM     21  C   UNL     1       2.081   5.276  18.262  0.00  0.00    +0.000 A 
ATOM     22  C   UNL     1       1.616   3.999  17.910  0.00  0.00    +0.000 A 
ATOM     23  C   UNL     1       1.119   3.154  18.894  0.00  0.00    +0.000 A 
ATOM     24  F   UNL     1       0.649   1.943  18.557  0.00  0.00    +0.000 F 
ATOM     25  C   UNL     1       1.107   3.542  20.228  0.00  0.00    +0.000 A 
ATOM     26  C   UNL     1       1.591   4.800  20.581  0.00  0.00    +0.000 A 
ENDBRANCH  19  20
ENDBRANCH   6  19
BRANCH  11  27
ATOM     27  C   UNL     1      -0.417  13.755  19.138  0.00  0.00    +0.000 C 
BRANCH  27  28
ATOM     28  C   UNL     1       0.062  15.035  19.891  0.00  0.00    +0.000 C 
ATOM     29  C   UNL     1      -0.726  16.302  19.529  0.00  0.00    +0.000 C 
ATOM     30  C   UNL     1      -0.220  17.046  18.291  0.00  0.00    +0.000 C 
ATOM     31  C   UNL     1       1.306  17.113  18.133  0.00  0.00    +0.000 C 
ATOM     32  N   UNL     1       1.965  15.829  18.385  0.00  0.00    +0.000 NA
ATOM     33  C   UNL     1       1.587  15.262  19.689  0.00  0.00    +0.000 C 
BRANCH  32  34
ATOM     34  C   UNL     1       3.444  15.843  18.189  0.00  0.00    +0.000 C 
ATOM     35  C   UNL     1       4.107  16.774  19.210  0.00  0.00    +0.000 C 
ATOM     36  C   UNL     1       4.207  14.506  18.190  0.00  0.00    +0.000 C 
ENDBRANCH  32  34
ENDBRANCH  27  28
ENDBRANCH  11  27
TORSDOF 6
ENDMDL
MODEL 4
REMARK VINA RESULT:      -8.1      1.159      1.791
REMARK  Name = 
REMARK  9 active torsions:
REMARK  status: ('A' for Active; 'I' for Inactive)
REMARK    1  A    between atoms: C_1  and  C_2
REMARK    2  A    between atoms: C_7  and  C_8
REMARK    3  A    between atoms: C_13  and  O_14
REMARK    4  A    between atoms: O_14  and  C_15
REMARK    5  A    between atoms: N_26  and  C_27
REMARK    6  A    between atoms: C_27  and  C_28
REMARK    7  A    between atoms: N_32  and  C_33
REMARK    8  A    between atoms: C_33  and  C_34
REMARK    9  A    between atoms: C_33  and  C_35
REMARK                            x       y       z     vdW  Elec       q    Type
REMARK                         _______ _______ _______ _____ _____    ______ ____
ROOT
ATOM      1  C   UNL     1       0.081  10.905  20.183  0.00  0.00    +0.000 A 
ATOM      2  N   UNL     1       0.251   9.671  20.564  0.00  0.00    +0.000 NA
ATOM      3  C   UNL     1       1.173   8.840  19.930  0.00  0.00    +0.000 A 
ATOM      4  C   UNL     1       1.335   7.537  20.407  0.00  0.00    +0.000 A 
ATOM      5  C   UNL     1       2.149   6.615  19.741  0.00  0.00    +0.000 A 
ATOM      6  C   UNL     1       2.865   6.993  18.605  0.00  0.00    +0.000 A 
ATOM      7  C   UNL     1       2.735   8.323  18.140  0.00  0.00    +0.000 A 
ATOM      8  C   UNL     1       1.892   9.239  18.816  0.00  0.00    +0.000 A 
ATOM      9  C   UNL     1       1.704  10.655  18.387  0.00  0.00    +0.000 A 
ATOM     10  O   UNL     1       2.280  11.027  17.366  0.00  0.00    +0.000 OA
ATOM     11  N   UNL     1       0.857  11.483  19.168  0.00  0.00    +0.000 N 
ENDROOT
BRANCH   1  18
ATOM     12  C   UNL     1      -2.760  12.031  19.154  0.00  0.00    +0.000 C 
ATOM     13  C   UNL     1      -2.203  12.165  20.543  0.00  0.00    +0.000 A 
ATOM     14  C   UNL     1      -3.067  12.757  21.499  0.00  0.00    +0.000 A 
ATOM     15  C   UNL     1      -2.765  12.770  22.860  0.00  0.00    +0.000 A 
ATOM     16  C   UNL     1      -1.577  12.207  23.297  0.00  0.00    +0.000 A 
ATOM     17  C   UNL     1      -0.675  11.684  22.367  0.00  0.00    +0.000 A 
ATOM     18  C   UNL     1      -0.954  11.670  20.986  0.00  0.00    +0.000 A 
ENDBRANCH   1  18
BRANCH   6  19
ATOM     19  O   UNL     1       3.664   6.132  17.865  0.00  0.00    +0.000 OA
BRANCH  19  20
ATOM     20  C   UNL     1       3.635   4.768  18.110  0.00  0.00    +0.000 A 
ATOM     21  C   UNL     1       2.782   3.975  17.329  0.00  0.00    +0.000 A 
ATOM     22  C   UNL     1       2.725   2.588  17.537  0.00  0.00    +0.000 A 
ATOM     23  C   UNL     1       3.523   2.007  18.514  0.00  0.00    +0.000 A 
ATOM     24  F   UNL     1       3.451   0.685  18.734  0.00  0.00    +0.000 F 
ATOM     25  C   UNL     1       4.404   2.776  19.266  0.00  0.00    +0.000 A 
ATOM     26  C   UNL     1       4.478   4.149  19.042  0.00  0.00    +0.000 A 
ENDBRANCH  19  20
ENDBRANCH   6  19
BRANCH  11  27
ATOM     27  C   UNL     1       0.693  12.895  18.715  0.00  0.00    +0.000 C 
BRANCH  27  28
ATOM     28  C   UNL     1       1.799  13.922  19.112  0.00  0.00    +0.000 C 
ATOM     29  C   UNL     1       2.249  13.817  20.576  0.00  0.00    +0.000 C 
ATOM     30  C   UNL     1       1.397  14.607  21.571  0.00  0.00    +0.000 C 
ATOM     31  C   UNL     1       0.920  15.985  21.093  0.00  0.00    +0.000 C 
ATOM     32  N   UNL     1       0.398  15.967  19.724  0.00  0.00    +0.000 NA
ATOM     33  C   UNL     1       1.357  15.374  18.776  0.00  0.00    +0.000 C 
BRANCH  32  34
ATOM     34  C   UNL     1      -0.123  17.279  19.242  0.00  0.00    +0.000 C 
ATOM     35  C   UNL     1       0.904  18.387  19.500  0.00  0.00    +0.000 C 
ATOM     36  C   UNL     1      -0.606  17.399  17.785  0.00  0.00    +0.000 C 
ENDBRANCH  32  34
ENDBRANCH  27  28
ENDBRANCH  11  27
TORSDOF 6
ENDMDL
MODEL 5
REMARK VINA RESULT:      -8.1      1.106      1.983
REMARK  Name = 
REMARK  9 active torsions:
REMARK  status: ('A' for Active; 'I' for Inactive)
REMARK    1  A    between atoms: C_1  and  C_2
REMARK    2  A    between atoms: C_7  and  C_8
REMARK    3  A    between atoms: C_13  and  O_14
REMARK    4  A    between atoms: O_14  and  C_15
REMARK    5  A    between atoms: N_26  and  C_27
REMARK    6  A    between atoms: C_27  and  C_28
REMARK    7  A    between atoms: N_32  and  C_33
REMARK    8  A    between atoms: C_33  and  C_34
REMARK    9  A    between atoms: C_33  and  C_35
REMARK                            x       y       z     vdW  Elec       q    Type
REMARK                         _______ _______ _______ _____ _____    ______ ____
ROOT
ATOM      1  C   UNL     1       0.171  10.877  20.135  0.00  0.00    +0.000 A 
ATOM      2  N   UNL     1       0.329   9.640  20.513  0.00  0.00    +0.000 NA
ATOM      3  C   UNL     1       1.242   8.802  19.877  0.00  0.00    +0.000 A 
ATOM      4  C   UNL     1       1.391   7.496  20.352  0.00  0.00    +0.000 A 
ATOM      5  C   UNL     1       2.195   6.567  19.684  0.00  0.00    +0.000 A 
ATOM      6  C   UNL     1       2.915   6.940  18.548  0.00  0.00    +0.000 A 
ATOM      7  C   UNL     1       2.797   8.272  18.085  0.00  0.00    +0.000 A 
ATOM      8  C   UNL     1       1.964   9.195  18.764  0.00  0.00    +0.000 A 
ATOM      9  C   UNL     1       1.791  10.613  18.338  0.00  0.00    +0.000 A 
ATOM     10  O   UNL     1       2.370  10.982  17.317  0.00  0.00    +0.000 OA
ATOM     11  N   UNL     1       0.953  11.449  19.120  0.00  0.00    +0.000 N 
ENDROOT
BRANCH   1  18
ATOM     12  C   UNL     1      -2.665  12.021  19.113  0.00  0.00    +0.000 C 
ATOM     13  C   UNL     1      -2.102  12.154  20.500  0.00  0.00    +0.000 A 
ATOM     14  C   UNL     1      -2.959  12.755  21.458  0.00  0.00    +0.000 A 
ATOM     15  C   UNL     1      -2.652  12.767  22.817  0.00  0.00    +0.000 A 
ATOM     16  C   UNL     1      -1.467  12.197  23.252  0.00  0.00    +0.000 A 
ATOM     17  C   UNL     1      -0.572  11.666  22.320  0.00  0.00    +0.000 A 
ATOM     18  C   UNL     1      -0.856  11.651  20.939  0.00  0.00    +0.000 A 
ENDBRANCH   1  18
BRANCH   6  19
ATOM     19  O   UNL     1       3.704   6.072  17.806  0.00  0.00    +0.000 OA
BRANCH  19  20
ATOM     20  C   UNL     1       3.630   4.704  18.020  0.00  0.00    +0.000 A 
ATOM     21  C   UNL     1       4.512   4.132  18.947  0.00  0.00    +0.000 A 
ATOM     22  C   UNL     1       4.467   2.752  19.201  0.00  0.00    +0.000 A 
ATOM     23  C   UNL     1       3.540   1.961  18.534  0.00  0.00    +0.000 A 
ATOM     24  F   UNL     1       3.513   0.637  18.753  0.00  0.00    +0.000 F 
ATOM     25  C   UNL     1       2.633   2.523  17.644  0.00  0.00    +0.000 A 
ATOM     26  C   UNL     1       2.661   3.897  17.411  0.00  0.00    +0.000 A 
ENDBRANCH  19  20
ENDBRANCH   6  19
BRANCH  11  27
ATOM     27  C   UNL     1       0.803  12.864  18.670  0.00  0.00    +0.000 C 
BRANCH  27  28
ATOM     28  C   UNL     1       1.835  13.909  19.194  0.00  0.00    +0.000 C 
ATOM     29  C   UNL     1       1.922  13.985  20.726  0.00  0.00    +0.000 C 
ATOM     30  C   UNL     1       0.901  14.914  21.385  0.00  0.00    +0.000 C 
ATOM     31  C   UNL     1       0.621  16.228  20.644  0.00  0.00    +0.000 C 
ATOM     32  N   UNL     1       0.436  16.046  19.202  0.00  0.00    +0.000 NA
ATOM     33  C   UNL     1       1.559  15.316  18.591  0.00  0.00    +0.000 C 
BRANCH  32  34
ATOM     34  C   UNL     1       0.110  17.295  18.455  0.00  0.00    +0.000 C 
ATOM     35  C   UNL     1      -1.388  17.601  18.559  0.00  0.00    +0.000 C 
ATOM     36  C   UNL     1       0.889  18.582  18.782  0.00  0.00    +0.000 C 
ENDBRANCH  32  34
ENDBRANCH  27  28
ENDBRANCH  11  27
TORSDOF 6
ENDMDL
MODEL 6
REMARK VINA RESULT:      -8.0      1.630      2.461
REMARK  Name = 
REMARK  9 active torsions:
REMARK  status: ('A' for Active; 'I' for Inactive)
REMARK    1  A    between atoms: C_1  and  C_2
REMARK    2  A    between atoms: C_7  and  C_8
REMARK    3  A    between atoms: C_13  and  O_14
REMARK    4  A    between atoms: O_14  and  C_15
REMARK    5  A    between atoms: N_26  and  C_27
REMARK    6  A    between atoms: C_27  and  C_28
REMARK    7  A    between atoms: N_32  and  C_33
REMARK    8  A    between atoms: C_33  and  C_34
REMARK    9  A    between atoms: C_33  and  C_35
REMARK                            x       y       z     vdW  Elec       q    Type
REMARK                         _______ _______ _______ _____ _____    ______ ____
ROOT
ATOM      1  C   UNL     1      -1.240  11.948  20.797  0.00  0.00    +0.000 A 
ATOM      2  N   UNL     1      -1.128  10.801  21.405  0.00  0.00    +0.000 NA
ATOM      3  C   UNL     1      -0.136   9.890  21.051  0.00  0.00    +0.000 A 
ATOM      4  C   UNL     1      -0.046   8.692  21.764  0.00  0.00    +0.000 A 
ATOM      5  C   UNL     1       0.844   7.683  21.381  0.00  0.00    +0.000 A 
ATOM      6  C   UNL     1       1.707   7.872  20.302  0.00  0.00    +0.000 A 
ATOM      7  C   UNL     1       1.646   9.099  19.599  0.00  0.00    +0.000 A 
ATOM      8  C   UNL     1       0.726  10.103  19.990  0.00  0.00    +0.000 A 
ATOM      9  C   UNL     1       0.606  11.420  19.301  0.00  0.00    +0.000 A 
ATOM     10  O   UNL     1       1.314  11.620  18.315  0.00  0.00    +0.000 OA
ATOM     11  N   UNL     1      -0.333  12.356  19.808  0.00  0.00    +0.000 N 
ENDROOT
BRANCH   1  18
ATOM     12  C   UNL     1      -1.180  13.939  23.333  0.00  0.00    +0.000 C 
ATOM     13  C   UNL     1      -2.350  13.699  22.421  0.00  0.00    +0.000 A 
ATOM     14  C   UNL     1      -3.490  14.509  22.656  0.00  0.00    +0.000 A 
ATOM     15  C   UNL     1      -4.570  14.536  21.774  0.00  0.00    +0.000 A 
ATOM     16  C   UNL     1      -4.544  13.736  20.644  0.00  0.00    +0.000 A 
ATOM     17  C   UNL     1      -3.466  12.875  20.429  0.00  0.00    +0.000 A 
ATOM     18  C   UNL     1      -2.368  12.822  21.312  0.00  0.00    +0.000 A 
ENDBRANCH   1  18
BRANCH   6  19
ATOM     19  O   UNL     1       2.592   6.909  19.833  0.00  0.00    +0.000 OA
BRANCH  19  20
ATOM     20  C   UNL     1       2.132   5.652  19.477  0.00  0.00    +0.000 A 
ATOM     21  C   UNL     1       1.707   4.790  20.499  0.00  0.00    +0.000 A 
ATOM     22  C   UNL     1       1.226   3.509  20.183  0.00  0.00    +0.000 A 
ATOM     23  C   UNL     1       1.168   3.106  18.856  0.00  0.00    +0.000 A 
ATOM     24  F   UNL     1       0.734   1.872  18.553  0.00  0.00    +0.000 F 
ATOM     25  C   UNL     1       1.545   3.966  17.831  0.00  0.00    +0.000 A 
ATOM     26  C   UNL     1       1.999   5.246  18.143  0.00  0.00    +0.000 A 
ENDBRANCH  19  20
ENDBRANCH   6  19
BRANCH  11  27
ATOM     27  C   UNL     1      -0.428  13.666  19.099  0.00  0.00    +0.000 C 
BRANCH  27  28
ATOM     28  C   UNL     1      -0.086  14.957  19.905  0.00  0.00    +0.000 C 
ATOM     29  C   UNL     1      -0.749  16.228  19.356  0.00  0.00    +0.000 C 
ATOM     30  C   UNL     1       0.023  16.926  18.234  0.00  0.00    +0.000 C 
ATOM     31  C   UNL     1       1.549  16.960  18.398  0.00  0.00    +0.000 C 
ATOM     32  N   UNL     1       2.110  15.671  18.813  0.00  0.00    +0.000 NA
ATOM     33  C   UNL     1       1.453  15.149  20.023  0.00  0.00    +0.000 C 
BRANCH  32  34
ATOM     34  C   UNL     1       3.597  15.651  18.933  0.00  0.00    +0.000 C 
ATOM     35  C   UNL     1       4.233  15.297  17.585  0.00  0.00    +0.000 C 
ATOM     36  C   UNL     1       4.315  16.890  19.495  0.00  0.00    +0.000 C 
ENDBRANCH  32  34
ENDBRANCH  27  28
ENDBRANCH  11  27
TORSDOF 6
ENDMDL
MODEL 7
REMARK VINA RESULT:      -7.9      2.330      5.014
REMARK  Name = 
REMARK  9 active torsions:
REMARK  status: ('A' for Active; 'I' for Inactive)
REMARK    1  A    between atoms: C_1  and  C_2
REMARK    2  A    between atoms: C_7  and  C_8
REMARK    3  A    between atoms: C_13  and  O_14
REMARK    4  A    between atoms: O_14  and  C_15
REMARK    5  A    between atoms: N_26  and  C_27
REMARK    6  A    between atoms: C_27  and  C_28
REMARK    7  A    between atoms: N_32  and  C_33
REMARK    8  A    between atoms: C_33  and  C_34
REMARK    9  A    between atoms: C_33  and  C_35
REMARK                            x       y       z     vdW  Elec       q    Type
REMARK                         _______ _______ _______ _____ _____    ______ ____
ROOT
ATOM      1  C   UNL     1       0.743  12.270  20.047  0.00  0.00    +0.000 A 
ATOM      2  N   UNL     1       1.336  11.652  19.066  0.00  0.00    +0.000 NA
ATOM      3  C   UNL     1       1.489  10.267  19.072  0.00  0.00    +0.000 A 
ATOM      4  C   UNL     1       2.102   9.659  17.974  0.00  0.00    +0.000 A 
ATOM      5  C   UNL     1       2.398   8.292  17.971  0.00  0.00    +0.000 A 
ATOM      6  C   UNL     1       2.038   7.488  19.053  0.00  0.00    +0.000 A 
ATOM      7  C   UNL     1       1.383   8.091  20.151  0.00  0.00    +0.000 A 
ATOM      8  C   UNL     1       1.106   9.481  20.145  0.00  0.00    +0.000 A 
ATOM      9  C   UNL     1       0.419  10.187  21.264  0.00  0.00    +0.000 A 
ATOM     10  O   UNL     1       0.119   9.531  22.260  0.00  0.00    +0.000 OA
ATOM     11  N   UNL     1       0.170  11.577  21.124  0.00  0.00    +0.000 N 
ENDROOT
BRANCH   1  18
ATOM     12  C   UNL     1       2.543  14.518  21.497  0.00  0.00    +0.000 C 
ATOM     13  C   UNL     1       1.442  14.768  20.506  0.00  0.00    +0.000 A 
ATOM     14  C   UNL     1       1.261  16.118  20.111  0.00  0.00    +0.000 A 
ATOM     15  C   UNL     1       0.415  16.473  19.061  0.00  0.00    +0.000 A 
ATOM     16  C   UNL     1      -0.289  15.486  18.393  0.00  0.00    +0.000 A 
ATOM     17  C   UNL     1      -0.186  14.157  18.811  0.00  0.00    +0.000 A 
ATOM     18  C   UNL     1       0.655  13.775  19.877  0.00  0.00    +0.000 A 
ENDBRANCH   1  18
BRANCH   6  19
ATOM     19  O   UNL     1       2.328   6.132  19.146  0.00  0.00    +0.000 OA
BRANCH  19  20
ATOM     20  C   UNL     1       3.509   5.633  18.621  0.00  0.00    +0.000 A 
ATOM     21  C   UNL     1       4.666   5.708  19.409  0.00  0.00    +0.000 A 
ATOM     22  C   UNL     1       5.883   5.208  18.920  0.00  0.00    +0.000 A 
ATOM     23  C   UNL     1       5.930   4.632  17.656  0.00  0.00    +0.000 A 
ATOM     24  F   UNL     1       7.098   4.177  17.175  0.00  0.00    +0.000 F 
ATOM     25  C   UNL     1       4.782   4.513  16.883  0.00  0.00    +0.000 A 
ATOM     26  C   UNL     1       3.569   4.987  17.379  0.00  0.00    +0.000 A 
ENDBRANCH  19  20
ENDBRANCH   6  19
BRANCH  11  27
ATOM     27  C   UNL     1      -0.523  12.255  22.258  0.00  0.00    +0.000 C 
BRANCH  27  28
ATOM     28  C   UNL     1      -2.081  12.190  22.305  0.00  0.00    +0.000 C 
ATOM     29  C   UNL     1      -2.766  12.742  21.046  0.00  0.00    +0.000 C 
ATOM     30  C   UNL     1      -2.997  14.254  21.048  0.00  0.00    +0.000 C 
ATOM     31  C   UNL     1      -3.430  14.859  22.390  0.00  0.00    +0.000 C 
ATOM     32  N   UNL     1      -2.645  14.362  23.523  0.00  0.00    +0.000 NA
ATOM     33  C   UNL     1      -2.630  12.891  23.580  0.00  0.00    +0.000 C 
BRANCH  32  34
ATOM     34  C   UNL     1      -3.002  14.968  24.839  0.00  0.00    +0.000 C 
ATOM     35  C   UNL     1      -1.734  15.344  25.613  0.00  0.00    +0.000 C 
ATOM     36  C   UNL     1      -3.960  16.172  24.868  0.00  0.00    +0.000 C 
ENDBRANCH  32  34
ENDBRANCH  27  28
ENDBRANCH  11  27
TORSDOF 6
ENDMDL
MODEL 8
REMARK VINA RESULT:      -7.9      2.015      2.607
REMARK  Name = 
REMARK  9 active torsions:
REMARK  status: ('A' for Active; 'I' for Inactive)
REMARK    1  A    between atoms: C_1  and  C_2
REMARK    2  A    between atoms: C_7  and  C_8
REMARK    3  A    between atoms: C_13  and  O_14
REMARK    4  A    between atoms: O_14  and  C_15
REMARK    5  A    between atoms: N_26  and  C_27
REMARK    6  A    between atoms: C_27  and  C_28
REMARK    7  A    between atoms: N_32  and  C_33
REMARK    8  A    between atoms: C_33  and  C_34
REMARK    9  A    between atoms: C_33  and  C_35
REMARK                            x       y       z     vdW  Elec       q    Type
REMARK                         _______ _______ _______ _____ _____    ______ ____
ROOT
ATOM      1  C   UNL     1       0.104  10.407  20.409  0.00  0.00    +0.000 A 
ATOM      2  N   UNL     1       0.155   9.233  20.972  0.00  0.00    +0.000 NA
ATOM      3  C   UNL     1       0.991   8.233  20.481  0.00  0.00    +0.000 A 
ATOM      4  C   UNL     1       1.028   7.006  21.149  0.00  0.00    +0.000 A 
ATOM      5  C   UNL     1       1.749   5.922  20.640  0.00  0.00    +0.000 A 
ATOM      6  C   UNL     1       2.496   6.055  19.470  0.00  0.00    +0.000 A 
ATOM      7  C   UNL     1       2.494   7.306  18.810  0.00  0.00    +0.000 A 
ATOM      8  C   UNL     1       1.744   8.389  19.330  0.00  0.00    +0.000 A 
ATOM      9  C   UNL     1       1.693   9.736  18.692  0.00  0.00    +0.000 A 
ATOM     10  O   UNL     1       2.302   9.895  17.635  0.00  0.00    +0.000 OA
ATOM     11  N   UNL     1       0.931  10.749  19.329  0.00  0.00    +0.000 N 
ENDROOT
BRANCH   1  18
ATOM     12  C   UNL     1      -2.410  11.915  19.067  0.00  0.00    +0.000 C 
ATOM     13  C   UNL     1      -1.958  12.042  20.495  0.00  0.00    +0.000 A 
ATOM     14  C   UNL     1      -2.788  12.826  21.336  0.00  0.00    +0.000 A 
ATOM     15  C   UNL     1      -2.603  12.873  22.718  0.00  0.00    +0.000 A 
ATOM     16  C   UNL     1      -1.568  12.152  23.290  0.00  0.00    +0.000 A 
ATOM     17  C   UNL     1      -0.692  11.433  22.474  0.00  0.00    +0.000 A 
ATOM     18  C   UNL     1      -0.852  11.378  21.074  0.00  0.00    +0.000 A 
ENDBRANCH   1  18
BRANCH   6  19
ATOM     19  O   UNL     1       3.208   5.020  18.877  0.00  0.00    +0.000 OA
BRANCH  19  20
ATOM     20  C   UNL     1       4.387   5.281  18.199  0.00  0.00    +0.000 A 
ATOM     21  C   UNL     1       4.352   5.306  16.798  0.00  0.00    +0.000 A 
ATOM     22  C   UNL     1       5.522   5.575  16.070  0.00  0.00    +0.000 A 
ATOM     23  C   UNL     1       6.710   5.823  16.746  0.00  0.00    +0.000 A 
ATOM     24  F   UNL     1       7.836   6.053  16.052  0.00  0.00    +0.000 F 
ATOM     25  C   UNL     1       6.749   5.843  18.135  0.00  0.00    +0.000 A 
ATOM     26  C   UNL     1       5.582   5.601  18.858  0.00  0.00    +0.000 A 
ENDBRANCH  19  20
ENDBRANCH   6  19
BRANCH  11  27
ATOM     27  C   UNL     1       0.903  12.087  18.668  0.00  0.00    +0.000 C 
BRANCH  27  28
ATOM     28  C   UNL     1       2.006  13.119  19.063  0.00  0.00    +0.000 C 
ATOM     29  C   UNL     1       2.231  13.240  20.577  0.00  0.00    +0.000 C 
ATOM     30  C   UNL     1       1.297  14.218  21.293  0.00  0.00    +0.000 C 
ATOM     31  C   UNL     1       0.986  15.516  20.535  0.00  0.00    +0.000 C 
ATOM     32  N   UNL     1       0.668  15.293  19.122  0.00  0.00    +0.000 NA
ATOM     33  C   UNL     1       1.713  14.512  18.439  0.00  0.00    +0.000 C 
BRANCH  32  34
ATOM     34  C   UNL     1       0.309  16.528  18.364  0.00  0.00    +0.000 C 
ATOM     35  C   UNL     1      -0.928  17.189  18.982  0.00  0.00    +0.000 C 
ATOM     36  C   UNL     1       1.382  17.611  18.155  0.00  0.00    +0.000 C 
ENDBRANCH  32  34
ENDBRANCH  27  28
ENDBRANCH  11  27
TORSDOF 6
ENDMDL
MODEL 9
REMARK VINA RESULT:      -7.8      1.928      2.630
REMARK  Name = 
REMARK  9 active torsions:
REMARK  status: ('A' for Active; 'I' for Inactive)
REMARK    1  A    between atoms: C_1  and  C_2
REMARK    2  A    between atoms: C_7  and  C_8
REMARK    3  A    between atoms: C_13  and  O_14
REMARK    4  A    between atoms: O_14  and  C_15
REMARK    5  A    between atoms: N_26  and  C_27
REMARK    6  A    between atoms: C_27  and  C_28
REMARK    7  A    between atoms: N_32  and  C_33
REMARK    8  A    between atoms: C_33  and  C_34
REMARK    9  A    between atoms: C_33  and  C_35
REMARK                            x       y       z     vdW  Elec       q    Type
REMARK                         _______ _______ _______ _____ _____    ______ ____
ROOT
ATOM      1  C   UNL     1      -1.041  12.139  21.253  0.00  0.00    +0.000 A 
ATOM      2  N   UNL     1      -0.955  10.931  21.731  0.00  0.00    +0.000 NA
ATOM      3  C   UNL     1      -0.009  10.029  21.248  0.00  0.00    +0.000 A 
ATOM      4  C   UNL     1       0.058   8.759  21.826  0.00  0.00    +0.000 A 
ATOM      5  C   UNL     1       0.897   7.767  21.307  0.00  0.00    +0.000 A 
ATOM      6  C   UNL     1       1.732   8.042  20.224  0.00  0.00    +0.000 A 
ATOM      7  C   UNL     1       1.697   9.338  19.659  0.00  0.00    +0.000 A 
ATOM      8  C   UNL     1       0.828  10.326  20.186  0.00  0.00    +0.000 A 
ATOM      9  C   UNL     1       0.736  11.712  19.646  0.00  0.00    +0.000 A 
ATOM     10  O   UNL     1       1.421  11.993  18.664  0.00  0.00    +0.000 OA
ATOM     11  N   UNL     1      -0.150  12.620  20.282  0.00  0.00    +0.000 N 
ENDROOT
BRANCH   1  18
ATOM     12  C   UNL     1      -3.983  12.782  20.099  0.00  0.00    +0.000 C 
ATOM     13  C   UNL     1      -3.412  13.276  21.399  0.00  0.00    +0.000 A 
ATOM     14  C   UNL     1      -4.303  14.009  22.224  0.00  0.00    +0.000 A 
ATOM     15  C   UNL     1      -3.976  14.358  23.534  0.00  0.00    +0.000 A 
ATOM     16  C   UNL     1      -2.739  14.002  24.044  0.00  0.00    +0.000 A 
ATOM     17  C   UNL     1      -1.816  13.346  23.226  0.00  0.00    +0.000 A 
ATOM     18  C   UNL     1      -2.119  12.991  21.896  0.00  0.00    +0.000 A 
ENDBRANCH   1  18
BRANCH   6  19
ATOM     19  O   UNL     1       2.566   7.105  19.626  0.00  0.00    +0.000 OA
BRANCH  19  20
ATOM     20  C   UNL     1       2.104   5.825  19.365  0.00  0.00    +0.000 A 
ATOM     21  C   UNL     1       1.650   5.054  20.444  0.00  0.00    +0.000 A 
ATOM     22  C   UNL     1       1.166   3.755  20.225  0.00  0.00    +0.000 A 
ATOM     23  C   UNL     1       1.134   3.242  18.934  0.00  0.00    +0.000 A 
ATOM     24  F   UNL     1       0.698   1.990  18.725  0.00  0.00    +0.000 F 
ATOM     25  C   UNL     1       1.542   4.012  17.851  0.00  0.00    +0.000 A 
ATOM     26  C   UNL     1       1.999   5.311  18.066  0.00  0.00    +0.000 A 
ENDBRANCH  19  20
ENDBRANCH   6  19
BRANCH  11  27
ATOM     27  C   UNL     1      -0.217  14.001  19.720  0.00  0.00    +0.000 C 
BRANCH  27  28
ATOM     28  C   UNL     1       0.461  15.150  20.529  0.00  0.00    +0.000 C 
ATOM     29  C   UNL     1      -0.506  15.936  21.426  0.00  0.00    +0.000 C 
ATOM     30  C   UNL     1      -1.241  17.085  20.733  0.00  0.00    +0.000 C 
ATOM     31  C   UNL     1      -0.408  17.901  19.736  0.00  0.00    +0.000 C 
ATOM     32  N   UNL     1       0.396  17.066  18.841  0.00  0.00    +0.000 NA
ATOM     33  C   UNL     1       1.236  16.113  19.585  0.00  0.00    +0.000 C 
BRANCH  32  34
ATOM     34  C   UNL     1       1.180  17.823  17.822  0.00  0.00    +0.000 C 
ATOM     35  C   UNL     1       2.409  17.016  17.389  0.00  0.00    +0.000 C 
ATOM     36  C   UNL     1       0.464  18.328  16.557  0.00  0.00    +0.000 C 
ENDBRANCH  32  34
ENDBRANCH  27  28
ENDBRANCH  11  27
TORSDOF 6
ENDMDL
