MODEL 1
REMARK VINA RESULT:      -7.6      0.000      0.000
REMARK  Name = 
REMARK  4 active torsions:
REMARK  status: ('A' for Active; 'I' for Inactive)
REMARK    1  A    between atoms: C_2  and  C_3
REMARK    2  A    between atoms: C_3  and  C_4
REMARK    3  A    between atoms: C_4  and  C_5
REMARK    4  A    between atoms: C_22  and  C_23
REMARK                            x       y       z     vdW  Elec       q    Type
REMARK                         _______ _______ _______ _____ _____    ______ ____
ROOT
ATOM      1  O   UNL     1       1.745  10.481  18.179  0.00  0.00    +0.000 OA
ATOM      2  C   UNL     1       1.249   9.832  19.092  0.00  0.00    +0.000 C 
ATOM      3  N   UNL     1       0.163  10.282  19.850  0.00  0.00    +0.000 N 
ATOM      4  C   UNL     1      -0.366   9.521  21.005  0.00  0.00    +0.000 C 
ATOM      5  C   UNL     1      -0.676  10.400  22.221  0.00  0.00    +0.000 C 
ATOM      6  C   UNL     1      -1.464  11.573  21.792  0.00  0.00    +0.000 A 
ATOM      7  C   UNL     1      -1.402  12.038  20.494  0.00  0.00    +0.000 A 
ATOM      8  N   UNL     1      -2.248  13.113  20.401  0.00  0.00    +0.000 N 
ATOM      9  C   UNL     1      -2.858  13.338  21.618  0.00  0.00    +0.000 A 
ATOM     10  C   UNL     1      -3.798  14.305  21.991  0.00  0.00    +0.000 A 
ATOM     11  C   UNL     1      -4.246  14.299  23.317  0.00  0.00    +0.000 A 
ATOM     12  C   UNL     1      -3.781  13.354  24.229  0.00  0.00    +0.000 A 
ATOM     13  C   UNL     1      -2.850  12.386  23.839  0.00  0.00    +0.000 A 
ATOM     14  C   UNL     1      -2.377  12.380  22.513  0.00  0.00    +0.000 A 
ATOM     15  C   UNL     1      -0.632  11.434  19.341  0.00  0.00    +0.000 C 
ATOM     16  H   UNL     1      -2.450  13.630  19.555  0.00  0.00    +0.000 HD
ENDROOT
BRANCH  15  17
ATOM     17  C   UNL     1      -1.559  10.999  18.196  0.00  0.00    +0.000 A 
ATOM     18  C   UNL     1      -2.336   9.833  18.321  0.00  0.00    +0.000 A 
ATOM     19  C   UNL     1      -3.225   9.453  17.312  0.00  0.00    +0.000 A 
ATOM     20  C   UNL     1      -3.337  10.234  16.166  0.00  0.00    +0.000 A 
ATOM     21  F   UNL     1      -4.205   9.883  15.207  0.00  0.00    +0.000 F 
ATOM     22  C   UNL     1      -2.571  11.378  16.006  0.00  0.00    +0.000 A 
ATOM     23  C   UNL     1      -1.690  11.762  17.019  0.00  0.00    +0.000 A 
ENDBRANCH  15  17
BRANCH   2  24
ATOM     24  C   UNL     1       1.760   8.441  19.473  0.00  0.00    +0.000 C 
BRANCH  24  25
ATOM     25  C   UNL     1       2.368   7.635  18.340  0.00  0.00    +0.000 C 
BRANCH  25  26
ATOM     26  C   UNL     1       2.610   6.176  18.756  0.00  0.00    +0.000 C 
ATOM     27  C   UNL     1       2.077   5.883  20.155  0.00  0.00    +0.000 C 
ATOM     28  C   UNL     1       2.023   4.363  20.220  0.00  0.00    +0.000 C 
ATOM     29  C   UNL     1       1.780   3.890  18.788  0.00  0.00    +0.000 C 
ATOM     30  C   UNL     1       1.893   5.128  17.899  0.00  0.00    +0.000 C 
ENDBRANCH  25  26
ENDBRANCH  24  25
ENDBRANCH   2  24
TORSDOF 4
ENDMDL
MODEL 2
REMARK VINA RESULT:      -7.4      3.057      7.949
REMARK  Name = 
REMARK  4 active torsions:
REMARK  status: ('A' for Active; 'I' for Inactive)
REMARK    1  A    between atoms: C_2  and  C_3
REMARK    2  A    between atoms: C_3  and  C_4
REMARK    3  A    between atoms: C_4  and  C_5
REMARK    4  A    between atoms: C_22  and  C_23
REMARK                            x       y       z     vdW  Elec       q    Type
REMARK                         _______ _______ _______ _____ _____    ______ ____
ROOT
ATOM      1  O   UNL     1      -2.569  12.793  20.770  0.00  0.00    +0.000 OA
ATOM      2  C   UNL     1      -1.933  12.159  21.603  0.00  0.00    +0.000 C 
ATOM      3  N   UNL     1      -0.859  11.325  21.275  0.00  0.00    +0.000 N 
ATOM      4  C   UNL     1      -0.159  10.500  22.286  0.00  0.00    +0.000 C 
ATOM      5  C   UNL     1       0.128   9.072  21.813  0.00  0.00    +0.000 C 
ATOM      6  C   UNL     1       0.733   9.112  20.466  0.00  0.00    +0.000 A 
ATOM      7  C   UNL     1       0.522  10.182  19.621  0.00  0.00    +0.000 A 
ATOM      8  N   UNL     1       1.221   9.939  18.467  0.00  0.00    +0.000 N 
ATOM      9  C   UNL     1       1.883   8.733  18.563  0.00  0.00    +0.000 A 
ATOM     10  C   UNL     1       2.723   8.089  17.648  0.00  0.00    +0.000 A 
ATOM     11  C   UNL     1       3.262   6.852  18.019  0.00  0.00    +0.000 A 
ATOM     12  C   UNL     1       2.983   6.289  19.263  0.00  0.00    +0.000 A 
ATOM     13  C   UNL     1       2.153   6.951  20.173  0.00  0.00    +0.000 A 
ATOM     14  C   UNL     1       1.590   8.191  19.816  0.00  0.00    +0.000 A 
ATOM     15  C   UNL     1      -0.250  11.448  19.922  0.00  0.00    +0.000 C 
ATOM     16  H   UNL     1       1.296  10.573  17.681  0.00  0.00    +0.000 HD
ENDROOT
BRANCH  15  17
ATOM     17  C   UNL     1       0.638  12.698  19.830  0.00  0.00    +0.000 A 
ATOM     18  C   UNL     1       1.822  12.779  20.586  0.00  0.00    +0.000 A 
ATOM     19  C   UNL     1       2.669  13.884  20.473  0.00  0.00    +0.000 A 
ATOM     20  C   UNL     1       2.335  14.921  19.607  0.00  0.00    +0.000 A 
ATOM     21  F   UNL     1       3.157  15.971  19.482  0.00  0.00    +0.000 F 
ATOM     22  C   UNL     1       1.166  14.877  18.863  0.00  0.00    +0.000 A 
ATOM     23  C   UNL     1       0.325  13.768  18.970  0.00  0.00    +0.000 A 
ENDBRANCH  15  17
BRANCH   2  24
ATOM     24  C   UNL     1      -2.242  12.242  23.099  0.00  0.00    +0.000 C 
BRANCH  24  25
ATOM     25  C   UNL     1      -2.522  13.636  23.631  0.00  0.00    +0.000 C 
BRANCH  25  26
ATOM     26  C   UNL     1      -3.984  13.781  24.083  0.00  0.00    +0.000 C 
ATOM     27  C   UNL     1      -4.869  14.357  22.983  0.00  0.00    +0.000 C 
ATOM     28  C   UNL     1      -6.286  14.042  23.444  0.00  0.00    +0.000 C 
ATOM     29  C   UNL     1      -6.183  12.759  24.267  0.00  0.00    +0.000 C 
ATOM     30  C   UNL     1      -4.692  12.467  24.428  0.00  0.00    +0.000 C 
ENDBRANCH  25  26
ENDBRANCH  24  25
ENDBRANCH   2  24
TORSDOF 4
ENDMDL
MODEL 3
REMARK VINA RESULT:      -7.4      3.008      4.367
REMARK  Name = 
REMARK  4 active torsions:
REMARK  status: ('A' for Active; 'I' for Inactive)
REMARK    1  A    between atoms: C_2  and  C_3
REMARK    2  A    between atoms: C_3  and  C_4
REMARK    3  A    between atoms: C_4  and  C_5
REMARK    4  A    between atoms: C_22  and  C_23
REMARK                            x       y       z     vdW  Elec       q    Type
REMARK                         _______ _______ _______ _____ _____    ______ ____
ROOT
ATOM      1  O   UNL     1       0.890   9.805  20.126  0.00  0.00    +0.000 OA
ATOM      2  C   UNL     1       0.424   9.884  18.995  0.00  0.00    +0.000 C 
ATOM      3  N   UNL     1      -0.762  10.564  18.700  0.00  0.00    +0.000 N 
ATOM      4  C   UNL     1      -1.354  10.573  17.343  0.00  0.00    +0.000 C 
ATOM      5  C   UNL     1      -2.870  10.357  17.339  0.00  0.00    +0.000 C 
ATOM      6  C   UNL     1      -3.497  11.252  18.333  0.00  0.00    +0.000 A 
ATOM      7  C   UNL     1      -2.783  11.727  19.415  0.00  0.00    +0.000 A 
ATOM      8  N   UNL     1      -3.621  12.537  20.137  0.00  0.00    +0.000 N 
ATOM      9  C   UNL     1      -4.859  12.594  19.530  0.00  0.00    +0.000 A 
ATOM     10  C   UNL     1      -6.011  13.298  19.895  0.00  0.00    +0.000 A 
ATOM     11  C   UNL     1      -7.141  13.163  19.080  0.00  0.00    +0.000 A 
ATOM     12  C   UNL     1      -7.113  12.365  17.938  0.00  0.00    +0.000 A 
ATOM     13  C   UNL     1      -5.951  11.677  17.578  0.00  0.00    +0.000 A 
ATOM     14  C   UNL     1      -4.806  11.789  18.390  0.00  0.00    +0.000 A 
ATOM     15  C   UNL     1      -1.320  11.497  19.718  0.00  0.00    +0.000 C 
ATOM     16  H   UNL     1      -3.362  13.067  20.959  0.00  0.00    +0.000 HD
ENDROOT
BRANCH  15  17
ATOM     17  C   UNL     1      -0.526  12.812  19.751  0.00  0.00    +0.000 A 
ATOM     18  C   UNL     1       0.254  13.137  20.876  0.00  0.00    +0.000 A 
ATOM     19  C   UNL     1       1.025  14.302  20.900  0.00  0.00    +0.000 A 
ATOM     20  C   UNL     1       1.017  15.155  19.800  0.00  0.00    +0.000 A 
ATOM     21  F   UNL     1       1.774  16.260  19.813  0.00  0.00    +0.000 F 
ATOM     22  C   UNL     1       0.245  14.869  18.685  0.00  0.00    +0.000 A 
ATOM     23  C   UNL     1      -0.518  13.701  18.658  0.00  0.00    +0.000 A 
ENDBRANCH  15  17
BRANCH   2  24
ATOM     24  C   UNL     1       1.120   9.261  17.783  0.00  0.00    +0.000 C 
BRANCH  24  25
ATOM     25  C   UNL     1       2.509   8.705  18.042  0.00  0.00    +0.000 C 
BRANCH  25  26
ATOM     26  C   UNL     1       2.483   7.175  18.185  0.00  0.00    +0.000 C 
ATOM     27  C   UNL     1       3.753   6.527  17.644  0.00  0.00    +0.000 C 
ATOM     28  C   UNL     1       3.732   5.123  18.231  0.00  0.00    +0.000 C 
ATOM     29  C   UNL     1       2.992   5.237  19.563  0.00  0.00    +0.000 C 
ATOM     30  C   UNL     1       2.431   6.657  19.626  0.00  0.00    +0.000 C 
ENDBRANCH  25  26
ENDBRANCH  24  25
ENDBRANCH   2  24
TORSDOF 4
ENDMDL
MODEL 4
REMARK VINA RESULT:      -7.4      3.209      7.858
REMARK  Name = 
REMARK  4 active torsions:
REMARK  status: ('A' for Active; 'I' for Inactive)
REMARK    1  A    between atoms: C_2  and  C_3
REMARK    2  A    between atoms: C_3  and  C_4
REMARK    3  A    between atoms: C_4  and  C_5
REMARK    4  A    between atoms: C_22  and  C_23
REMARK                            x       y       z     vdW  Elec       q    Type
REMARK                         _______ _______ _______ _____ _____    ______ ____
ROOT
ATOM      1  O   UNL     1      -3.024  12.864  20.922  0.00  0.00    +0.000 OA
ATOM      2  C   UNL     1      -2.339  12.273  21.748  0.00  0.00    +0.000 C 
ATOM      3  N   UNL     1      -1.230  11.491  21.406  0.00  0.00    +0.000 N 
ATOM      4  C   UNL     1      -0.467  10.715  22.410  0.00  0.00    +0.000 C 
ATOM      5  C   UNL     1      -0.119   9.298  21.946  0.00  0.00    +0.000 C 
ATOM      6  C   UNL     1       0.455   9.352  20.587  0.00  0.00    +0.000 A 
ATOM      7  C   UNL     1       0.171  10.400  19.734  0.00  0.00    +0.000 A 
ATOM      8  N   UNL     1       0.857  10.178  18.568  0.00  0.00    +0.000 N 
ATOM      9  C   UNL     1       1.582   9.008  18.663  0.00  0.00    +0.000 A 
ATOM     10  C   UNL     1       2.433   8.396  17.736  0.00  0.00    +0.000 A 
ATOM     11  C   UNL     1       3.042   7.193  18.110  0.00  0.00    +0.000 A 
ATOM     12  C   UNL     1       2.819   6.632  19.365  0.00  0.00    +0.000 A 
ATOM     13  C   UNL     1       1.976   7.262  20.286  0.00  0.00    +0.000 A 
ATOM     14  C   UNL     1       1.343   8.467  19.928  0.00  0.00    +0.000 A 
ATOM     15  C   UNL     1      -0.657  11.628  20.038  0.00  0.00    +0.000 C 
ATOM     16  H   UNL     1       0.883  10.805  17.774  0.00  0.00    +0.000 HD
ENDROOT
BRANCH  15  17
ATOM     17  C   UNL     1       0.164  12.920  19.913  0.00  0.00    +0.000 A 
ATOM     18  C   UNL     1      -0.273  13.954  19.065  0.00  0.00    +0.000 A 
ATOM     19  C   UNL     1       0.432  15.157  18.982  0.00  0.00    +0.000 A 
ATOM     20  C   UNL     1       1.585  15.333  19.741  0.00  0.00    +0.000 A 
ATOM     21  F   UNL     1       2.250  16.494  19.679  0.00  0.00    +0.000 F 
ATOM     22  C   UNL     1       2.049  14.326  20.572  0.00  0.00    +0.000 A 
ATOM     23  C   UNL     1       1.339  13.127  20.662  0.00  0.00    +0.000 A 
ENDBRANCH  15  17
BRANCH   2  24
ATOM     24  C   UNL     1      -2.619  12.359  23.250  0.00  0.00    +0.000 C 
BRANCH  24  25
ATOM     25  C   UNL     1      -2.760  13.764  23.808  0.00  0.00    +0.000 C 
BRANCH  25  26
ATOM     26  C   UNL     1      -1.404  14.483  23.868  0.00  0.00    +0.000 C 
ATOM     27  C   UNL     1      -1.151  15.335  22.629  0.00  0.00    +0.000 C 
ATOM     28  C   UNL     1      -0.014  16.260  23.040  0.00  0.00    +0.000 C 
ATOM     29  C   UNL     1      -0.161  16.461  24.547  0.00  0.00    +0.000 C 
ATOM     30  C   UNL     1      -1.255  15.498  25.007  0.00  0.00    +0.000 C 
ENDBRANCH  25  26
ENDBRANCH  24  25
ENDBRANCH   2  24
TORSDOF 4
ENDMDL
MODEL 5
REMARK VINA RESULT:      -7.4      0.577      1.272
REMARK  Name = 
REMARK  4 active torsions:
REMARK  status: ('A' for Active; 'I' for Inactive)
REMARK    1  A    between atoms: C_2  and  C_3
REMARK    2  A    between atoms: C_3  and  C_4
REMARK    3  A    between atoms: C_4  and  C_5
REMARK    4  A    between atoms: C_22  and  C_23
REMARK                            x       y       z     vdW  Elec       q    Type
REMARK                         _______ _______ _______ _____ _____    ______ ____
ROOT
ATOM      1  O   UNL     1       1.629  10.749  18.002  0.00  0.00    +0.000 OA
ATOM      2  C   UNL     1       1.203  10.048  18.912  0.00  0.00    +0.000 C 
ATOM      3  N   UNL     1       0.117  10.412  19.715  0.00  0.00    +0.000 N 
ATOM      4  C   UNL     1      -0.328   9.592  20.865  0.00  0.00    +0.000 C 
ATOM      5  C   UNL     1      -0.650  10.420  22.113  0.00  0.00    +0.000 C 
ATOM      6  C   UNL     1      -1.520  11.553  21.741  0.00  0.00    +0.000 A 
ATOM      7  C   UNL     1      -1.529  12.054  20.454  0.00  0.00    +0.000 A 
ATOM      8  N   UNL     1      -2.440  13.077  20.417  0.00  0.00    +0.000 N 
ATOM      9  C   UNL     1      -3.022  13.235  21.658  0.00  0.00    +0.000 A 
ATOM     10  C   UNL     1      -4.006  14.133  22.086  0.00  0.00    +0.000 A 
ATOM     11  C   UNL     1      -4.408  14.066  23.424  0.00  0.00    +0.000 A 
ATOM     12  C   UNL     1      -3.858  13.129  24.296  0.00  0.00    +0.000 A 
ATOM     13  C   UNL     1      -2.885  12.229  23.851  0.00  0.00    +0.000 A 
ATOM     14  C   UNL     1      -2.456  12.285  22.511  0.00  0.00    +0.000 A 
ATOM     15  C   UNL     1      -0.762  11.526  19.262  0.00  0.00    +0.000 C 
ATOM     16  H   UNL     1      -2.700  13.602  19.592  0.00  0.00    +0.000 HD
ENDROOT
BRANCH  15  17
ATOM     17  C   UNL     1      -1.698  11.064  18.135  0.00  0.00    +0.000 A 
ATOM     18  C   UNL     1      -1.813  11.826  16.958  0.00  0.00    +0.000 A 
ATOM     19  C   UNL     1      -2.617  11.392  15.901  0.00  0.00    +0.000 A 
ATOM     20  C   UNL     1      -3.318  10.196  16.016  0.00  0.00    +0.000 A 
ATOM     21  F   UNL     1      -4.071   9.767  14.994  0.00  0.00    +0.000 F 
ATOM     22  C   UNL     1      -3.237   9.433  17.170  0.00  0.00    +0.000 A 
ATOM     23  C   UNL     1      -2.427   9.862  18.223  0.00  0.00    +0.000 A 
ENDBRANCH  15  17
BRANCH   2  24
ATOM     24  C   UNL     1       1.809   8.682  19.240  0.00  0.00    +0.000 C 
BRANCH  24  25
ATOM     25  C   UNL     1       2.413   7.936  18.064  0.00  0.00    +0.000 C 
BRANCH  25  26
ATOM     26  C   UNL     1       2.579   6.440  18.373  0.00  0.00    +0.000 C 
ATOM     27  C   UNL     1       4.020   5.973  18.188  0.00  0.00    +0.000 C 
ATOM     28  C   UNL     1       4.073   4.637  18.916  0.00  0.00    +0.000 C 
ATOM     29  C   UNL     1       3.044   4.731  20.040  0.00  0.00    +0.000 C 
ATOM     30  C   UNL     1       2.282   6.038  19.821  0.00  0.00    +0.000 C 
ENDBRANCH  25  26
ENDBRANCH  24  25
ENDBRANCH   2  24
TORSDOF 4
ENDMDL
MODEL 6
REMARK VINA RESULT:      -7.3      2.852      4.365
REMARK  Name = 
REMARK  4 active torsions:
REMARK  status: ('A' for Active; 'I' for Inactive)
REMARK    1  A    between atoms: C_2  and  C_3
REMARK    2  A    between atoms: C_3  and  C_4
REMARK    3  A    between atoms: C_4  and  C_5
REMARK    4  A    between atoms: C_22  and  C_23
REMARK                            x       y       z     vdW  Elec       q    Type
REMARK                         _______ _______ _______ _____ _____    ______ ____
ROOT
ATOM      1  O   UNL     1       1.402   9.333  20.436  0.00  0.00    +0.000 OA
ATOM      2  C   UNL     1       1.015   9.395  19.275  0.00  0.00    +0.000 C 
ATOM      3  N   UNL     1      -0.117  10.118  18.882  0.00  0.00    +0.000 N 
ATOM      4  C   UNL     1      -0.619  10.110  17.489  0.00  0.00    +0.000 C 
ATOM      5  C   UNL     1      -2.140   9.962  17.392  0.00  0.00    +0.000 C 
ATOM      6  C   UNL     1      -2.788  10.915  18.316  0.00  0.00    +0.000 A 
ATOM      7  C   UNL     1      -2.124  11.393  19.428  0.00  0.00    +0.000 A 
ATOM      8  N   UNL     1      -2.968  12.262  20.069  0.00  0.00    +0.000 N 
ATOM      9  C   UNL     1      -4.160  12.354  19.380  0.00  0.00    +0.000 A 
ATOM     10  C   UNL     1      -5.300  13.121  19.648  0.00  0.00    +0.000 A 
ATOM     11  C   UNL     1      -6.379  13.010  18.764  0.00  0.00    +0.000 A 
ATOM     12  C   UNL     1      -6.315  12.176  17.650  0.00  0.00    +0.000 A 
ATOM     13  C   UNL     1      -5.165  11.425  17.389  0.00  0.00    +0.000 A 
ATOM     14  C   UNL     1      -4.071  11.511  18.270  0.00  0.00    +0.000 A 
ATOM     15  C   UNL     1      -0.695  11.108  19.834  0.00  0.00    +0.000 C 
ATOM     16  H   UNL     1      -2.738  12.806  20.890  0.00  0.00    +0.000 HD
ENDROOT
BRANCH  15  17
ATOM     17  C   UNL     1       0.155  12.386  19.881  0.00  0.00    +0.000 A 
ATOM     18  C   UNL     1       0.307  13.175  18.726  0.00  0.00    +0.000 A 
ATOM     19  C   UNL     1       1.031  14.369  18.765  0.00  0.00    +0.000 A 
ATOM     20  C   UNL     1       1.616  14.780  19.959  0.00  0.00    +0.000 A 
ATOM     21  F   UNL     1       2.292  15.935  20.004  0.00  0.00    +0.000 F 
ATOM     22  C   UNL     1       1.499  14.014  21.109  0.00  0.00    +0.000 A 
ATOM     23  C   UNL     1       0.767  12.825  21.071  0.00  0.00    +0.000 A 
ENDBRANCH  15  17
BRANCH   2  24
ATOM     24  C   UNL     1       1.758   8.704  18.130  0.00  0.00    +0.000 C 
BRANCH  24  25
ATOM     25  C   UNL     1       2.645   7.541  18.536  0.00  0.00    +0.000 C 
BRANCH  25  26
ATOM     26  C   UNL     1       1.817   6.284  18.845  0.00  0.00    +0.000 C 
ATOM     27  C   UNL     1       2.257   5.087  18.008  0.00  0.00    +0.000 C 
ATOM     28  C   UNL     1       1.644   3.890  18.721  0.00  0.00    +0.000 C 
ATOM     29  C   UNL     1       1.564   4.278  20.197  0.00  0.00    +0.000 C 
ATOM     30  C   UNL     1       1.947   5.755  20.277  0.00  0.00    +0.000 C 
ENDBRANCH  25  26
ENDBRANCH  24  25
ENDBRANCH   2  24
TORSDOF 4
ENDMDL
MODEL 7
REMARK VINA RESULT:      -7.3      3.584      4.941
REMARK  Name = 
REMARK  4 active torsions:
REMARK  status: ('A' for Active; 'I' for Inactive)
REMARK    1  A    between atoms: C_2  and  C_3
REMARK    2  A    between atoms: C_3  and  C_4
REMARK    3  A    between atoms: C_4  and  C_5
REMARK    4  A    between atoms: C_22  and  C_23
REMARK                            x       y       z     vdW  Elec       q    Type
REMARK                         _______ _______ _______ _____ _____    ______ ____
ROOT
ATOM      1  O   UNL     1      -0.936   9.952  18.483  0.00  0.00    +0.000 OA
ATOM      2  C   UNL     1       0.151  10.384  18.850  0.00  0.00    +0.000 C 
ATOM      3  N   UNL     1       0.394  11.741  19.091  0.00  0.00    +0.000 N 
ATOM      4  C   UNL     1       1.736  12.254  19.449  0.00  0.00    +0.000 C 
ATOM      5  C   UNL     1       2.115  13.537  18.704  0.00  0.00    +0.000 C 
ATOM      6  C   UNL     1       1.001  14.502  18.788  0.00  0.00    +0.000 A 
ATOM      7  C   UNL     1      -0.297  14.078  18.992  0.00  0.00    +0.000 A 
ATOM      8  N   UNL     1      -1.091  15.194  19.041  0.00  0.00    +0.000 N 
ATOM      9  C   UNL     1      -0.322  16.327  18.880  0.00  0.00    +0.000 A 
ATOM     10  C   UNL     1      -0.692  17.677  18.876  0.00  0.00    +0.000 A 
ATOM     11  C   UNL     1       0.317  18.627  18.684  0.00  0.00    +0.000 A 
ATOM     12  C   UNL     1       1.646  18.242  18.517  0.00  0.00    +0.000 A 
ATOM     13  C   UNL     1       2.003  16.891  18.537  0.00  0.00    +0.000 A 
ATOM     14  C   UNL     1       1.003  15.916  18.716  0.00  0.00    +0.000 A 
ATOM     15  C   UNL     1      -0.770  12.660  19.223  0.00  0.00    +0.000 C 
ATOM     16  H   UNL     1      -2.085  15.199  19.230  0.00  0.00    +0.000 HD
ENDROOT
BRANCH  15  17
ATOM     17  C   UNL     1      -1.447  12.496  20.592  0.00  0.00    +0.000 A 
ATOM     18  C   UNL     1      -2.838  12.665  20.716  0.00  0.00    +0.000 A 
ATOM     19  C   UNL     1      -3.477  12.466  21.943  0.00  0.00    +0.000 A 
ATOM     20  C   UNL     1      -2.728  12.102  23.057  0.00  0.00    +0.000 A 
ATOM     21  F   UNL     1      -3.342  11.889  24.228  0.00  0.00    +0.000 F 
ATOM     22  C   UNL     1      -1.353  11.946  22.970  0.00  0.00    +0.000 A 
ATOM     23  C   UNL     1      -0.716  12.136  21.742  0.00  0.00    +0.000 A 
ENDBRANCH  15  17
BRANCH   2  24
ATOM     24  C   UNL     1       1.347   9.466  19.109  0.00  0.00    +0.000 C 
BRANCH  24  25
ATOM     25  C   UNL     1       1.973   8.845  17.873  0.00  0.00    +0.000 C 
BRANCH  25  26
ATOM     26  C   UNL     1       2.334   7.370  18.107  0.00  0.00    +0.000 C 
ATOM     27  C   UNL     1       3.776   7.064  17.715  0.00  0.00    +0.000 C 
ATOM     28  C   UNL     1       4.067   5.728  18.385  0.00  0.00    +0.000 C 
ATOM     29  C   UNL     1       3.197   5.691  19.640  0.00  0.00    +0.000 C 
ATOM     30  C   UNL     1       2.281   6.912  19.568  0.00  0.00    +0.000 C 
ENDBRANCH  25  26
ENDBRANCH  24  25
ENDBRANCH   2  24
TORSDOF 4
ENDMDL
MODEL 8
REMARK VINA RESULT:      -7.3      3.750      6.691
REMARK  Name = 
REMARK  4 active torsions:
REMARK  status: ('A' for Active; 'I' for Inactive)
REMARK    1  A    between atoms: C_2  and  C_3
REMARK    2  A    between atoms: C_3  and  C_4
REMARK    3  A    between atoms: C_4  and  C_5
REMARK    4  A    between atoms: C_22  and  C_23
REMARK                            x       y       z     vdW  Elec       q    Type
REMARK                         _______ _______ _______ _____ _____    ______ ____
ROOT
ATOM      1  O   UNL     1       3.023  12.619  17.891  0.00  0.00    +0.000 OA
ATOM      2  C   UNL     1       2.388  12.967  18.880  0.00  0.00    +0.000 C 
ATOM      3  N   UNL     1       1.074  12.557  19.130  0.00  0.00    +0.000 N 
ATOM      4  C   UNL     1       0.295  13.058  20.285  0.00  0.00    +0.000 C 
ATOM      5  C   UNL     1      -1.147  13.430  19.930  0.00  0.00    +0.000 C 
ATOM      6  C   UNL     1      -1.761  12.335  19.151  0.00  0.00    +0.000 A 
ATOM      7  C   UNL     1      -0.984  11.456  18.423  0.00  0.00    +0.000 A 
ATOM      8  N   UNL     1      -1.829  10.553  17.831  0.00  0.00    +0.000 N 
ATOM      9  C   UNL     1      -3.135  10.836  18.175  0.00  0.00    +0.000 A 
ATOM     10  C   UNL     1      -4.322  10.183  17.824  0.00  0.00    +0.000 A 
ATOM     11  C   UNL     1      -5.521  10.703  18.325  0.00  0.00    +0.000 A 
ATOM     12  C   UNL     1      -5.530  11.822  19.155  0.00  0.00    +0.000 A 
ATOM     13  C   UNL     1      -4.335  12.456  19.508  0.00  0.00    +0.000 A 
ATOM     14  C   UNL     1      -3.118  11.958  19.006  0.00  0.00    +0.000 A 
ATOM     15  C   UNL     1       0.526  11.410  18.354  0.00  0.00    +0.000 C 
ATOM     16  H   UNL     1      -1.543   9.758  17.275  0.00  0.00    +0.000 HD
ENDROOT
BRANCH  15  17
ATOM     17  C   UNL     1       1.085  10.077  18.875  0.00  0.00    +0.000 A 
ATOM     18  C   UNL     1       0.833   9.676  20.200  0.00  0.00    +0.000 A 
ATOM     19  C   UNL     1       1.287   8.442  20.672  0.00  0.00    +0.000 A 
ATOM     20  C   UNL     1       2.003   7.602  19.825  0.00  0.00    +0.000 A 
ATOM     21  F   UNL     1       2.420   6.409  20.270  0.00  0.00    +0.000 F 
ATOM     22  C   UNL     1       2.282   7.978  18.520  0.00  0.00    +0.000 A 
ATOM     23  C   UNL     1       1.820   9.207  18.045  0.00  0.00    +0.000 A 
ENDBRANCH  15  17
BRANCH   2  24
ATOM     24  C   UNL     1       2.991  13.870  19.957  0.00  0.00    +0.000 C 
BRANCH  24  25
ATOM     25  C   UNL     1       3.385  15.262  19.498  0.00  0.00    +0.000 C 
BRANCH  25  26
ATOM     26  C   UNL     1       2.334  15.858  18.548  0.00  0.00    +0.000 C 
ATOM     27  C   UNL     1       1.254  16.629  19.300  0.00  0.00    +0.000 C 
ATOM     28  C   UNL     1       0.576  17.465  18.223  0.00  0.00    +0.000 C 
ATOM     29  C   UNL     1       1.650  17.743  17.172  0.00  0.00    +0.000 C 
ATOM     30  C   UNL     1       2.866  16.903  17.562  0.00  0.00    +0.000 C 
ENDBRANCH  25  26
ENDBRANCH  24  25
ENDBRANCH   2  24
TORSDOF 4
ENDMDL
MODEL 9
REMARK VINA RESULT:      -7.3      3.174      8.088
REMARK  Name = 
REMARK  4 active torsions:
REMARK  status: ('A' for Active; 'I' for Inactive)
REMARK    1  A    between atoms: C_2  and  C_3
REMARK    2  A    between atoms: C_3  and  C_4
REMARK    3  A    between atoms: C_4  and  C_5
REMARK    4  A    between atoms: C_22  and  C_23
REMARK                            x       y       z     vdW  Elec       q    Type
REMARK                         _______ _______ _______ _____ _____    ______ ____
ROOT
ATOM      1  O   UNL     1      -3.064  13.791  20.744  0.00  0.00    +0.000 OA
ATOM      2  C   UNL     1      -2.416  13.198  21.598  0.00  0.00    +0.000 C 
ATOM      3  N   UNL     1      -1.354  12.338  21.296  0.00  0.00    +0.000 N 
ATOM      4  C   UNL     1      -0.641  11.564  22.337  0.00  0.00    +0.000 C 
ATOM      5  C   UNL     1      -0.375  10.109  21.937  0.00  0.00    +0.000 C 
ATOM      6  C   UNL     1       0.204  10.070  20.579  0.00  0.00    +0.000 A 
ATOM      7  C   UNL     1      -0.016  11.094  19.680  0.00  0.00    +0.000 A 
ATOM      8  N   UNL     1       0.658  10.782  18.528  0.00  0.00    +0.000 N 
ATOM      9  C   UNL     1       1.313   9.577  18.678  0.00  0.00    +0.000 A 
ATOM     10  C   UNL     1       2.129   8.876  17.783  0.00  0.00    +0.000 A 
ATOM     11  C   UNL     1       2.666   7.657  18.211  0.00  0.00    +0.000 A 
ATOM     12  C   UNL     1       2.407   7.166  19.489  0.00  0.00    +0.000 A 
ATOM     13  C   UNL     1       1.600   7.883  20.378  0.00  0.00    +0.000 A 
ATOM     14  C   UNL     1       1.040   9.107  19.964  0.00  0.00    +0.000 A 
ATOM     15  C   UNL     1      -0.771  12.381  19.926  0.00  0.00    +0.000 C 
ATOM     16  H   UNL     1       0.722  11.371  17.708  0.00  0.00    +0.000 HD
ENDROOT
BRANCH  15  17
ATOM     17  C   UNL     1       0.124  13.616  19.749  0.00  0.00    +0.000 A 
ATOM     18  C   UNL     1      -0.270  14.655  18.886  0.00  0.00    +0.000 A 
ATOM     19  C   UNL     1       0.506  15.810  18.755  0.00  0.00    +0.000 A 
ATOM     20  C   UNL     1       1.686  15.931  19.482  0.00  0.00    +0.000 A 
ATOM     21  F   UNL     1       2.419  17.047  19.374  0.00  0.00    +0.000 F 
ATOM     22  C   UNL     1       2.109  14.917  20.326  0.00  0.00    +0.000 A 
ATOM     23  C   UNL     1       1.329  13.767  20.463  0.00  0.00    +0.000 A 
ENDBRANCH  15  17
BRANCH   2  24
ATOM     24  C   UNL     1      -2.694  13.366  23.093  0.00  0.00    +0.000 C 
BRANCH  24  25
ATOM     25  C   UNL     1      -3.861  12.562  23.635  0.00  0.00    +0.000 C 
BRANCH  25  26
ATOM     26  C   UNL     1      -5.203  13.250  23.339  0.00  0.00    +0.000 C 
ATOM     27  C   UNL     1      -6.342  12.666  24.168  0.00  0.00    +0.000 C 
ATOM     28  C   UNL     1      -7.450  13.705  24.061  0.00  0.00    +0.000 C 
ATOM     29  C   UNL     1      -6.747  15.049  23.881  0.00  0.00    +0.000 C 
ATOM     30  C   UNL     1      -5.262  14.740  23.693  0.00  0.00    +0.000 C 
ENDBRANCH  25  26
ENDBRANCH  24  25
ENDBRANCH   2  24
TORSDOF 4
ENDMDL
