MODEL 1
REMARK VINA RESULT:      -7.3      0.000      0.000
REMARK  Name = 
REMARK  1 active torsions:
REMARK  status: ('A' for Active; 'I' for Inactive)
REMARK    1  A    between atoms: C_1  and  C_12
REMARK                            x       y       z     vdW  Elec       q    Type
REMARK                         _______ _______ _______ _____ _____    ______ ____
ROOT
ATOM      1  C   UNL     1       5.556   3.849  15.757  0.00  0.00    +0.000 C 
ATOM      2  C   UNL     1       5.202   4.661  16.775  0.00  0.00    +0.000 C 
ATOM      3  C   UNL     1       5.257   6.165  16.824  0.00  0.00    +0.000 C 
ATOM      4  O   UNL     1       4.023   6.766  17.235  0.00  0.00    +0.000 OA
ATOM      5  C   UNL     1       3.455   6.226  18.354  0.00  0.00    +0.000 A 
ATOM      6  C   UNL     1       2.537   7.027  19.036  0.00  0.00    +0.000 A 
ATOM      7  C   UNL     1       1.888   6.539  20.170  0.00  0.00    +0.000 A 
ATOM      8  C   UNL     1       2.148   5.245  20.615  0.00  0.00    +0.000 A 
ATOM      9  C   UNL     1       3.059   4.442  19.928  0.00  0.00    +0.000 A 
ATOM     10  C   UNL     1       3.718   4.928  18.789  0.00  0.00    +0.000 A 
ATOM     11  C   UNL     1       4.706   4.058  18.066  0.00  0.00    +0.000 C 
ENDROOT
BRANCH   1  12
ATOM     12  C   UNL     1       6.144   4.146  14.437  0.00  0.00    +0.000 A 
ATOM     13  C   UNL     1       7.236   5.000  14.252  0.00  0.00    +0.000 A 
ATOM     14  C   UNL     1       7.800   5.180  12.983  0.00  0.00    +0.000 A 
ATOM     15  C   UNL     1       7.303   4.474  11.889  0.00  0.00    +0.000 A 
ATOM     16  C   UNL     1       6.242   3.592  12.063  0.00  0.00    +0.000 A 
ATOM     17  C   UNL     1       5.668   3.430  13.328  0.00  0.00    +0.000 A 
ENDBRANCH   1  12
TORSDOF 1
ENDMDL
MODEL 2
REMARK VINA RESULT:      -7.2      2.355      4.367
REMARK  Name = 
REMARK  1 active torsions:
REMARK  status: ('A' for Active; 'I' for Inactive)
REMARK    1  A    between atoms: C_1  and  C_12
REMARK                            x       y       z     vdW  Elec       q    Type
REMARK                         _______ _______ _______ _____ _____    ______ ____
ROOT
ATOM      1  C   UNL     1       4.209   7.332  17.135  0.00  0.00    +0.000 C 
ATOM      2  C   UNL     1       3.104   7.405  17.906  0.00  0.00    +0.000 C 
ATOM      3  C   UNL     1       2.614   6.406  18.920  0.00  0.00    +0.000 C 
ATOM      4  O   UNL     1       2.328   6.988  20.198  0.00  0.00    +0.000 OA
ATOM      5  C   UNL     1       1.563   8.119  20.166  0.00  0.00    +0.000 A 
ATOM      6  C   UNL     1       0.898   8.456  21.347  0.00  0.00    +0.000 A 
ATOM      7  C   UNL     1       0.123   9.613  21.408  0.00  0.00    +0.000 A 
ATOM      8  C   UNL     1       0.023  10.442  20.293  0.00  0.00    +0.000 A 
ATOM      9  C   UNL     1       0.695  10.110  19.116  0.00  0.00    +0.000 A 
ATOM     10  C   UNL     1       1.474   8.944  19.046  0.00  0.00    +0.000 A 
ATOM     11  C   UNL     1       2.182   8.591  17.770  0.00  0.00    +0.000 C 
ENDROOT
BRANCH   1  12
ATOM     12  C   UNL     1       5.227   6.273  16.992  0.00  0.00    +0.000 A 
ATOM     13  C   UNL     1       5.216   5.326  15.963  0.00  0.00    +0.000 A 
ATOM     14  C   UNL     1       6.253   4.395  15.835  0.00  0.00    +0.000 A 
ATOM     15  C   UNL     1       7.336   4.427  16.711  0.00  0.00    +0.000 A 
ATOM     16  C   UNL     1       7.381   5.386  17.717  0.00  0.00    +0.000 A 
ATOM     17  C   UNL     1       6.333   6.302  17.855  0.00  0.00    +0.000 A 
ENDBRANCH   1  12
TORSDOF 1
ENDMDL
MODEL 3
REMARK VINA RESULT:      -7.1      2.530      4.336
REMARK  Name = 
REMARK  1 active torsions:
REMARK  status: ('A' for Active; 'I' for Inactive)
REMARK    1  A    between atoms: C_1  and  C_12
REMARK                            x       y       z     vdW  Elec       q    Type
REMARK                         _______ _______ _______ _____ _____    ______ ____
ROOT
ATOM      1  C   UNL     1       4.130   7.488  17.146  0.00  0.00    +0.000 C 
ATOM      2  C   UNL     1       3.041   7.514  17.943  0.00  0.00    +0.000 C 
ATOM      3  C   UNL     1       2.652   6.529  19.013  0.00  0.00    +0.000 C 
ATOM      4  O   UNL     1       2.354   7.146  20.272  0.00  0.00    +0.000 OA
ATOM      5  C   UNL     1       1.506   8.216  20.211  0.00  0.00    +0.000 A 
ATOM      6  C   UNL     1       0.846   8.557  21.393  0.00  0.00    +0.000 A 
ATOM      7  C   UNL     1      -0.012   9.655  21.425  0.00  0.00    +0.000 A 
ATOM      8  C   UNL     1      -0.200  10.423  20.277  0.00  0.00    +0.000 A 
ATOM      9  C   UNL     1       0.467  10.087  19.098  0.00  0.00    +0.000 A 
ATOM     10  C   UNL     1       1.328   8.980  19.059  0.00  0.00    +0.000 A 
ATOM     11  C   UNL     1       2.030   8.622  17.780  0.00  0.00    +0.000 C 
ENDROOT
BRANCH   1  12
ATOM     12  C   UNL     1       5.220   6.501  17.022  0.00  0.00    +0.000 A 
ATOM     13  C   UNL     1       6.459   6.635  17.656  0.00  0.00    +0.000 A 
ATOM     14  C   UNL     1       7.425   5.625  17.565  0.00  0.00    +0.000 A 
ATOM     15  C   UNL     1       7.146   4.450  16.870  0.00  0.00    +0.000 A 
ATOM     16  C   UNL     1       5.905   4.285  16.265  0.00  0.00    +0.000 A 
ATOM     17  C   UNL     1       4.949   5.304  16.341  0.00  0.00    +0.000 A 
ENDBRANCH   1  12
TORSDOF 1
ENDMDL
MODEL 4
REMARK VINA RESULT:      -7.0      0.189      1.180
REMARK  Name = 
REMARK  1 active torsions:
REMARK  status: ('A' for Active; 'I' for Inactive)
REMARK    1  A    between atoms: C_1  and  C_12
REMARK                            x       y       z     vdW  Elec       q    Type
REMARK                         _______ _______ _______ _____ _____    ______ ____
ROOT
ATOM      1  C   UNL     1       5.550   3.741  15.741  0.00  0.00    +0.000 C 
ATOM      2  C   UNL     1       5.220   4.607  16.721  0.00  0.00    +0.000 C 
ATOM      3  C   UNL     1       5.360   6.106  16.719  0.00  0.00    +0.000 C 
ATOM      4  O   UNL     1       4.154   6.791  17.078  0.00  0.00    +0.000 OA
ATOM      5  C   UNL     1       3.530   6.325  18.201  0.00  0.00    +0.000 A 
ATOM      6  C   UNL     1       2.644   7.200  18.832  0.00  0.00    +0.000 A 
ATOM      7  C   UNL     1       1.943   6.791  19.965  0.00  0.00    +0.000 A 
ATOM      8  C   UNL     1       2.118   5.501  20.462  0.00  0.00    +0.000 A 
ATOM      9  C   UNL     1       2.997   4.623  19.826  0.00  0.00    +0.000 A 
ATOM     10  C   UNL     1       3.708   5.030  18.687  0.00  0.00    +0.000 A 
ATOM     11  C   UNL     1       4.661   4.080  18.020  0.00  0.00    +0.000 C 
ENDROOT
BRANCH   1  12
ATOM     12  C   UNL     1       6.184   3.956  14.426  0.00  0.00    +0.000 A 
ATOM     13  C   UNL     1       5.735   3.357  13.245  0.00  0.00    +0.000 A 
ATOM     14  C   UNL     1       6.329   3.663  12.015  0.00  0.00    +0.000 A 
ATOM     15  C   UNL     1       7.354   4.605  11.946  0.00  0.00    +0.000 A 
ATOM     16  C   UNL     1       7.787   5.237  13.107  0.00  0.00    +0.000 A 
ATOM     17  C   UNL     1       7.206   4.915  14.337  0.00  0.00    +0.000 A 
ENDBRANCH   1  12
TORSDOF 1
ENDMDL
MODEL 5
REMARK VINA RESULT:      -7.0      4.416      6.977
REMARK  Name = 
REMARK  1 active torsions:
REMARK  status: ('A' for Active; 'I' for Inactive)
REMARK    1  A    between atoms: C_1  and  C_12
REMARK                            x       y       z     vdW  Elec       q    Type
REMARK                         _______ _______ _______ _____ _____    ______ ____
ROOT
ATOM      1  C   UNL     1       1.875   8.470  17.861  0.00  0.00    +0.000 C 
ATOM      2  C   UNL     1       2.173   7.381  18.600  0.00  0.00    +0.000 C 
ATOM      3  C   UNL     1       2.210   7.262  20.101  0.00  0.00    +0.000 C 
ATOM      4  O   UNL     1       1.444   6.159  20.602  0.00  0.00    +0.000 OA
ATOM      5  C   UNL     1       1.662   4.965  19.976  0.00  0.00    +0.000 A 
ATOM      6  C   UNL     1       1.307   3.815  20.684  0.00  0.00    +0.000 A 
ATOM      7  C   UNL     1       1.467   2.557  20.104  0.00  0.00    +0.000 A 
ATOM      8  C   UNL     1       1.970   2.449  18.809  0.00  0.00    +0.000 A 
ATOM      9  C   UNL     1       2.317   3.599  18.098  0.00  0.00    +0.000 A 
ATOM     10  C   UNL     1       2.162   4.867  18.678  0.00  0.00    +0.000 A 
ATOM     11  C   UNL     1       2.551   6.096  17.908  0.00  0.00    +0.000 C 
ENDROOT
BRANCH   1  12
ATOM     12  C   UNL     1       1.560   9.857  18.256  0.00  0.00    +0.000 A 
ATOM     13  C   UNL     1       2.395  10.945  17.984  0.00  0.00    +0.000 A 
ATOM     14  C   UNL     1       2.004  12.249  18.313  0.00  0.00    +0.000 A 
ATOM     15  C   UNL     1       0.754  12.483  18.882  0.00  0.00    +0.000 A 
ATOM     16  C   UNL     1      -0.104  11.415  19.125  0.00  0.00    +0.000 A 
ATOM     17  C   UNL     1       0.297  10.112  18.813  0.00  0.00    +0.000 A 
ENDBRANCH   1  12
TORSDOF 1
ENDMDL
MODEL 6
REMARK VINA RESULT:      -7.0      3.078      7.451
REMARK  Name = 
REMARK  1 active torsions:
REMARK  status: ('A' for Active; 'I' for Inactive)
REMARK    1  A    between atoms: C_1  and  C_12
REMARK                            x       y       z     vdW  Elec       q    Type
REMARK                         _______ _______ _______ _____ _____    ______ ____
ROOT
ATOM      1  C   UNL     1       1.881   9.086  17.874  0.00  0.00    +0.000 C 
ATOM      2  C   UNL     1       2.530   7.963  18.245  0.00  0.00    +0.000 C 
ATOM      3  C   UNL     1       2.260   7.090  19.442  0.00  0.00    +0.000 C 
ATOM      4  O   UNL     1       2.118   5.702  19.112  0.00  0.00    +0.000 OA
ATOM      5  C   UNL     1       3.092   5.193  18.300  0.00  0.00    +0.000 A 
ATOM      6  C   UNL     1       3.256   3.806  18.317  0.00  0.00    +0.000 A 
ATOM      7  C   UNL     1       4.206   3.203  17.494  0.00  0.00    +0.000 A 
ATOM      8  C   UNL     1       4.985   3.985  16.643  0.00  0.00    +0.000 A 
ATOM      9  C   UNL     1       4.815   5.370  16.621  0.00  0.00    +0.000 A 
ATOM     10  C   UNL     1       3.863   5.984  17.449  0.00  0.00    +0.000 A 
ATOM     11  C   UNL     1       3.699   7.476  17.425  0.00  0.00    +0.000 C 
ENDROOT
BRANCH   1  12
ATOM     12  C   UNL     1       0.782   9.831  18.516  0.00  0.00    +0.000 A 
ATOM     13  C   UNL     1       0.950  10.626  19.655  0.00  0.00    +0.000 A 
ATOM     14  C   UNL     1      -0.116  11.373  20.172  0.00  0.00    +0.000 A 
ATOM     15  C   UNL     1      -1.353  11.365  19.531  0.00  0.00    +0.000 A 
ATOM     16  C   UNL     1      -1.526  10.610  18.376  0.00  0.00    +0.000 A 
ATOM     17  C   UNL     1      -0.466   9.849  17.873  0.00  0.00    +0.000 A 
ENDBRANCH   1  12
TORSDOF 1
ENDMDL
MODEL 7
REMARK VINA RESULT:      -7.0      4.363      7.022
REMARK  Name = 
REMARK  1 active torsions:
REMARK  status: ('A' for Active; 'I' for Inactive)
REMARK    1  A    between atoms: C_1  and  C_12
REMARK                            x       y       z     vdW  Elec       q    Type
REMARK                         _______ _______ _______ _____ _____    ______ ____
ROOT
ATOM      1  C   UNL     1       1.881   8.438  17.832  0.00  0.00    +0.000 C 
ATOM      2  C   UNL     1       2.207   7.419  18.654  0.00  0.00    +0.000 C 
ATOM      3  C   UNL     1       2.111   7.374  20.157  0.00  0.00    +0.000 C 
ATOM      4  O   UNL     1       1.407   6.226  20.647  0.00  0.00    +0.000 OA
ATOM      5  C   UNL     1       1.795   5.031  20.111  0.00  0.00    +0.000 A 
ATOM      6  C   UNL     1       1.483   3.886  20.847  0.00  0.00    +0.000 A 
ATOM      7  C   UNL     1       1.814   2.625  20.355  0.00  0.00    +0.000 A 
ATOM      8  C   UNL     1       2.448   2.506  19.120  0.00  0.00    +0.000 A 
ATOM      9  C   UNL     1       2.752   3.650  18.380  0.00  0.00    +0.000 A 
ATOM     10  C   UNL     1       2.425   4.922  18.872  0.00  0.00    +0.000 A 
ATOM     11  C   UNL     1       2.769   6.146  18.072  0.00  0.00    +0.000 C 
ENDROOT
BRANCH   1  12
ATOM     12  C   UNL     1       1.401   9.803  18.118  0.00  0.00    +0.000 A 
ATOM     13  C   UNL     1       0.100  10.092  18.539  0.00  0.00    +0.000 A 
ATOM     14  C   UNL     1      -0.273  11.400  18.872  0.00  0.00    +0.000 A 
ATOM     15  C   UNL     1       0.666  12.429  18.827  0.00  0.00    +0.000 A 
ATOM     16  C   UNL     1       1.974  12.152  18.446  0.00  0.00    +0.000 A 
ATOM     17  C   UNL     1       2.338  10.848  18.095  0.00  0.00    +0.000 A 
ENDBRANCH   1  12
TORSDOF 1
ENDMDL
MODEL 8
REMARK VINA RESULT:      -6.9      3.018      7.513
REMARK  Name = 
REMARK  1 active torsions:
REMARK  status: ('A' for Active; 'I' for Inactive)
REMARK    1  A    between atoms: C_1  and  C_12
REMARK                            x       y       z     vdW  Elec       q    Type
REMARK                         _______ _______ _______ _____ _____    ______ ____
ROOT
ATOM      1  C   UNL     1       1.913   9.091  17.818  0.00  0.00    +0.000 C 
ATOM      2  C   UNL     1       2.542   7.965  18.215  0.00  0.00    +0.000 C 
ATOM      3  C   UNL     1       2.253   7.120  19.428  0.00  0.00    +0.000 C 
ATOM      4  O   UNL     1       2.088   5.729  19.126  0.00  0.00    +0.000 OA
ATOM      5  C   UNL     1       3.055   5.187  18.328  0.00  0.00    +0.000 A 
ATOM      6  C   UNL     1       3.194   3.798  18.373  0.00  0.00    +0.000 A 
ATOM      7  C   UNL     1       4.136   3.162  17.565  0.00  0.00    +0.000 A 
ATOM      8  C   UNL     1       4.931   3.913  16.702  0.00  0.00    +0.000 A 
ATOM      9  C   UNL     1       4.785   5.300  16.651  0.00  0.00    +0.000 A 
ATOM     10  C   UNL     1       3.842   5.947  17.464  0.00  0.00    +0.000 A 
ATOM     11  C   UNL     1       3.704   7.441  17.409  0.00  0.00    +0.000 C 
ENDROOT
BRANCH   1  12
ATOM     12  C   UNL     1       0.825   9.868  18.443  0.00  0.00    +0.000 A 
ATOM     13  C   UNL     1      -0.478   9.915  17.938  0.00  0.00    +0.000 A 
ATOM     14  C   UNL     1      -1.487  10.606  18.620  0.00  0.00    +0.000 A 
ATOM     15  C   UNL     1      -1.212  11.226  19.837  0.00  0.00    +0.000 A 
ATOM     16  C   UNL     1       0.070  11.157  20.372  0.00  0.00    +0.000 A 
ATOM     17  C   UNL     1       1.081  10.483  19.679  0.00  0.00    +0.000 A 
ENDBRANCH   1  12
TORSDOF 1
ENDMDL
MODEL 9
REMARK VINA RESULT:      -6.9      4.437      5.839
REMARK  Name = 
REMARK  1 active torsions:
REMARK  status: ('A' for Active; 'I' for Inactive)
REMARK    1  A    between atoms: C_1  and  C_12
REMARK                            x       y       z     vdW  Elec       q    Type
REMARK                         _______ _______ _______ _____ _____    ______ ____
ROOT
ATOM      1  C   UNL     1       1.841   5.134  20.254  0.00  0.00    +0.000 C 
ATOM      2  C   UNL     1       2.065   6.437  19.985  0.00  0.00    +0.000 C 
ATOM      3  C   UNL     1       2.841   7.026  18.836  0.00  0.00    +0.000 C 
ATOM      4  O   UNL     1       2.117   8.032  18.117  0.00  0.00    +0.000 OA
ATOM      5  C   UNL     1       1.522   8.987  18.891  0.00  0.00    +0.000 A 
ATOM      6  C   UNL     1       1.205  10.193  18.262  0.00  0.00    +0.000 A 
ATOM      7  C   UNL     1       0.567  11.208  18.972  0.00  0.00    +0.000 A 
ATOM      8  C   UNL     1       0.233  11.014  20.311  0.00  0.00    +0.000 A 
ATOM      9  C   UNL     1       0.542   9.806  20.938  0.00  0.00    +0.000 A 
ATOM     10  C   UNL     1       1.188   8.782  20.229  0.00  0.00    +0.000 A 
ATOM     11  C   UNL     1       1.526   7.492  20.919  0.00  0.00    +0.000 C 
ENDROOT
BRANCH   1  12
ATOM     12  C   UNL     1       2.310   3.907  19.581  0.00  0.00    +0.000 A 
ATOM     13  C   UNL     1       1.775   3.434  18.379  0.00  0.00    +0.000 A 
ATOM     14  C   UNL     1       2.315   2.307  17.748  0.00  0.00    +0.000 A 
ATOM     15  C   UNL     1       3.425   1.664  18.292  0.00  0.00    +0.000 A 
ATOM     16  C   UNL     1       3.992   2.144  19.467  0.00  0.00    +0.000 A 
ATOM     17  C   UNL     1       3.438   3.258  20.107  0.00  0.00    +0.000 A 
ENDBRANCH   1  12
TORSDOF 1
ENDMDL
