MODEL 1
REMARK VINA RESULT:      -7.0      0.000      0.000
REMARK  Name = 
REMARK  5 active torsions:
REMARK  status: ('A' for Active; 'I' for Inactive)
REMARK    1  A    between atoms: C_1  and  O_2
REMARK    2  A    between atoms: O_2  and  C_3
REMARK    3  A    between atoms: C_8  and  C_9
REMARK    4  A    between atoms: C_10  and  C_11
REMARK    5  A    between atoms: C_11  and  C_13
REMARK                            x       y       z     vdW  Elec       q    Type
REMARK                         _______ _______ _______ _____ _____    ______ ____
ROOT
ATOM      1  C   UNL     1       3.744   4.322  17.511  0.00  0.00    +0.000 C 
ATOM      2  C   UNL     1       4.847   3.603  17.259  0.00  0.00    +0.000 C 
ENDROOT
BRANCH   1   8
ATOM      3  C   UNL     1       2.222   4.637  19.572  0.00  0.00    +0.000 A 
ATOM      4  C   UNL     1       1.106   4.180  20.292  0.00  0.00    +0.000 A 
ATOM      5  C   UNL     1       0.418   3.033  19.893  0.00  0.00    +0.000 A 
ATOM      6  C   UNL     1       0.853   2.312  18.791  0.00  0.00    +0.000 A 
ATOM      7  C   UNL     1       1.963   2.753  18.071  0.00  0.00    +0.000 A 
ATOM      8  C   UNL     1       2.650   3.930  18.428  0.00  0.00    +0.000 A 
BRANCH   3  10
ATOM      9  C   UNL     1       2.358   7.005  19.752  0.00  0.00    +0.000 C 
ATOM     10  O   UNL     1       2.955   5.730  19.970  0.00  0.00    +0.000 OA
ENDBRANCH   3  10
ENDBRANCH   1   8
BRANCH   2  11
ATOM     11  C   UNL     1       5.964   4.210  16.479  0.00  0.00    +0.000 C 
ATOM     12  O   UNL     1       6.251   3.845  15.347  0.00  0.00    +0.000 OA
BRANCH  11  13
ATOM     13  C   UNL     1       6.669   5.355  17.107  0.00  0.00    +0.000 A 
ATOM     14  C   UNL     1       7.406   5.198  18.288  0.00  0.00    +0.000 A 
ATOM     15  C   UNL     1       8.064   6.295  18.848  0.00  0.00    +0.000 A 
ATOM     16  C   UNL     1       7.989   7.542  18.228  0.00  0.00    +0.000 A 
ATOM     17 CL   UNL     1       8.797   8.890  18.927  0.00  0.00    +0.000 Cl
ATOM     18  C   UNL     1       7.269   7.703  17.045  0.00  0.00    +0.000 A 
ATOM     19  C   UNL     1       6.613   6.606  16.479  0.00  0.00    +0.000 A 
ENDBRANCH  11  13
ENDBRANCH   2  11
TORSDOF 4
ENDMDL
MODEL 2
REMARK VINA RESULT:      -6.9      3.517      6.178
REMARK  Name = 
REMARK  5 active torsions:
REMARK  status: ('A' for Active; 'I' for Inactive)
REMARK    1  A    between atoms: C_1  and  O_2
REMARK    2  A    between atoms: O_2  and  C_3
REMARK    3  A    between atoms: C_8  and  C_9
REMARK    4  A    between atoms: C_10  and  C_11
REMARK    5  A    between atoms: C_11  and  C_13
REMARK                            x       y       z     vdW  Elec       q    Type
REMARK                         _______ _______ _______ _____ _____    ______ ____
ROOT
ATOM      1  C   UNL     1       2.195   6.154  17.772  0.00  0.00    +0.000 C 
ATOM      2  C   UNL     1       2.588   7.104  18.632  0.00  0.00    +0.000 C 
ENDROOT
BRANCH   1   8
ATOM      3  C   UNL     1       3.718   4.073  17.680  0.00  0.00    +0.000 A 
ATOM      4  C   UNL     1       3.846   2.696  17.927  0.00  0.00    +0.000 A 
ATOM      5  C   UNL     1       2.760   1.946  18.381  0.00  0.00    +0.000 A 
ATOM      6  C   UNL     1       1.526   2.554  18.564  0.00  0.00    +0.000 A 
ATOM      7  C   UNL     1       1.386   3.920  18.316  0.00  0.00    +0.000 A 
ATOM      8  C   UNL     1       2.476   4.707  17.897  0.00  0.00    +0.000 A 
BRANCH   3  10
ATOM      9  C   UNL     1       5.250   4.449  15.899  0.00  0.00    +0.000 C 
ATOM     10  O   UNL     1       4.752   4.828  17.179  0.00  0.00    +0.000 OA
ENDBRANCH   3  10
ENDBRANCH   1   8
BRANCH   2  11
ATOM     11  C   UNL     1       2.058   8.491  18.498  0.00  0.00    +0.000 C 
ATOM     12  O   UNL     1       2.185   9.149  17.473  0.00  0.00    +0.000 OA
BRANCH  11  13
ATOM     13  C   UNL     1       1.277   9.020  19.643  0.00  0.00    +0.000 A 
ATOM     14  C   UNL     1       0.435  10.130  19.502  0.00  0.00    +0.000 A 
ATOM     15  C   UNL     1      -0.293  10.597  20.599  0.00  0.00    +0.000 A 
ATOM     16  C   UNL     1      -0.181   9.954  21.831  0.00  0.00    +0.000 A 
ATOM     17 CL   UNL     1      -1.074  10.538  23.180  0.00  0.00    +0.000 Cl
ATOM     18  C   UNL     1       0.645   8.840  21.978  0.00  0.00    +0.000 A 
ATOM     19  C   UNL     1       1.371   8.367  20.879  0.00  0.00    +0.000 A 
ENDBRANCH  11  13
ENDBRANCH   2  11
TORSDOF 4
ENDMDL
MODEL 3
REMARK VINA RESULT:      -6.9      3.522      6.012
REMARK  Name = 
REMARK  5 active torsions:
REMARK  status: ('A' for Active; 'I' for Inactive)
REMARK    1  A    between atoms: C_1  and  O_2
REMARK    2  A    between atoms: O_2  and  C_3
REMARK    3  A    between atoms: C_8  and  C_9
REMARK    4  A    between atoms: C_10  and  C_11
REMARK    5  A    between atoms: C_11  and  C_13
REMARK                            x       y       z     vdW  Elec       q    Type
REMARK                         _______ _______ _______ _____ _____    ______ ____
ROOT
ATOM      1  C   UNL     1       2.215   6.010  17.809  0.00  0.00    +0.000 C 
ATOM      2  C   UNL     1       2.598   6.973  18.659  0.00  0.00    +0.000 C 
ENDROOT
BRANCH   1   8
ATOM      3  C   UNL     1       3.720   3.913  17.767  0.00  0.00    +0.000 A 
ATOM      4  C   UNL     1       3.833   2.541  18.045  0.00  0.00    +0.000 A 
ATOM      5  C   UNL     1       2.739   1.811  18.512  0.00  0.00    +0.000 A 
ATOM      6  C   UNL     1       1.510   2.435  18.678  0.00  0.00    +0.000 A 
ATOM      7  C   UNL     1       1.384   3.796  18.399  0.00  0.00    +0.000 A 
ATOM      8  C   UNL     1       2.483   4.563  17.966  0.00  0.00    +0.000 A 
BRANCH   3  10
ATOM      9  C   UNL     1       5.123   4.372  15.902  0.00  0.00    +0.000 C 
ATOM     10  O   UNL     1       4.762   4.647  17.253  0.00  0.00    +0.000 OA
ENDBRANCH   3  10
ENDBRANCH   1   8
BRANCH   2  11
ATOM     11  C   UNL     1       2.082   8.361  18.487  0.00  0.00    +0.000 C 
ATOM     12  O   UNL     1       2.202   8.984  17.441  0.00  0.00    +0.000 OA
BRANCH  11  13
ATOM     13  C   UNL     1       1.323   8.935  19.626  0.00  0.00    +0.000 A 
ATOM     14  C   UNL     1       1.308   8.310  20.880  0.00  0.00    +0.000 A 
ATOM     15  C   UNL     1       0.590   8.881  21.933  0.00  0.00    +0.000 A 
ATOM     16  C   UNL     1      -0.106  10.073  21.735  0.00  0.00    +0.000 A 
ATOM     17 CL   UNL     1      -0.993  10.767  23.035  0.00  0.00    +0.000 Cl
ATOM     18  C   UNL     1      -0.085  10.708  20.493  0.00  0.00    +0.000 A 
ATOM     19  C   UNL     1       0.638  10.142  19.438  0.00  0.00    +0.000 A 
ENDBRANCH  11  13
ENDBRANCH   2  11
TORSDOF 4
ENDMDL
MODEL 4
REMARK VINA RESULT:      -6.8      1.659      2.320
REMARK  Name = 
REMARK  5 active torsions:
REMARK  status: ('A' for Active; 'I' for Inactive)
REMARK    1  A    between atoms: C_1  and  O_2
REMARK    2  A    between atoms: O_2  and  C_3
REMARK    3  A    between atoms: C_8  and  C_9
REMARK    4  A    between atoms: C_10  and  C_11
REMARK    5  A    between atoms: C_11  and  C_13
REMARK                            x       y       z     vdW  Elec       q    Type
REMARK                         _______ _______ _______ _____ _____    ______ ____
ROOT
ATOM      1  C   UNL     1       3.754   4.273  18.108  0.00  0.00    +0.000 C 
ATOM      2  C   UNL     1       4.418   3.590  17.165  0.00  0.00    +0.000 C 
ENDROOT
BRANCH   1   8
ATOM      3  C   UNL     1       3.457   2.892  20.268  0.00  0.00    +0.000 A 
ATOM      4  C   UNL     1       2.585   2.475  21.287  0.00  0.00    +0.000 A 
ATOM      5  C   UNL     1       1.234   2.825  21.262  0.00  0.00    +0.000 A 
ATOM      6  C   UNL     1       0.730   3.569  20.204  0.00  0.00    +0.000 A 
ATOM      7  C   UNL     1       1.586   3.984  19.184  0.00  0.00    +0.000 A 
ATOM      8  C   UNL     1       2.961   3.680  19.206  0.00  0.00    +0.000 A 
BRANCH   3  10
ATOM      9  C   UNL     1       5.114   1.315  20.921  0.00  0.00    +0.000 C 
ATOM     10  O   UNL     1       4.779   2.518  20.234  0.00  0.00    +0.000 OA
ENDBRANCH   3  10
ENDBRANCH   1   8
BRANCH   2  11
ATOM     11  C   UNL     1       5.347   4.307  16.245  0.00  0.00    +0.000 C 
ATOM     12  O   UNL     1       5.392   4.078  15.044  0.00  0.00    +0.000 OA
BRANCH  11  13
ATOM     13  C   UNL     1       6.167   5.392  16.840  0.00  0.00    +0.000 A 
ATOM     14  C   UNL     1       5.939   6.736  16.519  0.00  0.00    +0.000 A 
ATOM     15  C   UNL     1       6.723   7.734  17.103  0.00  0.00    +0.000 A 
ATOM     16  C   UNL     1       7.729   7.388  18.006  0.00  0.00    +0.000 A 
ATOM     17 CL   UNL     1       8.695   8.621  18.716  0.00  0.00    +0.000 Cl
ATOM     18  C   UNL     1       7.953   6.053  18.340  0.00  0.00    +0.000 A 
ATOM     19  C   UNL     1       7.165   5.052  17.762  0.00  0.00    +0.000 A 
ENDBRANCH  11  13
ENDBRANCH   2  11
TORSDOF 4
ENDMDL
MODEL 5
REMARK VINA RESULT:      -6.7      4.038      5.868
REMARK  Name = 
REMARK  5 active torsions:
REMARK  status: ('A' for Active; 'I' for Inactive)
REMARK    1  A    between atoms: C_1  and  O_2
REMARK    2  A    between atoms: O_2  and  C_3
REMARK    3  A    between atoms: C_8  and  C_9
REMARK    4  A    between atoms: C_10  and  C_11
REMARK    5  A    between atoms: C_11  and  C_13
REMARK                            x       y       z     vdW  Elec       q    Type
REMARK                         _______ _______ _______ _____ _____    ______ ____
ROOT
ATOM      1  C   UNL     1       2.246   5.868  17.945  0.00  0.00    +0.000 C 
ATOM      2  C   UNL     1       2.797   6.941  18.529  0.00  0.00    +0.000 C 
ENDROOT
BRANCH   1   8
ATOM      3  C   UNL     1       2.197   3.584  19.147  0.00  0.00    +0.000 A 
ATOM      4  C   UNL     1       2.629   2.247  19.152  0.00  0.00    +0.000 A 
ATOM      5  C   UNL     1       3.520   1.779  18.185  0.00  0.00    +0.000 A 
ATOM      6  C   UNL     1       4.014   2.645  17.220  0.00  0.00    +0.000 A 
ATOM      7  C   UNL     1       3.596   3.976  17.208  0.00  0.00    +0.000 A 
ATOM      8  C   UNL     1       2.666   4.464  18.147  0.00  0.00    +0.000 A 
BRANCH   3  10
ATOM      9  C   UNL     1       1.263   3.335  21.320  0.00  0.00    +0.000 C 
ATOM     10  O   UNL     1       1.365   4.091  20.117  0.00  0.00    +0.000 OA
ENDBRANCH   3  10
ENDBRANCH   1   8
BRANCH   2  11
ATOM     11  C   UNL     1       2.142   8.274  18.400  0.00  0.00    +0.000 C 
ATOM     12  O   UNL     1       2.142   8.909  17.354  0.00  0.00    +0.000 OA
BRANCH  11  13
ATOM     13  C   UNL     1       1.398   8.768  19.585  0.00  0.00    +0.000 A 
ATOM     14  C   UNL     1       1.494   8.125  20.825  0.00  0.00    +0.000 A 
ATOM     15  C   UNL     1       0.787   8.622  21.923  0.00  0.00    +0.000 A 
ATOM     16  C   UNL     1      -0.009   9.758  21.781  0.00  0.00    +0.000 A 
ATOM     17 CL   UNL     1      -0.883  10.360  23.136  0.00  0.00    +0.000 Cl
ATOM     18  C   UNL     1      -0.100  10.411  20.553  0.00  0.00    +0.000 A 
ATOM     19  C   UNL     1       0.611   9.920  19.453  0.00  0.00    +0.000 A 
ENDBRANCH  11  13
ENDBRANCH   2  11
TORSDOF 4
ENDMDL
MODEL 6
REMARK VINA RESULT:      -6.6      3.565      6.500
REMARK  Name = 
REMARK  5 active torsions:
REMARK  status: ('A' for Active; 'I' for Inactive)
REMARK    1  A    between atoms: C_1  and  O_2
REMARK    2  A    between atoms: O_2  and  C_3
REMARK    3  A    between atoms: C_8  and  C_9
REMARK    4  A    between atoms: C_10  and  C_11
REMARK    5  A    between atoms: C_11  and  C_13
REMARK                            x       y       z     vdW  Elec       q    Type
REMARK                         _______ _______ _______ _____ _____    ______ ____
ROOT
ATOM      1  C   UNL     1       3.743   7.443  17.653  0.00  0.00    +0.000 C 
ATOM      2  C   UNL     1       2.431   7.701  17.748  0.00  0.00    +0.000 C 
ENDROOT
BRANCH   1   8
ATOM      3  C   UNL     1       4.169   4.897  17.671  0.00  0.00    +0.000 A 
ATOM      4  C   UNL     1       4.735   3.794  17.011  0.00  0.00    +0.000 A 
ATOM      5  C   UNL     1       5.470   3.962  15.836  0.00  0.00    +0.000 A 
ATOM      6  C   UNL     1       5.676   5.235  15.323  0.00  0.00    +0.000 A 
ATOM      7  C   UNL     1       5.123   6.339  15.974  0.00  0.00    +0.000 A 
ATOM      8  C   UNL     1       4.342   6.192  17.137  0.00  0.00    +0.000 A 
BRANCH   3  10
ATOM      9  C   UNL     1       3.586   3.511  19.514  0.00  0.00    +0.000 C 
ATOM     10  O   UNL     1       3.488   4.772  18.858  0.00  0.00    +0.000 OA
ENDBRANCH   3  10
ENDBRANCH   1   8
BRANCH   2  11
ATOM     11  C   UNL     1       1.969   9.077  18.087  0.00  0.00    +0.000 C 
ATOM     12  O   UNL     1       2.066  10.015  17.308  0.00  0.00    +0.000 OA
BRANCH  11  13
ATOM     13  C   UNL     1       1.291   9.247  19.396  0.00  0.00    +0.000 A 
ATOM     14  C   UNL     1       1.531   8.369  20.461  0.00  0.00    +0.000 A 
ATOM     15  C   UNL     1       0.883   8.563  21.682  0.00  0.00    +0.000 A 
ATOM     16  C   UNL     1       0.002   9.633  21.841  0.00  0.00    +0.000 A 
ATOM     17 CL   UNL     1      -0.797   9.862  23.346  0.00  0.00    +0.000 Cl
ATOM     18  C   UNL     1      -0.231  10.519  20.790  0.00  0.00    +0.000 A 
ATOM     19  C   UNL     1       0.420  10.331  19.567  0.00  0.00    +0.000 A 
ENDBRANCH  11  13
ENDBRANCH   2  11
TORSDOF 4
ENDMDL
MODEL 7
REMARK VINA RESULT:      -6.6      3.835      6.718
REMARK  Name = 
REMARK  5 active torsions:
REMARK  status: ('A' for Active; 'I' for Inactive)
REMARK    1  A    between atoms: C_1  and  O_2
REMARK    2  A    between atoms: O_2  and  C_3
REMARK    3  A    between atoms: C_8  and  C_9
REMARK    4  A    between atoms: C_10  and  C_11
REMARK    5  A    between atoms: C_11  and  C_13
REMARK                            x       y       z     vdW  Elec       q    Type
REMARK                         _______ _______ _______ _____ _____    ______ ____
ROOT
ATOM      1  C   UNL     1       3.277   7.362  18.000  0.00  0.00    +0.000 C 
ATOM      2  C   UNL     1       2.014   7.803  18.088  0.00  0.00    +0.000 C 
ENDROOT
BRANCH   1   8
ATOM      3  C   UNL     1       4.941   5.619  17.077  0.00  0.00    +0.000 A 
ATOM      4  C   UNL     1       5.211   4.261  16.837  0.00  0.00    +0.000 A 
ATOM      5  C   UNL     1       4.256   3.282  17.113  0.00  0.00    +0.000 A 
ATOM      6  C   UNL     1       3.009   3.647  17.602  0.00  0.00    +0.000 A 
ATOM      7  C   UNL     1       2.728   4.992  17.839  0.00  0.00    +0.000 A 
ATOM      8  C   UNL     1       3.689   5.997  17.608  0.00  0.00    +0.000 A 
BRANCH   3  10
ATOM      9  C   UNL     1       7.136   6.496  17.339  0.00  0.00    +0.000 C 
ATOM     10  O   UNL     1       5.838   6.612  16.764  0.00  0.00    +0.000 OA
ENDBRANCH   3  10
ENDBRANCH   1   8
BRANCH   2  11
ATOM     11  C   UNL     1       1.748   9.256  18.289  0.00  0.00    +0.000 C 
ATOM     12  O   UNL     1       2.058  10.103  17.462  0.00  0.00    +0.000 OA
BRANCH  11  13
ATOM     13  C   UNL     1       0.998   9.633  19.513  0.00  0.00    +0.000 A 
ATOM     14  C   UNL     1       0.190  10.776  19.550  0.00  0.00    +0.000 A 
ATOM     15  C   UNL     1      -0.509  11.097  20.715  0.00  0.00    +0.000 A 
ATOM     16  C   UNL     1      -0.403  10.277  21.838  0.00  0.00    +0.000 A 
ATOM     17 CL   UNL     1      -1.261  10.682  23.273  0.00  0.00    +0.000 Cl
ATOM     18  C   UNL     1       0.390   9.130  21.806  0.00  0.00    +0.000 A 
ATOM     19  C   UNL     1       1.087   8.803  20.638  0.00  0.00    +0.000 A 
ENDBRANCH  11  13
ENDBRANCH   2  11
TORSDOF 4
ENDMDL
MODEL 8
REMARK VINA RESULT:      -6.6      3.577      6.575
REMARK  Name = 
REMARK  5 active torsions:
REMARK  status: ('A' for Active; 'I' for Inactive)
REMARK    1  A    between atoms: C_1  and  O_2
REMARK    2  A    between atoms: O_2  and  C_3
REMARK    3  A    between atoms: C_8  and  C_9
REMARK    4  A    between atoms: C_10  and  C_11
REMARK    5  A    between atoms: C_11  and  C_13
REMARK                            x       y       z     vdW  Elec       q    Type
REMARK                         _______ _______ _______ _____ _____    ______ ____
ROOT
ATOM      1  C   UNL     1       3.677   7.452  17.735  0.00  0.00    +0.000 C 
ATOM      2  C   UNL     1       2.369   7.737  17.797  0.00  0.00    +0.000 C 
ENDROOT
BRANCH   1   8
ATOM      3  C   UNL     1       4.080   4.904  17.829  0.00  0.00    +0.000 A 
ATOM      4  C   UNL     1       4.633   3.777  17.200  0.00  0.00    +0.000 A 
ATOM      5  C   UNL     1       5.364   3.902  16.017  0.00  0.00    +0.000 A 
ATOM      6  C   UNL     1       5.578   5.156  15.465  0.00  0.00    +0.000 A 
ATOM      7  C   UNL     1       5.038   6.284  16.083  0.00  0.00    +0.000 A 
ATOM      8  C   UNL     1       4.262   6.181  17.254  0.00  0.00    +0.000 A 
BRANCH   3  10
ATOM      9  C   UNL     1       3.149   3.510  19.516  0.00  0.00    +0.000 C 
ATOM     10  O   UNL     1       3.404   4.822  19.022  0.00  0.00    +0.000 OA
ENDBRANCH   3  10
ENDBRANCH   1   8
BRANCH   2  11
ATOM     11  C   UNL     1       1.926   9.128  18.101  0.00  0.00    +0.000 C 
ATOM     12  O   UNL     1       2.044  10.046  17.301  0.00  0.00    +0.000 OA
BRANCH  11  13
ATOM     13  C   UNL     1       1.244   9.340  19.401  0.00  0.00    +0.000 A 
ATOM     14  C   UNL     1       0.343  10.396  19.587  0.00  0.00    +0.000 A 
ATOM     15  C   UNL     1      -0.289  10.563  20.821  0.00  0.00    +0.000 A 
ATOM     16  C   UNL     1      -0.024   9.675  21.863  0.00  0.00    +0.000 A 
ATOM     17 CL   UNL     1      -0.801   9.890  23.383  0.00  0.00    +0.000 Cl
ATOM     18  C   UNL     1       0.861   8.613  21.682  0.00  0.00    +0.000 A 
ATOM     19  C   UNL     1       1.492   8.440  20.445  0.00  0.00    +0.000 A 
ENDBRANCH  11  13
ENDBRANCH   2  11
TORSDOF 4
ENDMDL
MODEL 9
REMARK VINA RESULT:      -6.5      3.932      6.000
REMARK  Name = 
REMARK  5 active torsions:
REMARK  status: ('A' for Active; 'I' for Inactive)
REMARK    1  A    between atoms: C_1  and  O_2
REMARK    2  A    between atoms: O_2  and  C_3
REMARK    3  A    between atoms: C_8  and  C_9
REMARK    4  A    between atoms: C_10  and  C_11
REMARK    5  A    between atoms: C_11  and  C_13
REMARK                            x       y       z     vdW  Elec       q    Type
REMARK                         _______ _______ _______ _____ _____    ______ ____
ROOT
ATOM      1  C   UNL     1       2.088   6.198  17.896  0.00  0.00    +0.000 C 
ATOM      2  C   UNL     1       2.796   7.310  18.140  0.00  0.00    +0.000 C 
ENDROOT
BRANCH   1   8
ATOM      3  C   UNL     1       2.053   3.787  18.817  0.00  0.00    +0.000 A 
ATOM      4  C   UNL     1       2.593   2.492  18.745  0.00  0.00    +0.000 A 
ATOM      5  C   UNL     1       3.658   2.207  17.890  0.00  0.00    +0.000 A 
ATOM      6  C   UNL     1       4.217   3.216  17.118  0.00  0.00    +0.000 A 
ATOM      7  C   UNL     1       3.693   4.507  17.185  0.00  0.00    +0.000 A 
ATOM      8  C   UNL     1       2.591   4.812  18.009  0.00  0.00    +0.000 A 
BRANCH   3  10
ATOM      9  C   UNL     1       1.372   4.096  21.075  0.00  0.00    +0.000 C 
ATOM     10  O   UNL     1       1.042   4.114  19.689  0.00  0.00    +0.000 OA
ENDBRANCH   3  10
ENDBRANCH   1   8
BRANCH   2  11
ATOM     11  C   UNL     1       2.107   8.631  18.192  0.00  0.00    +0.000 C 
ATOM     12  O   UNL     1       2.063   9.390  17.233  0.00  0.00    +0.000 OA
BRANCH  11  13
ATOM     13  C   UNL     1       1.387   8.957  19.448  0.00  0.00    +0.000 A 
ATOM     14  C   UNL     1       0.443   9.991  19.499  0.00  0.00    +0.000 A 
ATOM     15  C   UNL     1      -0.223  10.267  20.695  0.00  0.00    +0.000 A 
ATOM     16  C   UNL     1       0.050   9.509  21.834  0.00  0.00    +0.000 A 
ATOM     17 CL   UNL     1      -0.770   9.858  23.305  0.00  0.00    +0.000 Cl
ATOM     18  C   UNL     1       0.978   8.469  21.787  0.00  0.00    +0.000 A 
ATOM     19  C   UNL     1       1.643   8.187  20.589  0.00  0.00    +0.000 A 
ENDBRANCH  11  13
ENDBRANCH   2  11
TORSDOF 4
ENDMDL
