MODEL 1
REMARK VINA RESULT:      -8.6      0.000      0.000
REMARK  Name = 
REMARK  6 active torsions:
REMARK  status: ('A' for Active; 'I' for Inactive)
REMARK    1  A    between atoms: C_1  and  O_2
REMARK    2  A    between atoms: O_2  and  C_3
REMARK    3  A    between atoms: C_7  and  C_8
REMARK    4  A    between atoms: C_8  and  N_9
REMARK    5  A    between atoms: C_10  and  C_12
REMARK    6  A    between atoms: C_19  and  C_20
REMARK                            x       y       z     vdW  Elec       q    Type
REMARK                         _______ _______ _______ _____ _____    ______ ____
ROOT
ATOM      1  C   UNL     1       3.438   4.545  18.714  0.00  0.00    +0.000 A 
ATOM      2  C   UNL     1       3.280   3.801  19.905  0.00  0.00    +0.000 A 
ATOM      3  N   UNL     1       2.256   3.863  20.902  0.00  0.00    +0.000 N 
ATOM      4  O   UNL     1       2.036   4.986  21.385  0.00  0.00    +0.000 OA
ATOM      5  O   UNL     1       1.646   2.821  21.173  0.00  0.00    +0.000 OA
ATOM      6  N   UNL     1       4.281   2.952  20.139  0.00  0.00    +0.000 NA
ATOM      7  O   UNL     1       5.131   3.119  19.063  0.00  0.00    +0.000 OA
ATOM      8  C   UNL     1       4.619   4.038  18.185  0.00  0.00    +0.000 A 
ENDROOT
BRANCH   8   9
ATOM      9  C   UNL     1       5.467   4.310  17.014  0.00  0.00    +0.000 A 
ATOM     10  C   UNL     1       5.001   3.952  15.734  0.00  0.00    +0.000 A 
ATOM     11  C   UNL     1       5.745   4.227  14.581  0.00  0.00    +0.000 A 
ATOM     12  C   UNL     1       6.964   4.883  14.682  0.00  0.00    +0.000 A 
ATOM     13 CL   UNL     1       7.865   5.247  13.264  0.00  0.00    +0.000 Cl
ATOM     14  C   UNL     1       7.458   5.246  15.929  0.00  0.00    +0.000 A 
ATOM     15  C   UNL     1       6.725   4.951  17.088  0.00  0.00    +0.000 A 
ATOM     16 CL   UNL     1       7.488   5.386  18.584  0.00  0.00    +0.000 Cl
ENDBRANCH   8   9
BRANCH   1  18
ATOM     17  N   UNL     1       3.055   6.828  18.153  0.00  0.00    +0.000 N 
ATOM     18  C   UNL     1       2.570   5.543  18.132  0.00  0.00    +0.000 C 
ATOM     19  O   UNL     1       1.486   5.249  17.644  0.00  0.00    +0.000 OA
ATOM     20  H   UNL     1       3.990   7.031  18.491  0.00  0.00    +0.000 HD
BRANCH  17  21
ATOM     21  C   UNL     1       2.317   7.947  17.611  0.00  0.00    +0.000 C 
BRANCH  21  26
ATOM     22  C   UNL     1       1.001   9.069  21.018  0.00  0.00    +0.000 A 
ATOM     23  C   UNL     1       0.131  10.091  20.636  0.00  0.00    +0.000 A 
ATOM     24  C   UNL     1      -0.014  10.435  19.293  0.00  0.00    +0.000 A 
ATOM     25  C   UNL     1       0.711   9.753  18.318  0.00  0.00    +0.000 A 
ATOM     26  C   UNL     1       1.583   8.717  18.678  0.00  0.00    +0.000 A 
ATOM     27  C   UNL     1       1.722   8.382  20.038  0.00  0.00    +0.000 A 
BRANCH  22  29
ATOM     28  C   UNL     1       0.057   9.470  23.165  0.00  0.00    +0.000 C 
ATOM     29  O   UNL     1       1.043   8.830  22.365  0.00  0.00    +0.000 OA
ENDBRANCH  22  29
ENDBRANCH  21  26
ENDBRANCH  17  21
ENDBRANCH   1  18
TORSDOF 5
ENDMDL
MODEL 2
REMARK VINA RESULT:      -8.5      0.905      1.568
REMARK  Name = 
REMARK  6 active torsions:
REMARK  status: ('A' for Active; 'I' for Inactive)
REMARK    1  A    between atoms: C_1  and  O_2
REMARK    2  A    between atoms: O_2  and  C_3
REMARK    3  A    between atoms: C_7  and  C_8
REMARK    4  A    between atoms: C_8  and  N_9
REMARK    5  A    between atoms: C_10  and  C_12
REMARK    6  A    between atoms: C_19  and  C_20
REMARK                            x       y       z     vdW  Elec       q    Type
REMARK                         _______ _______ _______ _____ _____    ______ ____
ROOT
ATOM      1  C   UNL     1       3.511   4.425  18.749  0.00  0.00    +0.000 A 
ATOM      2  C   UNL     1       3.342   3.603  19.884  0.00  0.00    +0.000 A 
ATOM      3  N   UNL     1       2.342   3.638  20.908  0.00  0.00    +0.000 N 
ATOM      4  O   UNL     1       2.188   4.732  21.478  0.00  0.00    +0.000 OA
ATOM      5  O   UNL     1       1.688   2.610  21.117  0.00  0.00    +0.000 OA
ATOM      6  N   UNL     1       4.304   2.691  20.031  0.00  0.00    +0.000 NA
ATOM      7  O   UNL     1       5.139   2.899  18.949  0.00  0.00    +0.000 OA
ATOM      8  C   UNL     1       4.654   3.904  18.154  0.00  0.00    +0.000 A 
ENDROOT
BRANCH   8   9
ATOM      9  C   UNL     1       5.490   4.222  16.987  0.00  0.00    +0.000 A 
ATOM     10  C   UNL     1       5.032   3.872  15.701  0.00  0.00    +0.000 A 
ATOM     11  C   UNL     1       5.763   4.190  14.551  0.00  0.00    +0.000 A 
ATOM     12  C   UNL     1       6.962   4.882  14.662  0.00  0.00    +0.000 A 
ATOM     13 CL   UNL     1       7.847   5.298  13.247  0.00  0.00    +0.000 Cl
ATOM     14  C   UNL     1       7.448   5.239  15.913  0.00  0.00    +0.000 A 
ATOM     15  C   UNL     1       6.728   4.902  17.069  0.00  0.00    +0.000 A 
ATOM     16 CL   UNL     1       7.480   5.334  18.570  0.00  0.00    +0.000 Cl
ENDBRANCH   8   9
BRANCH   1  18
ATOM     17  N   UNL     1       3.194   6.767  18.443  0.00  0.00    +0.000 N 
ATOM     18  C   UNL     1       2.681   5.505  18.263  0.00  0.00    +0.000 C 
ATOM     19  O   UNL     1       1.605   5.296  17.718  0.00  0.00    +0.000 OA
ATOM     20  H   UNL     1       4.123   6.907  18.825  0.00  0.00    +0.000 HD
BRANCH  17  21
ATOM     21  C   UNL     1       2.495   7.958  18.014  0.00  0.00    +0.000 C 
BRANCH  21  26
ATOM     22  C   UNL     1       0.065  10.225  19.900  0.00  0.00    +0.000 A 
ATOM     23  C   UNL     1       0.144   9.680  21.182  0.00  0.00    +0.000 A 
ATOM     24  C   UNL     1       0.954   8.574  21.435  0.00  0.00    +0.000 A 
ATOM     25  C   UNL     1       1.698   8.006  20.402  0.00  0.00    +0.000 A 
ATOM     26  C   UNL     1       1.642   8.544  19.110  0.00  0.00    +0.000 A 
ATOM     27  C   UNL     1       0.817   9.658  18.867  0.00  0.00    +0.000 A 
BRANCH  22  29
ATOM     28  C   UNL     1      -1.618  11.361  18.659  0.00  0.00    +0.000 C 
ATOM     29  O   UNL     1      -0.762  11.311  19.792  0.00  0.00    +0.000 OA
ENDBRANCH  22  29
ENDBRANCH  21  26
ENDBRANCH  17  21
ENDBRANCH   1  18
TORSDOF 5
ENDMDL
MODEL 3
REMARK VINA RESULT:      -7.9      1.509      2.035
REMARK  Name = 
REMARK  6 active torsions:
REMARK  status: ('A' for Active; 'I' for Inactive)
REMARK    1  A    between atoms: C_1  and  O_2
REMARK    2  A    between atoms: O_2  and  C_3
REMARK    3  A    between atoms: C_7  and  C_8
REMARK    4  A    between atoms: C_8  and  N_9
REMARK    5  A    between atoms: C_10  and  C_12
REMARK    6  A    between atoms: C_19  and  C_20
REMARK                            x       y       z     vdW  Elec       q    Type
REMARK                         _______ _______ _______ _____ _____    ______ ____
ROOT
ATOM      1  C   UNL     1       3.584   4.465  18.317  0.00  0.00    +0.000 A 
ATOM      2  C   UNL     1       2.788   3.475  18.934  0.00  0.00    +0.000 A 
ATOM      3  N   UNL     1       1.930   3.561  20.076  0.00  0.00    +0.000 N 
ATOM      4  O   UNL     1       2.447   4.017  21.110  0.00  0.00    +0.000 OA
ATOM      5  O   UNL     1       0.748   3.221  19.942  0.00  0.00    +0.000 OA
ATOM      6  N   UNL     1       2.911   2.269  18.378  0.00  0.00    +0.000 NA
ATOM      7  O   UNL     1       3.808   2.459  17.344  0.00  0.00    +0.000 OA
ATOM      8  C   UNL     1       4.185   3.774  17.271  0.00  0.00    +0.000 A 
ENDROOT
BRANCH   8   9
ATOM      9  C   UNL     1       5.164   4.077  16.216  0.00  0.00    +0.000 A 
ATOM     10  C   UNL     1       4.777   3.950  14.868  0.00  0.00    +0.000 A 
ATOM     11  C   UNL     1       5.653   4.267  13.822  0.00  0.00    +0.000 A 
ATOM     12  C   UNL     1       6.929   4.735  14.104  0.00  0.00    +0.000 A 
ATOM     13 CL   UNL     1       7.994   5.152  12.821  0.00  0.00    +0.000 Cl
ATOM     14  C   UNL     1       7.347   4.867  15.423  0.00  0.00    +0.000 A 
ATOM     15  C   UNL     1       6.480   4.529  16.472  0.00  0.00    +0.000 A 
ATOM     16 CL   UNL     1       7.149   4.663  18.066  0.00  0.00    +0.000 Cl
ENDBRANCH   8   9
BRANCH   1  18
ATOM     17  N   UNL     1       2.935   6.714  17.870  0.00  0.00    +0.000 N 
ATOM     18  C   UNL     1       3.710   5.871  18.630  0.00  0.00    +0.000 C 
ATOM     19  O   UNL     1       4.448   6.269  19.523  0.00  0.00    +0.000 OA
ATOM     20  H   UNL     1       2.274   6.352  17.192  0.00  0.00    +0.000 HD
BRANCH  17  21
ATOM     21  C   UNL     1       2.939   8.148  18.054  0.00  0.00    +0.000 C 
BRANCH  21  26
ATOM     22  C   UNL     1      -0.185  10.005  19.236  0.00  0.00    +0.000 A 
ATOM     23  C   UNL     1      -0.273   9.551  20.553  0.00  0.00    +0.000 A 
ATOM     24  C   UNL     1       0.651   8.634  21.051  0.00  0.00    +0.000 A 
ATOM     25  C   UNL     1       1.677   8.166  20.233  0.00  0.00    +0.000 A 
ATOM     26  C   UNL     1       1.791   8.616  18.911  0.00  0.00    +0.000 A 
ATOM     27  C   UNL     1       0.849   9.539  18.419  0.00  0.00    +0.000 A 
BRANCH  22  29
ATOM     28  C   UNL     1      -2.228  10.420  18.089  0.00  0.00    +0.000 C 
ATOM     29  O   UNL     1      -1.150  10.907  18.878  0.00  0.00    +0.000 OA
ENDBRANCH  22  29
ENDBRANCH  21  26
ENDBRANCH  17  21
ENDBRANCH   1  18
TORSDOF 5
ENDMDL
MODEL 4
REMARK VINA RESULT:      -7.9      1.444      1.930
REMARK  Name = 
REMARK  6 active torsions:
REMARK  status: ('A' for Active; 'I' for Inactive)
REMARK    1  A    between atoms: C_1  and  O_2
REMARK    2  A    between atoms: O_2  and  C_3
REMARK    3  A    between atoms: C_7  and  C_8
REMARK    4  A    between atoms: C_8  and  N_9
REMARK    5  A    between atoms: C_10  and  C_12
REMARK    6  A    between atoms: C_19  and  C_20
REMARK                            x       y       z     vdW  Elec       q    Type
REMARK                         _______ _______ _______ _____ _____    ______ ____
ROOT
ATOM      1  C   UNL     1       3.474   5.151  18.194  0.00  0.00    +0.000 A 
ATOM      2  C   UNL     1       2.801   4.267  19.065  0.00  0.00    +0.000 A 
ATOM      3  N   UNL     1       1.889   4.541  20.134  0.00  0.00    +0.000 N 
ATOM      4  O   UNL     1       2.289   5.342  20.996  0.00  0.00    +0.000 OA
ATOM      5  O   UNL     1       0.775   4.005  20.099  0.00  0.00    +0.000 OA
ATOM      6  N   UNL     1       3.120   2.986  18.876  0.00  0.00    +0.000 NA
ATOM      7  O   UNL     1       4.026   3.010  17.833  0.00  0.00    +0.000 OA
ATOM      8  C   UNL     1       4.214   4.293  17.390  0.00  0.00    +0.000 A 
ENDROOT
BRANCH   8   9
ATOM      9  C   UNL     1       5.186   4.429  16.294  0.00  0.00    +0.000 A 
ATOM     10  C   UNL     1       4.760   4.206  14.970  0.00  0.00    +0.000 A 
ATOM     11  C   UNL     1       5.630   4.365  13.885  0.00  0.00    +0.000 A 
ATOM     12  C   UNL     1       6.941   4.768  14.101  0.00  0.00    +0.000 A 
ATOM     13 CL   UNL     1       8.001   4.992  12.766  0.00  0.00    +0.000 Cl
ATOM     14  C   UNL     1       7.398   4.992  15.393  0.00  0.00    +0.000 A 
ATOM     15  C   UNL     1       6.534   4.811  16.484  0.00  0.00    +0.000 A 
ATOM     16 CL   UNL     1       7.248   5.045  18.047  0.00  0.00    +0.000 Cl
ENDBRANCH   8   9
BRANCH   1  18
ATOM     17  N   UNL     1       2.198   7.136  18.525  0.00  0.00    +0.000 N 
ATOM     18  C   UNL     1       3.384   6.591  18.094  0.00  0.00    +0.000 C 
ATOM     19  O   UNL     1       4.312   7.267  17.668  0.00  0.00    +0.000 OA
ATOM     20  H   UNL     1       1.478   6.561  18.947  0.00  0.00    +0.000 HD
BRANCH  17  21
ATOM     21  C   UNL     1       1.942   8.559  18.497  0.00  0.00    +0.000 C 
BRANCH  21  26
ATOM     22  C   UNL     1      -0.456  10.522  20.732  0.00  0.00    +0.000 A 
ATOM     23  C   UNL     1      -0.193   9.937  21.971  0.00  0.00    +0.000 A 
ATOM     24  C   UNL     1       0.731   8.900  22.084  0.00  0.00    +0.000 A 
ATOM     25  C   UNL     1       1.405   8.442  20.954  0.00  0.00    +0.000 A 
ATOM     26  C   UNL     1       1.164   9.022  19.702  0.00  0.00    +0.000 A 
ATOM     27  C   UNL     1       0.226  10.066  19.601  0.00  0.00    +0.000 A 
BRANCH  22  29
ATOM     28  C   UNL     1      -1.316  12.498  19.722  0.00  0.00    +0.000 C 
ATOM     29  O   UNL     1      -1.379  11.532  20.763  0.00  0.00    +0.000 OA
ENDBRANCH  22  29
ENDBRANCH  21  26
ENDBRANCH  17  21
ENDBRANCH   1  18
TORSDOF 5
ENDMDL
MODEL 5
REMARK VINA RESULT:      -7.7      3.055      4.432
REMARK  Name = 
REMARK  6 active torsions:
REMARK  status: ('A' for Active; 'I' for Inactive)
REMARK    1  A    between atoms: C_1  and  O_2
REMARK    2  A    between atoms: O_2  and  C_3
REMARK    3  A    between atoms: C_7  and  C_8
REMARK    4  A    between atoms: C_8  and  N_9
REMARK    5  A    between atoms: C_10  and  C_12
REMARK    6  A    between atoms: C_19  and  C_20
REMARK                            x       y       z     vdW  Elec       q    Type
REMARK                         _______ _______ _______ _____ _____    ______ ____
ROOT
ATOM      1  C   UNL     1       5.525   6.004  17.877  0.00  0.00    +0.000 A 
ATOM      2  C   UNL     1       6.894   6.126  18.203  0.00  0.00    +0.000 A 
ATOM      3  N   UNL     1       7.834   7.151  17.865  0.00  0.00    +0.000 N 
ATOM      4  O   UNL     1       7.933   7.419  16.656  0.00  0.00    +0.000 OA
ATOM      5  O   UNL     1       8.436   7.714  18.788  0.00  0.00    +0.000 OA
ATOM      6  N   UNL     1       7.373   5.089  18.890  0.00  0.00    +0.000 NA
ATOM      7  O   UNL     1       6.287   4.249  19.044  0.00  0.00    +0.000 OA
ATOM      8  C   UNL     1       5.168   4.803  18.479  0.00  0.00    +0.000 A 
ENDROOT
BRANCH   8   9
ATOM      9  C   UNL     1       3.959   3.970  18.564  0.00  0.00    +0.000 A 
ATOM     10  C   UNL     1       3.815   2.881  17.683  0.00  0.00    +0.000 A 
ATOM     11  C   UNL     1       2.707   2.028  17.748  0.00  0.00    +0.000 A 
ATOM     12  C   UNL     1       1.727   2.236  18.710  0.00  0.00    +0.000 A 
ATOM     13 CL   UNL     1       0.381   1.171  18.810  0.00  0.00    +0.000 Cl
ATOM     14  C   UNL     1       1.833   3.303  19.593  0.00  0.00    +0.000 A 
ATOM     15  C   UNL     1       2.931   4.173  19.515  0.00  0.00    +0.000 A 
ATOM     16 CL   UNL     1       2.904   5.510  20.619  0.00  0.00    +0.000 Cl
ENDBRANCH   8   9
BRANCH   1  18
ATOM     17  N   UNL     1       3.611   7.423  17.876  0.00  0.00    +0.000 N 
ATOM     18  C   UNL     1       4.666   6.916  17.156  0.00  0.00    +0.000 C 
ATOM     19  O   UNL     1       4.883   7.220  15.989  0.00  0.00    +0.000 OA
ATOM     20  H   UNL     1       3.501   7.217  18.863  0.00  0.00    +0.000 HD
BRANCH  17  21
ATOM     21  C   UNL     1       2.657   8.349  17.309  0.00  0.00    +0.000 C 
BRANCH  21  26
ATOM     22  C   UNL     1       0.939   9.036  20.652  0.00  0.00    +0.000 A 
ATOM     23  C   UNL     1      -0.099   9.873  20.243  0.00  0.00    +0.000 A 
ATOM     24  C   UNL     1      -0.232  10.236  18.904  0.00  0.00    +0.000 A 
ATOM     25  C   UNL     1       0.674   9.758  17.960  0.00  0.00    +0.000 A 
ATOM     26  C   UNL     1       1.718   8.908  18.347  0.00  0.00    +0.000 A 
ATOM     27  C   UNL     1       1.844   8.552  19.702  0.00  0.00    +0.000 A 
BRANCH  22  29
ATOM     28  C   UNL     1      -0.105   9.297  22.774  0.00  0.00    +0.000 C 
ATOM     29  O   UNL     1       0.950   8.754  21.992  0.00  0.00    +0.000 OA
ENDBRANCH  22  29
ENDBRANCH  21  26
ENDBRANCH  17  21
ENDBRANCH   1  18
TORSDOF 5
ENDMDL
MODEL 6
REMARK VINA RESULT:      -7.7      3.101      5.094
REMARK  Name = 
REMARK  6 active torsions:
REMARK  status: ('A' for Active; 'I' for Inactive)
REMARK    1  A    between atoms: C_1  and  O_2
REMARK    2  A    between atoms: O_2  and  C_3
REMARK    3  A    between atoms: C_7  and  C_8
REMARK    4  A    between atoms: C_8  and  N_9
REMARK    5  A    between atoms: C_10  and  C_12
REMARK    6  A    between atoms: C_19  and  C_20
REMARK                            x       y       z     vdW  Elec       q    Type
REMARK                         _______ _______ _______ _____ _____    ______ ____
ROOT
ATOM      1  C   UNL     1       4.838   5.115  17.022  0.00  0.00    +0.000 A 
ATOM      2  C   UNL     1       5.613   4.664  15.930  0.00  0.00    +0.000 A 
ATOM      3  N   UNL     1       6.334   5.407  14.942  0.00  0.00    +0.000 N 
ATOM      4  O   UNL     1       5.682   6.270  14.330  0.00  0.00    +0.000 OA
ATOM      5  O   UNL     1       7.540   5.171  14.803  0.00  0.00    +0.000 OA
ATOM      6  N   UNL     1       5.618   3.338  15.791  0.00  0.00    +0.000 NA
ATOM      7  O   UNL     1       4.832   2.882  16.832  0.00  0.00    +0.000 OA
ATOM      8  C   UNL     1       4.394   3.931  17.598  0.00  0.00    +0.000 A 
ENDROOT
BRANCH   8   9
ATOM      9  C   UNL     1       3.522   3.551  18.720  0.00  0.00    +0.000 A 
ATOM     10  C   UNL     1       4.098   2.971  19.867  0.00  0.00    +0.000 A 
ATOM     11  C   UNL     1       3.324   2.631  20.983  0.00  0.00    +0.000 A 
ATOM     12  C   UNL     1       1.958   2.882  20.981  0.00  0.00    +0.000 A 
ATOM     13 CL   UNL     1       1.012   2.491  22.362  0.00  0.00    +0.000 Cl
ATOM     14  C   UNL     1       1.355   3.448  19.865  0.00  0.00    +0.000 A 
ATOM     15  C   UNL     1       2.125   3.768  18.737  0.00  0.00    +0.000 A 
ATOM     16 CL   UNL     1       1.241   4.395  17.383  0.00  0.00    +0.000 Cl
ENDBRANCH   8   9
BRANCH   1  18
ATOM     17  N   UNL     1       3.321   6.928  17.315  0.00  0.00    +0.000 N 
ATOM     18  C   UNL     1       4.602   6.463  17.488  0.00  0.00    +0.000 C 
ATOM     19  O   UNL     1       5.487   7.128  18.012  0.00  0.00    +0.000 OA
ATOM     20  H   UNL     1       2.589   6.328  16.951  0.00  0.00    +0.000 HD
BRANCH  17  21
ATOM     21  C   UNL     1       2.914   8.253  17.726  0.00  0.00    +0.000 C 
BRANCH  21  26
ATOM     22  C   UNL     1       0.521   9.306  20.514  0.00  0.00    +0.000 A 
ATOM     23  C   UNL     1       0.622   8.209  21.370  0.00  0.00    +0.000 A 
ATOM     24  C   UNL     1       1.435   7.124  21.042  0.00  0.00    +0.000 A 
ATOM     25  C   UNL     1       2.159   7.133  19.851  0.00  0.00    +0.000 A 
ATOM     26  C   UNL     1       2.080   8.229  18.982  0.00  0.00    +0.000 A 
ATOM     27  C   UNL     1       1.253   9.315  19.323  0.00  0.00    +0.000 A 
BRANCH  22  29
ATOM     28  C   UNL     1      -0.490  10.408  22.364  0.00  0.00    +0.000 C 
ATOM     29  O   UNL     1      -0.306  10.301  20.959  0.00  0.00    +0.000 OA
ENDBRANCH  22  29
ENDBRANCH  21  26
ENDBRANCH  17  21
ENDBRANCH   1  18
TORSDOF 5
ENDMDL
MODEL 7
REMARK VINA RESULT:      -7.6      3.270      4.732
REMARK  Name = 
REMARK  6 active torsions:
REMARK  status: ('A' for Active; 'I' for Inactive)
REMARK    1  A    between atoms: C_1  and  O_2
REMARK    2  A    between atoms: O_2  and  C_3
REMARK    3  A    between atoms: C_7  and  C_8
REMARK    4  A    between atoms: C_8  and  N_9
REMARK    5  A    between atoms: C_10  and  C_12
REMARK    6  A    between atoms: C_19  and  C_20
REMARK                            x       y       z     vdW  Elec       q    Type
REMARK                         _______ _______ _______ _____ _____    ______ ____
ROOT
ATOM      1  C   UNL     1       5.538   6.005  17.867  0.00  0.00    +0.000 A 
ATOM      2  C   UNL     1       6.909   6.111  18.188  0.00  0.00    +0.000 A 
ATOM      3  N   UNL     1       7.857   7.131  17.859  0.00  0.00    +0.000 N 
ATOM      4  O   UNL     1       7.953   7.415  16.653  0.00  0.00    +0.000 OA
ATOM      5  O   UNL     1       8.469   7.676  18.786  0.00  0.00    +0.000 OA
ATOM      6  N   UNL     1       7.382   5.060  18.859  0.00  0.00    +0.000 NA
ATOM      7  O   UNL     1       6.288   4.228  19.006  0.00  0.00    +0.000 OA
ATOM      8  C   UNL     1       5.172   4.800  18.455  0.00  0.00    +0.000 A 
ENDROOT
BRANCH   8   9
ATOM      9  C   UNL     1       3.956   3.977  18.535  0.00  0.00    +0.000 A 
ATOM     10  C   UNL     1       3.791   2.909  17.631  0.00  0.00    +0.000 A 
ATOM     11  C   UNL     1       2.676   2.066  17.690  0.00  0.00    +0.000 A 
ATOM     12  C   UNL     1       1.709   2.261  18.667  0.00  0.00    +0.000 A 
ATOM     13 CL   UNL     1       0.354   1.208  18.758  0.00  0.00    +0.000 Cl
ATOM     14  C   UNL     1       1.835   3.308  19.572  0.00  0.00    +0.000 A 
ATOM     15  C   UNL     1       2.941   4.169  19.501  0.00  0.00    +0.000 A 
ATOM     16 CL   UNL     1       2.939   5.480  20.636  0.00  0.00    +0.000 Cl
ENDBRANCH   8   9
BRANCH   1  18
ATOM     17  N   UNL     1       3.653   7.463  17.902  0.00  0.00    +0.000 N 
ATOM     18  C   UNL     1       4.684   6.935  17.163  0.00  0.00    +0.000 C 
ATOM     19  O   UNL     1       4.884   7.234  15.992  0.00  0.00    +0.000 OA
ATOM     20  H   UNL     1       3.558   7.259  18.891  0.00  0.00    +0.000 HD
BRANCH  17  21
ATOM     21  C   UNL     1       2.707   8.409  17.353  0.00  0.00    +0.000 C 
BRANCH  21  26
ATOM     22  C   UNL     1      -0.208  10.247  19.004  0.00  0.00    +0.000 A 
ATOM     23  C   UNL     1      -0.083   9.802  20.321  0.00  0.00    +0.000 A 
ATOM     24  C   UNL     1       0.916   8.895  20.672  0.00  0.00    +0.000 A 
ATOM     25  C   UNL     1       1.805   8.430  19.704  0.00  0.00    +0.000 A 
ATOM     26  C   UNL     1       1.704   8.872  18.379  0.00  0.00    +0.000 A 
ATOM     27  C   UNL     1       0.689   9.784  18.037  0.00  0.00    +0.000 A 
BRANCH  22  29
ATOM     28  C   UNL     1      -0.861  12.463  18.434  0.00  0.00    +0.000 C 
ATOM     29  O   UNL     1      -1.226  11.138  18.799  0.00  0.00    +0.000 OA
ENDBRANCH  22  29
ENDBRANCH  21  26
ENDBRANCH  17  21
ENDBRANCH   1  18
TORSDOF 5
ENDMDL
MODEL 8
REMARK VINA RESULT:      -7.6      3.140      4.775
REMARK  Name = 
REMARK  6 active torsions:
REMARK  status: ('A' for Active; 'I' for Inactive)
REMARK    1  A    between atoms: C_1  and  O_2
REMARK    2  A    between atoms: O_2  and  C_3
REMARK    3  A    between atoms: C_7  and  C_8
REMARK    4  A    between atoms: C_8  and  N_9
REMARK    5  A    between atoms: C_10  and  C_12
REMARK    6  A    between atoms: C_19  and  C_20
REMARK                            x       y       z     vdW  Elec       q    Type
REMARK                         _______ _______ _______ _____ _____    ______ ____
ROOT
ATOM      1  C   UNL     1       5.713   6.054  17.925  0.00  0.00    +0.000 A 
ATOM      2  C   UNL     1       7.080   6.235  18.232  0.00  0.00    +0.000 A 
ATOM      3  N   UNL     1       7.965   7.309  17.900  0.00  0.00    +0.000 N 
ATOM      4  O   UNL     1       8.031   7.605  16.695  0.00  0.00    +0.000 OA
ATOM      5  O   UNL     1       8.555   7.882  18.824  0.00  0.00    +0.000 OA
ATOM      6  N   UNL     1       7.618   5.208  18.890  0.00  0.00    +0.000 NA
ATOM      7  O   UNL     1       6.575   4.315  19.044  0.00  0.00    +0.000 OA
ATOM      8  C   UNL     1       5.423   4.826  18.508  0.00  0.00    +0.000 A 
ENDROOT
BRANCH   8   9
ATOM      9  C   UNL     1       4.255   3.936  18.595  0.00  0.00    +0.000 A 
ATOM     10  C   UNL     1       3.696   3.663  19.859  0.00  0.00    +0.000 A 
ATOM     11  C   UNL     1       2.559   2.859  19.999  0.00  0.00    +0.000 A 
ATOM     12  C   UNL     1       1.945   2.326  18.874  0.00  0.00    +0.000 A 
ATOM     13 CL   UNL     1       0.531   1.362  19.042  0.00  0.00    +0.000 Cl
ATOM     14  C   UNL     1       2.471   2.569  17.611  0.00  0.00    +0.000 A 
ATOM     15  C   UNL     1       3.625   3.355  17.471  0.00  0.00    +0.000 A 
ATOM     16 CL   UNL     1       4.224   3.516  15.852  0.00  0.00    +0.000 Cl
ENDBRANCH   8   9
BRANCH   1  18
ATOM     17  N   UNL     1       3.753   7.407  17.992  0.00  0.00    +0.000 N 
ATOM     18  C   UNL     1       4.800   6.938  17.236  0.00  0.00    +0.000 C 
ATOM     19  O   UNL     1       4.968   7.252  16.064  0.00  0.00    +0.000 OA
ATOM     20  H   UNL     1       3.683   7.195  18.981  0.00  0.00    +0.000 HD
BRANCH  17  21
ATOM     21  C   UNL     1       2.750   8.302  17.460  0.00  0.00    +0.000 C 
BRANCH  21  26
ATOM     22  C   UNL     1      -0.076  10.174  19.225  0.00  0.00    +0.000 A 
ATOM     23  C   UNL     1       0.022   9.638  20.510  0.00  0.00    +0.000 A 
ATOM     24  C   UNL     1       0.974   8.663  20.802  0.00  0.00    +0.000 A 
ATOM     25  C   UNL     1       1.841   8.217  19.807  0.00  0.00    +0.000 A 
ATOM     26  C   UNL     1       1.768   8.749  18.513  0.00  0.00    +0.000 A 
ATOM     27  C   UNL     1       0.800   9.730  18.230  0.00  0.00    +0.000 A 
BRANCH  22  29
ATOM     28  C   UNL     1      -0.656  12.364  18.499  0.00  0.00    +0.000 C 
ATOM     29  O   UNL     1      -1.048  11.126  19.077  0.00  0.00    +0.000 OA
ENDBRANCH  22  29
ENDBRANCH  21  26
ENDBRANCH  17  21
ENDBRANCH   1  18
TORSDOF 5
ENDMDL
MODEL 9
REMARK VINA RESULT:      -7.5      1.208      1.244
REMARK  Name = 
REMARK  6 active torsions:
REMARK  status: ('A' for Active; 'I' for Inactive)
REMARK    1  A    between atoms: C_1  and  O_2
REMARK    2  A    between atoms: O_2  and  C_3
REMARK    3  A    between atoms: C_7  and  C_8
REMARK    4  A    between atoms: C_8  and  N_9
REMARK    5  A    between atoms: C_10  and  C_12
REMARK    6  A    between atoms: C_19  and  C_20
REMARK                            x       y       z     vdW  Elec       q    Type
REMARK                         _______ _______ _______ _____ _____    ______ ____
ROOT
ATOM      1  C   UNL     1       3.469   5.485  18.219  0.00  0.00    +0.000 A 
ATOM      2  C   UNL     1       2.859   4.688  19.213  0.00  0.00    +0.000 A 
ATOM      3  N   UNL     1       1.936   5.048  20.245  0.00  0.00    +0.000 N 
ATOM      4  O   UNL     1       2.286   5.984  20.984  0.00  0.00    +0.000 OA
ATOM      5  O   UNL     1       0.859   4.441  20.300  0.00  0.00    +0.000 OA
ATOM      6  N   UNL     1       3.261   3.416  19.197  0.00  0.00    +0.000 NA
ATOM      7  O   UNL     1       4.158   3.354  18.148  0.00  0.00    +0.000 OA
ATOM      8  C   UNL     1       4.260   4.573  17.531  0.00  0.00    +0.000 A 
ENDROOT
BRANCH   8   9
ATOM      9  C   UNL     1       5.217   4.619  16.414  0.00  0.00    +0.000 A 
ATOM     10  C   UNL     1       4.782   4.250  15.126  0.00  0.00    +0.000 A 
ATOM     11  C   UNL     1       5.636   4.317  14.018  0.00  0.00    +0.000 A 
ATOM     12  C   UNL     1       6.939   4.772  14.174  0.00  0.00    +0.000 A 
ATOM     13 CL   UNL     1       7.978   4.882  12.809  0.00  0.00    +0.000 Cl
ATOM     14  C   UNL     1       7.403   5.139  15.430  0.00  0.00    +0.000 A 
ATOM     15  C   UNL     1       6.557   5.051  16.546  0.00  0.00    +0.000 A 
ATOM     16 CL   UNL     1       7.282   5.462  18.067  0.00  0.00    +0.000 Cl
ENDBRANCH   8   9
BRANCH   1  18
ATOM     17  N   UNL     1       1.981   7.324  17.933  0.00  0.00    +0.000 N 
ATOM     18  C   UNL     1       3.285   6.888  17.924  0.00  0.00    +0.000 C 
ATOM     19  O   UNL     1       4.233   7.630  17.697  0.00  0.00    +0.000 OA
ATOM     20  H   UNL     1       1.223   6.707  18.202  0.00  0.00    +0.000 HD
BRANCH  17  21
ATOM     21  C   UNL     1       1.620   8.697  17.661  0.00  0.00    +0.000 C 
BRANCH  21  26
ATOM     22  C   UNL     1       0.796   9.522  21.300  0.00  0.00    +0.000 A 
ATOM     23  C   UNL     1       0.665  10.909  21.228  0.00  0.00    +0.000 A 
ATOM     24  C   UNL     1       0.865  11.580  20.022  0.00  0.00    +0.000 A 
ATOM     25  C   UNL     1       1.195  10.863  18.874  0.00  0.00    +0.000 A 
ATOM     26  C   UNL     1       1.321   9.468  18.921  0.00  0.00    +0.000 A 
ATOM     27  C   UNL     1       1.120   8.804  20.145  0.00  0.00    +0.000 A 
BRANCH  22  29
ATOM     28  C   UNL     1      -0.361   9.674  23.374  0.00  0.00    +0.000 C 
ATOM     29  O   UNL     1       0.567   8.992  22.541  0.00  0.00    +0.000 OA
ENDBRANCH  22  29
ENDBRANCH  21  26
ENDBRANCH  17  21
ENDBRANCH   1  18
TORSDOF 5
ENDMDL
