MODEL 1
REMARK VINA RESULT:      -8.0      0.000      0.000
REMARK  Name = 
REMARK  8 active torsions:
REMARK  status: ('A' for Active; 'I' for Inactive)
REMARK    1  A    between atoms: C_1  and  O_2
REMARK    2  A    between atoms: O_2  and  C_3
REMARK    3  A    between atoms: C_6  and  C_7
REMARK    4  A    between atoms: C_7  and  C_8
REMARK    5  A    between atoms: C_8  and  O_10
REMARK    6  A    between atoms: C_12  and  C_13
REMARK    7  A    between atoms: C_22  and  C_24
REMARK    8  A    between atoms: C_24  and  C_25
REMARK                            x       y       z     vdW  Elec       q    Type
REMARK                         _______ _______ _______ _____ _____    ______ ____
ROOT
ATOM      1  C   UNL     1       3.766   4.032  17.615  0.00  0.00    +0.000 A 
ATOM      2  C   UNL     1       3.703   2.617  17.645  0.00  0.00    +0.000 A 
ATOM      3  C   UNL     1       2.667   1.915  18.276  0.00  0.00    +0.000 A 
ATOM      4  C   UNL     1       1.781   2.610  19.074  0.00  0.00    +0.000 A 
ATOM      5  F   UNL     1       0.893   1.943  19.823  0.00  0.00    +0.000 F 
ATOM      6  C   UNL     1       1.858   3.992  19.134  0.00  0.00    +0.000 A 
ATOM      7  C   UNL     1       2.678   4.694  18.222  0.00  0.00    +0.000 A 
ATOM      8  C   UNL     1       2.245   6.127  17.977  0.00  0.00    +0.000 C 
ATOM      9  N   UNL     1       2.115   6.894  19.216  0.00  0.00    +0.000 N 
ATOM     10  C   UNL     1       1.978   8.274  19.290  0.00  0.00    +0.000 C 
ATOM     11  O   UNL     1       1.608   8.827  20.328  0.00  0.00    +0.000 OA
ATOM     12  C   UNL     1       2.022   6.096  20.449  0.00  0.00    +0.000 C 
ATOM     13  C   UNL     1       1.233   4.784  20.259  0.00  0.00    +0.000 C 
ENDROOT
BRANCH   1  19
ATOM     14  C   UNL     1       5.529   4.654  15.828  0.00  0.00    +0.000 A 
ATOM     15  C   UNL     1       6.763   5.242  15.501  0.00  0.00    +0.000 A 
ATOM     16  C   UNL     1       7.519   5.918  16.449  0.00  0.00    +0.000 A 
ATOM     17  C   UNL     1       7.064   6.023  17.761  0.00  0.00    +0.000 A 
ATOM     18  C   UNL     1       5.836   5.413  18.099  0.00  0.00    +0.000 A 
ATOM     19  C   UNL     1       5.017   4.736  17.149  0.00  0.00    +0.000 A 
BRANCH  14  21
ATOM     20  C   UNL     1       5.376   3.875  13.583  0.00  0.00    +0.000 C 
ATOM     21  O   UNL     1       4.772   4.016  14.872  0.00  0.00    +0.000 OA
ENDBRANCH  14  21
BRANCH  17  22
ATOM     22  C   UNL     1       7.901   6.791  18.760  0.00  0.00    +0.000 C 
BRANCH  22  23
ATOM     23  C   UNL     1       8.190   8.225  18.358  0.00  0.00    +0.000 C 
ATOM     24  O   UNL     1       7.762   8.785  17.362  0.00  0.00    +0.000 OA
BRANCH  23  25
ATOM     25  O   UNL     1       9.040   8.848  19.210  0.00  0.00    +0.000 OA
ATOM     26  H   UNL     1       8.614   9.477  19.824  0.00  0.00    +0.000 HD
ENDBRANCH  23  25
ENDBRANCH  22  23
ENDBRANCH  17  22
ENDBRANCH   1  19
BRANCH  10  27
ATOM     27  C   UNL     1       2.433   9.126  18.113  0.00  0.00    +0.000 C 
BRANCH  27  28
ATOM     28  C   UNL     1       1.581  10.314  17.622  0.00  0.00    +0.000 C 
ATOM     29  C   UNL     1       2.293  11.635  18.028  0.00  0.00    +0.000 C 
ATOM     30  C   UNL     1       2.150  11.899  19.527  0.00  0.00    +0.000 C 
ATOM     31  C   UNL     1       0.687  12.125  19.887  0.00  0.00    +0.000 C 
ATOM     32  C   UNL     1      -0.261  11.198  19.171  0.00  0.00    +0.000 A 
ATOM     33  C   UNL     1      -1.620  11.264  19.504  0.00  0.00    +0.000 A 
ATOM     34  C   UNL     1      -2.517  10.485  18.794  0.00  0.00    +0.000 A 
ATOM     35  N   UNL     1      -2.161   9.672  17.789  0.00  0.00    +0.000 NA
ATOM     36  C   UNL     1      -0.840   9.609  17.484  0.00  0.00    +0.000 A 
ATOM     37  C   UNL     1       0.148  10.356  18.120  0.00  0.00    +0.000 A 
ENDBRANCH  27  28
ENDBRANCH  10  27
TORSDOF 7
ENDMDL
MODEL 2
REMARK VINA RESULT:      -7.8      7.269     11.427
REMARK  Name = 
REMARK  8 active torsions:
REMARK  status: ('A' for Active; 'I' for Inactive)
REMARK    1  A    between atoms: C_1  and  O_2
REMARK    2  A    between atoms: O_2  and  C_3
REMARK    3  A    between atoms: C_6  and  C_7
REMARK    4  A    between atoms: C_7  and  C_8
REMARK    5  A    between atoms: C_8  and  O_10
REMARK    6  A    between atoms: C_12  and  C_13
REMARK    7  A    between atoms: C_22  and  C_24
REMARK    8  A    between atoms: C_24  and  C_25
REMARK                            x       y       z     vdW  Elec       q    Type
REMARK                         _______ _______ _______ _____ _____    ______ ____
ROOT
ATOM      1  C   UNL     1      -0.815  15.337  23.024  0.00  0.00    +0.000 A 
ATOM      2  C   UNL     1      -0.438  16.260  24.030  0.00  0.00    +0.000 A 
ATOM      3  C   UNL     1       0.754  16.997  23.978  0.00  0.00    +0.000 A 
ATOM      4  C   UNL     1       1.697  16.672  23.023  0.00  0.00    +0.000 A 
ATOM      5  F   UNL     1       2.909  17.241  23.063  0.00  0.00    +0.000 F 
ATOM      6  C   UNL     1       1.396  15.717  22.066  0.00  0.00    +0.000 A 
ATOM      7  C   UNL     1       0.070  15.248  21.929  0.00  0.00    +0.000 A 
ATOM      8  C   UNL     1      -0.256  14.712  20.548  0.00  0.00    +0.000 C 
ATOM      9  N   UNL     1       0.682  13.677  20.111  0.00  0.00    +0.000 N 
ATOM     10  C   UNL     1       0.496  12.841  19.018  0.00  0.00    +0.000 C 
ATOM     11  O   UNL     1       1.427  12.184  18.547  0.00  0.00    +0.000 OA
ATOM     12  C   UNL     1       1.953  13.621  20.851  0.00  0.00    +0.000 C 
ATOM     13  C   UNL     1       2.469  15.014  21.268  0.00  0.00    +0.000 C 
ENDROOT
BRANCH   1  19
ATOM     14  C   UNL     1      -1.853  12.977  23.218  0.00  0.00    +0.000 A 
ATOM     15  C   UNL     1      -2.995  12.162  23.313  0.00  0.00    +0.000 A 
ATOM     16  C   UNL     1      -4.267  12.706  23.435  0.00  0.00    +0.000 A 
ATOM     17  C   UNL     1      -4.436  14.088  23.460  0.00  0.00    +0.000 A 
ATOM     18  C   UNL     1      -3.294  14.910  23.340  0.00  0.00    +0.000 A 
ATOM     19  C   UNL     1      -1.970  14.391  23.243  0.00  0.00    +0.000 A 
BRANCH  14  21
ATOM     20  C   UNL     1      -0.512  11.143  22.505  0.00  0.00    +0.000 C 
ATOM     21  O   UNL     1      -0.595  12.425  23.132  0.00  0.00    +0.000 OA
ENDBRANCH  14  21
BRANCH  17  22
ATOM     22  C   UNL     1      -5.834  14.645  23.622  0.00  0.00    +0.000 C 
BRANCH  22  23
ATOM     23  C   UNL     1      -6.932  13.602  23.546  0.00  0.00    +0.000 C 
ATOM     24  O   UNL     1      -7.365  13.097  22.522  0.00  0.00    +0.000 OA
BRANCH  23  25
ATOM     25  O   UNL     1      -7.450  13.295  24.759  0.00  0.00    +0.000 OA
ATOM     26  H   UNL     1      -7.427  12.345  24.985  0.00  0.00    +0.000 HD
ENDBRANCH  23  25
ENDBRANCH  22  23
ENDBRANCH  17  22
ENDBRANCH   1  19
BRANCH  10  27
ATOM     27  C   UNL     1      -0.914  12.622  18.485  0.00  0.00    +0.000 C 
BRANCH  27  28
ATOM     28  C   UNL     1      -1.835  11.550  19.103  0.00  0.00    +0.000 C 
ATOM     29  C   UNL     1      -1.439  10.164  18.521  0.00  0.00    +0.000 C 
ATOM     30  C   UNL     1      -1.913  10.019  17.075  0.00  0.00    +0.000 C 
ATOM     31  C   UNL     1      -3.434  10.041  17.012  0.00  0.00    +0.000 C 
ATOM     32  C   UNL     1      -4.062  11.056  17.933  0.00  0.00    +0.000 A 
ATOM     33  C   UNL     1      -5.452  11.219  17.879  0.00  0.00    +0.000 A 
ATOM     34  C   UNL     1      -6.055  12.079  18.779  0.00  0.00    +0.000 A 
ATOM     35  N   UNL     1      -5.383  12.765  19.716  0.00  0.00    +0.000 NA
ATOM     36  C   UNL     1      -4.036  12.607  19.749  0.00  0.00    +0.000 A 
ATOM     37  C   UNL     1      -3.324  11.759  18.904  0.00  0.00    +0.000 A 
ENDBRANCH  27  28
ENDBRANCH  10  27
TORSDOF 7
ENDMDL
MODEL 3
REMARK VINA RESULT:      -7.8      5.589     11.703
REMARK  Name = 
REMARK  8 active torsions:
REMARK  status: ('A' for Active; 'I' for Inactive)
REMARK    1  A    between atoms: C_1  and  O_2
REMARK    2  A    between atoms: O_2  and  C_3
REMARK    3  A    between atoms: C_6  and  C_7
REMARK    4  A    between atoms: C_7  and  C_8
REMARK    5  A    between atoms: C_8  and  O_10
REMARK    6  A    between atoms: C_12  and  C_13
REMARK    7  A    between atoms: C_22  and  C_24
REMARK    8  A    between atoms: C_24  and  C_25
REMARK                            x       y       z     vdW  Elec       q    Type
REMARK                         _______ _______ _______ _____ _____    ______ ____
ROOT
ATOM      1  C   UNL     1      -1.936  16.554  20.729  0.00  0.00    +0.000 A 
ATOM      2  C   UNL     1      -2.653  17.695  20.292  0.00  0.00    +0.000 A 
ATOM      3  C   UNL     1      -2.460  18.277  19.031  0.00  0.00    +0.000 A 
ATOM      4  C   UNL     1      -1.395  17.859  18.260  0.00  0.00    +0.000 A 
ATOM      5  F   UNL     1      -1.087  18.516  17.135  0.00  0.00    +0.000 F 
ATOM      6  C   UNL     1      -0.619  16.795  18.690  0.00  0.00    +0.000 A 
ATOM      7  C   UNL     1      -1.046  16.006  19.783  0.00  0.00    +0.000 A 
ATOM      8  C   UNL     1      -0.490  14.595  19.780  0.00  0.00    +0.000 C 
ATOM      9  N   UNL     1       0.970  14.566  19.690  0.00  0.00    +0.000 N 
ATOM     10  C   UNL     1       1.762  13.447  19.914  0.00  0.00    +0.000 C 
ATOM     11  O   UNL     1       2.944  13.418  19.565  0.00  0.00    +0.000 OA
ATOM     12  C   UNL     1       1.601  15.811  19.224  0.00  0.00    +0.000 C 
ATOM     13  C   UNL     1       0.769  16.542  18.149  0.00  0.00    +0.000 C 
ENDROOT
BRANCH   1  19
ATOM     14  C   UNL     1      -0.964  16.365  23.118  0.00  0.00    +0.000 A 
ATOM     15  C   UNL     1      -1.036  15.825  24.414  0.00  0.00    +0.000 A 
ATOM     16  C   UNL     1      -2.107  15.036  24.812  0.00  0.00    +0.000 A 
ATOM     17  C   UNL     1      -3.141  14.759  23.922  0.00  0.00    +0.000 A 
ATOM     18  C   UNL     1      -3.060  15.281  22.612  0.00  0.00    +0.000 A 
ATOM     19  C   UNL     1      -1.993  16.118  22.173  0.00  0.00    +0.000 A 
BRANCH  14  21
ATOM     20  C   UNL     1       1.392  16.603  22.863  0.00  0.00    +0.000 C 
ATOM     21  O   UNL     1       0.086  17.174  22.746  0.00  0.00    +0.000 OA
ENDBRANCH  14  21
BRANCH  17  22
ATOM     22  C   UNL     1      -4.306  13.920  24.399  0.00  0.00    +0.000 C 
BRANCH  22  23
ATOM     23  C   UNL     1      -4.085  12.424  24.280  0.00  0.00    +0.000 C 
ATOM     24  O   UNL     1      -3.220  11.884  23.610  0.00  0.00    +0.000 OA
BRANCH  23  25
ATOM     25  O   UNL     1      -4.998  11.701  24.972  0.00  0.00    +0.000 OA
ATOM     26  H   UNL     1      -4.709  11.424  25.862  0.00  0.00    +0.000 HD
ENDBRANCH  23  25
ENDBRANCH  22  23
ENDBRANCH  17  22
ENDBRANCH   1  19
BRANCH  10  27
ATOM     27  C   UNL     1       1.198  12.294  20.733  0.00  0.00    +0.000 C 
BRANCH  27  28
ATOM     28  C   UNL     1       0.371  11.178  20.062  0.00  0.00    +0.000 C 
ATOM     29  C   UNL     1      -0.603  10.583  21.118  0.00  0.00    +0.000 C 
ATOM     30  C   UNL     1       0.142   9.699  22.118  0.00  0.00    +0.000 C 
ATOM     31  C   UNL     1       0.732   8.485  21.413  0.00  0.00    +0.000 C 
ATOM     32  C   UNL     1       1.329   8.800  20.066  0.00  0.00    +0.000 A 
ATOM     33  C   UNL     1       1.981   7.767  19.380  0.00  0.00    +0.000 A 
ATOM     34  C   UNL     1       2.455   8.013  18.103  0.00  0.00    +0.000 A 
ATOM     35  N   UNL     1       2.317   9.189  17.474  0.00  0.00    +0.000 NA
ATOM     36  C   UNL     1       1.694  10.184  18.154  0.00  0.00    +0.000 A 
ATOM     37  C   UNL     1       1.165  10.047  19.435  0.00  0.00    +0.000 A 
ENDBRANCH  27  28
ENDBRANCH  10  27
TORSDOF 7
ENDMDL
MODEL 4
REMARK VINA RESULT:      -7.7      4.885      7.337
REMARK  Name = 
REMARK  8 active torsions:
REMARK  status: ('A' for Active; 'I' for Inactive)
REMARK    1  A    between atoms: C_1  and  O_2
REMARK    2  A    between atoms: O_2  and  C_3
REMARK    3  A    between atoms: C_6  and  C_7
REMARK    4  A    between atoms: C_7  and  C_8
REMARK    5  A    between atoms: C_8  and  O_10
REMARK    6  A    between atoms: C_12  and  C_13
REMARK    7  A    between atoms: C_22  and  C_24
REMARK    8  A    between atoms: C_24  and  C_25
REMARK                            x       y       z     vdW  Elec       q    Type
REMARK                         _______ _______ _______ _____ _____    ______ ____
ROOT
ATOM      1  C   UNL     1       1.173  10.536  18.657  0.00  0.00    +0.000 A 
ATOM      2  C   UNL     1       1.897   9.954  17.587  0.00  0.00    +0.000 A 
ATOM      3  C   UNL     1       2.300   8.611  17.585  0.00  0.00    +0.000 A 
ATOM      4  C   UNL     1       2.172   7.875  18.745  0.00  0.00    +0.000 A 
ATOM      5  F   UNL     1       2.707   6.649  18.819  0.00  0.00    +0.000 F 
ATOM      6  C   UNL     1       1.540   8.436  19.842  0.00  0.00    +0.000 A 
ATOM      7  C   UNL     1       0.836   9.654  19.705  0.00  0.00    +0.000 A 
ATOM      8  C   UNL     1      -0.264   9.851  20.730  0.00  0.00    +0.000 C 
ATOM      9  N   UNL     1       0.217   9.711  22.104  0.00  0.00    +0.000 N 
ATOM     10  C   UNL     1      -0.493  10.077  23.240  0.00  0.00    +0.000 C 
ATOM     11  O   UNL     1      -0.153   9.692  24.361  0.00  0.00    +0.000 OA
ATOM     12  C   UNL     1       1.514   9.032  22.256  0.00  0.00    +0.000 C 
ATOM     13  C   UNL     1       1.717   7.888  21.239  0.00  0.00    +0.000 C 
ENDROOT
BRANCH   1  19
ATOM     14  C   UNL     1      -0.274  12.679  18.605  0.00  0.00    +0.000 A 
ATOM     15  C   UNL     1      -0.356  14.082  18.567  0.00  0.00    +0.000 A 
ATOM     16  C   UNL     1       0.779  14.878  18.650  0.00  0.00    +0.000 A 
ATOM     17  C   UNL     1       2.036  14.293  18.770  0.00  0.00    +0.000 A 
ATOM     18  C   UNL     1       2.125  12.883  18.785  0.00  0.00    +0.000 A 
ATOM     19  C   UNL     1       0.983  12.032  18.731  0.00  0.00    +0.000 A 
BRANCH  14  21
ATOM     20  C   UNL     1      -1.918  11.613  17.252  0.00  0.00    +0.000 C 
ATOM     21  O   UNL     1      -1.408  11.902  18.557  0.00  0.00    +0.000 OA
ENDBRANCH  14  21
BRANCH  17  22
ATOM     22  C   UNL     1       3.247  15.192  18.886  0.00  0.00    +0.000 C 
BRANCH  22  23
ATOM     23  C   UNL     1       3.102  16.526  18.179  0.00  0.00    +0.000 C 
ATOM     24  O   UNL     1       3.139  16.699  16.972  0.00  0.00    +0.000 OA
BRANCH  23  25
ATOM     25  O   UNL     1       2.968  17.564  19.039  0.00  0.00    +0.000 OA
ATOM     26  H   UNL     1       3.809  17.910  19.395  0.00  0.00    +0.000 HD
ENDBRANCH  23  25
ENDBRANCH  22  23
ENDBRANCH  17  22
ENDBRANCH   1  19
BRANCH  10  27
ATOM     27  C   UNL     1      -1.625  11.087  23.112  0.00  0.00    +0.000 C 
BRANCH  27  28
ATOM     28  C   UNL     1      -1.571  12.203  22.048  0.00  0.00    +0.000 C 
ATOM     29  C   UNL     1      -0.533  13.268  22.502  0.00  0.00    +0.000 C 
ATOM     30  C   UNL     1      -1.080  14.117  23.649  0.00  0.00    +0.000 C 
ATOM     31  C   UNL     1      -2.281  14.928  23.180  0.00  0.00    +0.000 C 
ATOM     32  C   UNL     1      -3.210  14.162  22.273  0.00  0.00    +0.000 A 
ATOM     33  C   UNL     1      -4.393  14.790  21.864  0.00  0.00    +0.000 A 
ATOM     34  C   UNL     1      -5.213  14.139  20.960  0.00  0.00    +0.000 A 
ATOM     35  N   UNL     1      -4.935  12.934  20.440  0.00  0.00    +0.000 NA
ATOM     36  C   UNL     1      -3.792  12.331  20.853  0.00  0.00    +0.000 A 
ATOM     37  C   UNL     1      -2.886  12.898  21.746  0.00  0.00    +0.000 A 
ENDBRANCH  27  28
ENDBRANCH  10  27
TORSDOF 7
ENDMDL
MODEL 5
REMARK VINA RESULT:      -7.6      6.811     10.762
REMARK  Name = 
REMARK  8 active torsions:
REMARK  status: ('A' for Active; 'I' for Inactive)
REMARK    1  A    between atoms: C_1  and  O_2
REMARK    2  A    between atoms: O_2  and  C_3
REMARK    3  A    between atoms: C_6  and  C_7
REMARK    4  A    between atoms: C_7  and  C_8
REMARK    5  A    between atoms: C_8  and  O_10
REMARK    6  A    between atoms: C_12  and  C_13
REMARK    7  A    between atoms: C_22  and  C_24
REMARK    8  A    between atoms: C_24  and  C_25
REMARK                            x       y       z     vdW  Elec       q    Type
REMARK                         _______ _______ _______ _____ _____    ______ ____
ROOT
ATOM      1  C   UNL     1      -1.266  11.780  22.766  0.00  0.00    +0.000 A 
ATOM      2  C   UNL     1      -1.165  10.541  23.445  0.00  0.00    +0.000 A 
ATOM      3  C   UNL     1      -0.320   9.507  23.018  0.00  0.00    +0.000 A 
ATOM      4  C   UNL     1       0.286   9.609  21.782  0.00  0.00    +0.000 A 
ATOM      5  F   UNL     1       0.955   8.563  21.279  0.00  0.00    +0.000 F 
ATOM      6  C   UNL     1       0.148  10.777  21.050  0.00  0.00    +0.000 A 
ATOM      7  C   UNL     1      -0.411  11.926  21.653  0.00  0.00    +0.000 A 
ATOM      8  C   UNL     1       0.023  13.232  21.016  0.00  0.00    +0.000 C 
ATOM      9  N   UNL     1      -0.221  13.262  19.574  0.00  0.00    +0.000 N 
ATOM     10  C   UNL     1      -0.157  14.397  18.776  0.00  0.00    +0.000 C 
ATOM     11  O   UNL     1      -0.108  14.316  17.547  0.00  0.00    +0.000 OA
ATOM     12  C   UNL     1      -0.446  11.952  18.941  0.00  0.00    +0.000 C 
ATOM     13  C   UNL     1       0.410  10.829  19.563  0.00  0.00    +0.000 C 
ENDROOT
BRANCH   1  19
ATOM     14  C   UNL     1      -2.154  13.965  23.827  0.00  0.00    +0.000 A 
ATOM     15  C   UNL     1      -3.242  14.767  24.213  0.00  0.00    +0.000 A 
ATOM     16  C   UNL     1      -4.549  14.409  23.910  0.00  0.00    +0.000 A 
ATOM     17  C   UNL     1      -4.809  13.233  23.212  0.00  0.00    +0.000 A 
ATOM     18  C   UNL     1      -3.720  12.413  22.844  0.00  0.00    +0.000 A 
ATOM     19  C   UNL     1      -2.362  12.758  23.111  0.00  0.00    +0.000 A 
BRANCH  14  21
ATOM     20  C   UNL     1      -0.661  15.735  24.383  0.00  0.00    +0.000 C 
ATOM     21  O   UNL     1      -0.861  14.347  24.103  0.00  0.00    +0.000 OA
ENDBRANCH  14  21
BRANCH  17  22
ATOM     22  C   UNL     1      -6.243  12.890  22.875  0.00  0.00    +0.000 C 
BRANCH  22  23
ATOM     23  C   UNL     1      -6.453  12.426  21.447  0.00  0.00    +0.000 C 
ATOM     24  O   UNL     1      -6.746  11.292  21.103  0.00  0.00    +0.000 OA
BRANCH  23  25
ATOM     25  O   UNL     1      -6.233  13.406  20.538  0.00  0.00    +0.000 OA
ATOM     26  H   UNL     1      -7.009  13.641  19.995  0.00  0.00    +0.000 HD
ENDBRANCH  23  25
ENDBRANCH  22  23
ENDBRANCH  17  22
ENDBRANCH   1  19
BRANCH  10  27
ATOM     27  C   UNL     1      -0.298  15.767  19.427  0.00  0.00    +0.000 C 
BRANCH  27  28
ATOM     28  C   UNL     1       0.937  16.660  19.665  0.00  0.00    +0.000 C 
ATOM     29  C   UNL     1       0.736  17.996  18.898  0.00  0.00    +0.000 C 
ATOM     30  C   UNL     1       0.923  17.801  17.393  0.00  0.00    +0.000 C 
ATOM     31  C   UNL     1       2.359  17.395  17.088  0.00  0.00    +0.000 C 
ATOM     32  C   UNL     1       2.930  16.408  18.072  0.00  0.00    +0.000 A 
ATOM     33  C   UNL     1       4.213  15.901  17.825  0.00  0.00    +0.000 A 
ATOM     34  C   UNL     1       4.789  15.064  18.764  0.00  0.00    +0.000 A 
ATOM     35  N   UNL     1       4.192  14.715  19.912  0.00  0.00    +0.000 NA
ATOM     36  C   UNL     1       2.946  15.203  20.135  0.00  0.00    +0.000 A 
ATOM     37  C   UNL     1       2.275  16.063  19.269  0.00  0.00    +0.000 A 
ENDBRANCH  27  28
ENDBRANCH  10  27
TORSDOF 7
ENDMDL
MODEL 6
REMARK VINA RESULT:      -7.6      6.892      9.889
REMARK  Name = 
REMARK  8 active torsions:
REMARK  status: ('A' for Active; 'I' for Inactive)
REMARK    1  A    between atoms: C_1  and  O_2
REMARK    2  A    between atoms: O_2  and  C_3
REMARK    3  A    between atoms: C_6  and  C_7
REMARK    4  A    between atoms: C_7  and  C_8
REMARK    5  A    between atoms: C_8  and  O_10
REMARK    6  A    between atoms: C_12  and  C_13
REMARK    7  A    between atoms: C_22  and  C_24
REMARK    8  A    between atoms: C_24  and  C_25
REMARK                            x       y       z     vdW  Elec       q    Type
REMARK                         _______ _______ _______ _____ _____    ______ ____
ROOT
ATOM      1  C   UNL     1      -2.808  12.006  19.027  0.00  0.00    +0.000 A 
ATOM      2  C   UNL     1      -3.126  11.200  17.906  0.00  0.00    +0.000 A 
ATOM      3  C   UNL     1      -4.442  10.985  17.473  0.00  0.00    +0.000 A 
ATOM      4  C   UNL     1      -5.484  11.399  18.277  0.00  0.00    +0.000 A 
ATOM      5  F   UNL     1      -6.741  11.053  17.971  0.00  0.00    +0.000 F 
ATOM      6  C   UNL     1      -5.212  12.124  19.425  0.00  0.00    +0.000 A 
ATOM      7  C   UNL     1      -3.910  12.627  19.652  0.00  0.00    +0.000 A 
ATOM      8  C   UNL     1      -3.866  13.845  20.554  0.00  0.00    +0.000 C 
ATOM      9  N   UNL     1      -4.538  13.620  21.834  0.00  0.00    +0.000 N 
ATOM     10  C   UNL     1      -4.446  14.453  22.941  0.00  0.00    +0.000 C 
ATOM     11  O   UNL     1      -5.235  14.357  23.884  0.00  0.00    +0.000 OA
ATOM     12  C   UNL     1      -5.454  12.469  21.876  0.00  0.00    +0.000 C 
ATOM     13  C   UNL     1      -6.213  12.255  20.549  0.00  0.00    +0.000 C 
ENDROOT
BRANCH   1  19
ATOM     14  C   UNL     1      -0.468  13.043  19.397  0.00  0.00    +0.000 A 
ATOM     15  C   UNL     1       0.850  12.916  19.867  0.00  0.00    +0.000 A 
ATOM     16  C   UNL     1       1.271  11.780  20.546  0.00  0.00    +0.000 A 
ATOM     17  C   UNL     1       0.385  10.730  20.771  0.00  0.00    +0.000 A 
ATOM     18  C   UNL     1      -0.934  10.845  20.279  0.00  0.00    +0.000 A 
ATOM     19  C   UNL     1      -1.413  12.005  19.603  0.00  0.00    +0.000 A 
BRANCH  14  21
ATOM     20  C   UNL     1       0.046  15.275  18.744  0.00  0.00    +0.000 C 
ATOM     21  O   UNL     1      -0.883  14.188  18.756  0.00  0.00    +0.000 OA
ENDBRANCH  14  21
BRANCH  17  22
ATOM     22  C   UNL     1       0.871   9.521  21.539  0.00  0.00    +0.000 C 
BRANCH  22  23
ATOM     23  C   UNL     1       0.123   9.262  22.832  0.00  0.00    +0.000 C 
ATOM     24  O   UNL     1       0.398   9.738  23.921  0.00  0.00    +0.000 OA
BRANCH  23  25
ATOM     25  O   UNL     1      -0.896   8.382  22.682  0.00  0.00    +0.000 OA
ATOM     26  H   UNL     1      -1.205   7.970  23.512  0.00  0.00    +0.000 HD
ENDBRANCH  23  25
ENDBRANCH  22  23
ENDBRANCH  17  22
ENDBRANCH   1  19
BRANCH  10  27
ATOM     27  C   UNL     1      -3.261  15.403  23.056  0.00  0.00    +0.000 C 
BRANCH  27  28
ATOM     28  C   UNL     1      -2.099  15.103  24.025  0.00  0.00    +0.000 C 
ATOM     29  C   UNL     1      -2.489  15.617  25.439  0.00  0.00    +0.000 C 
ATOM     30  C   UNL     1      -2.415  17.142  25.511  0.00  0.00    +0.000 C 
ATOM     31  C   UNL     1      -0.980  17.611  25.315  0.00  0.00    +0.000 C 
ATOM     32  C   UNL     1      -0.236  16.851  24.248  0.00  0.00    +0.000 A 
ATOM     33  C   UNL     1       1.062  17.269  23.927  0.00  0.00    +0.000 A 
ATOM     34  C   UNL     1       1.793  16.529  23.016  0.00  0.00    +0.000 A 
ATOM     35  N   UNL     1       1.333  15.417  22.423  0.00  0.00    +0.000 NA
ATOM     36  C   UNL     1       0.071  15.029  22.733  0.00  0.00    +0.000 A 
ATOM     37  C   UNL     1      -0.750  15.687  23.646  0.00  0.00    +0.000 A 
ENDBRANCH  27  28
ENDBRANCH  10  27
TORSDOF 7
ENDMDL
MODEL 7
REMARK VINA RESULT:      -7.5      8.039     10.114
REMARK  Name = 
REMARK  8 active torsions:
REMARK  status: ('A' for Active; 'I' for Inactive)
REMARK    1  A    between atoms: C_1  and  O_2
REMARK    2  A    between atoms: O_2  and  C_3
REMARK    3  A    between atoms: C_6  and  C_7
REMARK    4  A    between atoms: C_7  and  C_8
REMARK    5  A    between atoms: C_8  and  O_10
REMARK    6  A    between atoms: C_12  and  C_13
REMARK    7  A    between atoms: C_22  and  C_24
REMARK    8  A    between atoms: C_24  and  C_25
REMARK                            x       y       z     vdW  Elec       q    Type
REMARK                         _______ _______ _______ _____ _____    ______ ____
ROOT
ATOM      1  C   UNL     1       9.923  13.357  20.612  0.00  0.00    +0.000 A 
ATOM      2  C   UNL     1      10.973  12.407  20.572  0.00  0.00    +0.000 A 
ATOM      3  C   UNL     1      11.364  11.757  19.393  0.00  0.00    +0.000 A 
ATOM      4  C   UNL     1      10.575  11.884  18.268  0.00  0.00    +0.000 A 
ATOM      5  F   UNL     1      10.830  11.137  17.186  0.00  0.00    +0.000 F 
ATOM      6  C   UNL     1       9.491  12.745  18.291  0.00  0.00    +0.000 A 
ATOM      7  C   UNL     1       9.327  13.647  19.367  0.00  0.00    +0.000 A 
ATOM      8  C   UNL     1       8.521  14.884  19.020  0.00  0.00    +0.000 C 
ATOM      9  N   UNL     1       7.216  14.561  18.444  0.00  0.00    +0.000 N 
ATOM     10  C   UNL     1       6.177  15.465  18.262  0.00  0.00    +0.000 C 
ATOM     11  O   UNL     1       5.215  15.200  17.537  0.00  0.00    +0.000 OA
ATOM     12  C   UNL     1       7.069  13.187  17.937  0.00  0.00    +0.000 C 
ATOM     13  C   UNL     1       8.362  12.642  17.292  0.00  0.00    +0.000 C 
ENDROOT
BRANCH   1  19
ATOM     14  C   UNL     1       9.613  15.132  22.467  0.00  0.00    +0.000 A 
ATOM     15  C   UNL     1       9.166  15.468  23.757  0.00  0.00    +0.000 A 
ATOM     16  C   UNL     1       8.481  14.555  24.548  0.00  0.00    +0.000 A 
ATOM     17  C   UNL     1       8.224  13.272  24.072  0.00  0.00    +0.000 A 
ATOM     18  C   UNL     1       8.692  12.924  22.786  0.00  0.00    +0.000 A 
ATOM     19  C   UNL     1       9.374  13.840  21.932  0.00  0.00    +0.000 A 
BRANCH  14  21
ATOM     20  C   UNL     1      11.423  16.665  22.251  0.00  0.00    +0.000 C 
ATOM     21  O   UNL     1      10.261  16.056  21.680  0.00  0.00    +0.000 OA
ENDBRANCH  14  21
BRANCH  17  22
ATOM     22  C   UNL     1       7.450  12.314  24.950  0.00  0.00    +0.000 C 
BRANCH  22  23
ATOM     23  C   UNL     1       5.945  12.396  24.785  0.00  0.00    +0.000 C 
ATOM     24  O   UNL     1       5.259  13.383  24.996  0.00  0.00    +0.000 OA
BRANCH  23  25
ATOM     25  O   UNL     1       5.391  11.217  24.412  0.00  0.00    +0.000 OA
ATOM     26  H   UNL     1       5.771  10.826  23.602  0.00  0.00    +0.000 HD
ENDBRANCH  23  25
ENDBRANCH  22  23
ENDBRANCH  17  22
ENDBRANCH   1  19
BRANCH  10  27
ATOM     27  C   UNL     1       6.158  16.744  19.087  0.00  0.00    +0.000 C 
BRANCH  27  28
ATOM     28  C   UNL     1       5.146  16.927  20.237  0.00  0.00    +0.000 C 
ATOM     29  C   UNL     1       5.828  16.502  21.567  0.00  0.00    +0.000 C 
ATOM     30  C   UNL     1       5.956  14.982  21.659  0.00  0.00    +0.000 C 
ATOM     31  C   UNL     1       4.577  14.338  21.713  0.00  0.00    +0.000 C 
ATOM     32  C   UNL     1       3.577  14.975  20.783  0.00  0.00    +0.000 A 
ATOM     33  C   UNL     1       2.305  14.394  20.690  0.00  0.00    +0.000 A 
ATOM     34  C   UNL     1       1.346  15.017  19.912  0.00  0.00    +0.000 A 
ATOM     35  N   UNL     1       1.559  16.160  19.243  0.00  0.00    +0.000 NA
ATOM     36  C   UNL     1       2.798  16.706  19.332  0.00  0.00    +0.000 A 
ATOM     37  C   UNL     1       3.836  16.175  20.096  0.00  0.00    +0.000 A 
ENDBRANCH  27  28
ENDBRANCH  10  27
TORSDOF 7
ENDMDL
MODEL 8
REMARK VINA RESULT:      -7.5      6.139      9.495
REMARK  Name = 
REMARK  8 active torsions:
REMARK  status: ('A' for Active; 'I' for Inactive)
REMARK    1  A    between atoms: C_1  and  O_2
REMARK    2  A    between atoms: O_2  and  C_3
REMARK    3  A    between atoms: C_6  and  C_7
REMARK    4  A    between atoms: C_7  and  C_8
REMARK    5  A    between atoms: C_8  and  O_10
REMARK    6  A    between atoms: C_12  and  C_13
REMARK    7  A    between atoms: C_22  and  C_24
REMARK    8  A    between atoms: C_24  and  C_25
REMARK                            x       y       z     vdW  Elec       q    Type
REMARK                         _______ _______ _______ _____ _____    ______ ____
ROOT
ATOM      1  C   UNL     1       1.189  13.185  19.044  0.00  0.00    +0.000 A 
ATOM      2  C   UNL     1       2.227  12.549  18.319  0.00  0.00    +0.000 A 
ATOM      3  C   UNL     1       2.233  11.173  18.052  0.00  0.00    +0.000 A 
ATOM      4  C   UNL     1       1.309  10.366  18.684  0.00  0.00    +0.000 A 
ATOM      5  F   UNL     1       1.405   9.034  18.582  0.00  0.00    +0.000 F 
ATOM      6  C   UNL     1       0.323  10.944  19.466  0.00  0.00    +0.000 A 
ATOM      7  C   UNL     1       0.127  12.344  19.436  0.00  0.00    +0.000 A 
ATOM      8  C   UNL     1      -1.275  12.780  19.815  0.00  0.00    +0.000 C 
ATOM      9  N   UNL     1      -1.697  12.251  21.112  0.00  0.00    +0.000 N 
ATOM     10  C   UNL     1      -2.812  12.674  21.823  0.00  0.00    +0.000 C 
ATOM     11  O   UNL     1      -3.261  12.016  22.765  0.00  0.00    +0.000 OA
ATOM     12  C   UNL     1      -0.911  11.114  21.618  0.00  0.00    +0.000 C 
ATOM     13  C   UNL     1      -0.448  10.156  20.500  0.00  0.00    +0.000 C 
ENDROOT
BRANCH   1  19
ATOM     14  C   UNL     1       2.038  14.977  20.704  0.00  0.00    +0.000 A 
ATOM     15  C   UNL     1       2.041  16.311  21.146  0.00  0.00    +0.000 A 
ATOM     16  C   UNL     1       1.373  17.308  20.447  0.00  0.00    +0.000 A 
ATOM     17  C   UNL     1       0.676  16.999  19.283  0.00  0.00    +0.000 A 
ATOM     18  C   UNL     1       0.650  15.655  18.849  0.00  0.00    +0.000 A 
ATOM     19  C   UNL     1       1.346  14.608  19.521  0.00  0.00    +0.000 A 
BRANCH  14  21
ATOM     20  C   UNL     1       3.869  14.447  22.131  0.00  0.00    +0.000 C 
ATOM     21  O   UNL     1       2.732  14.004  21.387  0.00  0.00    +0.000 OA
ENDBRANCH  14  21
BRANCH  17  22
ATOM     22  C   UNL     1      -0.017  18.116  18.533  0.00  0.00    +0.000 C 
BRANCH  22  23
ATOM     23  C   UNL     1       0.569  18.402  17.164  0.00  0.00    +0.000 C 
ATOM     24  O   UNL     1       1.758  18.472  16.898  0.00  0.00    +0.000 OA
BRANCH  23  25
ATOM     25  O   UNL     1      -0.380  18.631  16.224  0.00  0.00    +0.000 OA
ATOM     26  H   UNL     1      -0.619  17.851  15.687  0.00  0.00    +0.000 HD
ENDBRANCH  23  25
ENDBRANCH  22  23
ENDBRANCH  17  22
ENDBRANCH   1  19
BRANCH  10  27
ATOM     27  C   UNL     1      -3.402  14.046  21.526  0.00  0.00    +0.000 C 
BRANCH  27  28
ATOM     28  C   UNL     1      -4.751  14.184  20.791  0.00  0.00    +0.000 C 
ATOM     29  C   UNL     1      -5.758  14.897  21.736  0.00  0.00    +0.000 C 
ATOM     30  C   UNL     1      -6.234  13.957  22.843  0.00  0.00    +0.000 C 
ATOM     31  C   UNL     1      -7.022  12.796  22.249  0.00  0.00    +0.000 C 
ATOM     32  C   UNL     1      -6.427  12.252  20.975  0.00  0.00    +0.000 A 
ATOM     33  C   UNL     1      -7.025  11.123  20.402  0.00  0.00    +0.000 A 
ATOM     34  C   UNL     1      -6.550  10.664  19.186  0.00  0.00    +0.000 A 
ATOM     35  N   UNL     1      -5.548  11.249  18.513  0.00  0.00    +0.000 NA
ATOM     36  C   UNL     1      -4.969  12.334  19.085  0.00  0.00    +0.000 A 
ATOM     37  C   UNL     1      -5.373  12.892  20.296  0.00  0.00    +0.000 A 
ENDBRANCH  27  28
ENDBRANCH  10  27
TORSDOF 7
ENDMDL
MODEL 9
REMARK VINA RESULT:      -7.5      6.828      9.445
REMARK  Name = 
REMARK  8 active torsions:
REMARK  status: ('A' for Active; 'I' for Inactive)
REMARK    1  A    between atoms: C_1  and  O_2
REMARK    2  A    between atoms: O_2  and  C_3
REMARK    3  A    between atoms: C_6  and  C_7
REMARK    4  A    between atoms: C_7  and  C_8
REMARK    5  A    between atoms: C_8  and  O_10
REMARK    6  A    between atoms: C_12  and  C_13
REMARK    7  A    between atoms: C_22  and  C_24
REMARK    8  A    between atoms: C_24  and  C_25
REMARK                            x       y       z     vdW  Elec       q    Type
REMARK                         _______ _______ _______ _____ _____    ______ ____
ROOT
ATOM      1  C   UNL     1      -3.159  12.559  19.827  0.00  0.00    +0.000 A 
ATOM      2  C   UNL     1      -4.462  12.188  19.413  0.00  0.00    +0.000 A 
ATOM      3  C   UNL     1      -5.619  12.827  19.881  0.00  0.00    +0.000 A 
ATOM      4  C   UNL     1      -5.512  13.710  20.936  0.00  0.00    +0.000 A 
ATOM      5  F   UNL     1      -6.619  14.198  21.512  0.00  0.00    +0.000 F 
ATOM      6  C   UNL     1      -4.259  14.040  21.423  0.00  0.00    +0.000 A 
ATOM      7  C   UNL     1      -3.100  13.658  20.710  0.00  0.00    +0.000 A 
ATOM      8  C   UNL     1      -1.893  14.538  20.972  0.00  0.00    +0.000 C 
ATOM      9  N   UNL     1      -1.581  14.652  22.397  0.00  0.00    +0.000 N 
ATOM     10  C   UNL     1      -0.406  15.179  22.917  0.00  0.00    +0.000 C 
ATOM     11  O   UNL     1      -0.314  15.492  24.106  0.00  0.00    +0.000 OA
ATOM     12  C   UNL     1      -2.662  14.264  23.317  0.00  0.00    +0.000 C 
ATOM     13  C   UNL     1      -4.063  14.646  22.793  0.00  0.00    +0.000 C 
ENDROOT
BRANCH   1  19
ATOM     14  C   UNL     1      -1.674  11.214  18.193  0.00  0.00    +0.000 A 
ATOM     15  C   UNL     1      -0.617  10.311  17.983  0.00  0.00    +0.000 A 
ATOM     16  C   UNL     1       0.168   9.857  19.034  0.00  0.00    +0.000 A 
ATOM     17  C   UNL     1      -0.084  10.289  20.333  0.00  0.00    +0.000 A 
ATOM     18  C   UNL     1      -1.160  11.176  20.551  0.00  0.00    +0.000 A 
ATOM     19  C   UNL     1      -1.971  11.689  19.496  0.00  0.00    +0.000 A 
BRANCH  14  21
ATOM     20  C   UNL     1      -2.635  10.768  16.060  0.00  0.00    +0.000 C 
ATOM     21  O   UNL     1      -2.423  11.683  17.138  0.00  0.00    +0.000 OA
ENDBRANCH  14  21
BRANCH  17  22
ATOM     22  C   UNL     1       0.809   9.794  21.449  0.00  0.00    +0.000 C 
BRANCH  22  23
ATOM     23  C   UNL     1       0.065   9.367  22.700  0.00  0.00    +0.000 C 
ATOM     24  O   UNL     1       0.207   9.848  23.812  0.00  0.00    +0.000 OA
BRANCH  23  25
ATOM     25  O   UNL     1      -0.777   8.328  22.481  0.00  0.00    +0.000 OA
ATOM     26  H   UNL     1      -1.140   7.919  23.289  0.00  0.00    +0.000 HD
ENDBRANCH  23  25
ENDBRANCH  22  23
ENDBRANCH  17  22
ENDBRANCH   1  19
BRANCH  10  27
ATOM     27  C   UNL     1       0.834  15.233  22.035  0.00  0.00    +0.000 C 
BRANCH  27  28
ATOM     28  C   UNL     1       0.785  14.749  20.571  0.00  0.00    +0.000 C 
ATOM     29  C   UNL     1       1.674  13.481  20.440  0.00  0.00    +0.000 C 
ATOM     30  C   UNL     1       3.159  13.843  20.476  0.00  0.00    +0.000 C 
ATOM     31  C   UNL     1       3.525  14.694  19.268  0.00  0.00    +0.000 C 
ATOM     32  C   UNL     1       2.485  15.729  18.921  0.00  0.00    +0.000 A 
ATOM     33  C   UNL     1       2.772  16.624  17.882  0.00  0.00    +0.000 A 
ATOM     34  C   UNL     1       1.794  17.521  17.490  0.00  0.00    +0.000 A 
ATOM     35  N   UNL     1       0.574  17.577  18.042  0.00  0.00    +0.000 NA
ATOM     36  C   UNL     1       0.313  16.713  19.054  0.00  0.00    +0.000 A 
ATOM     37  C   UNL     1       1.213  15.759  19.522  0.00  0.00    +0.000 A 
ENDBRANCH  27  28
ENDBRANCH  10  27
TORSDOF 7
ENDMDL
