MODEL 1
REMARK VINA RESULT:      -7.8      0.000      0.000
REMARK  Name = 
REMARK  12 active torsions:
REMARK  status: ('A' for Active; 'I' for Inactive)
REMARK    1  A    between atoms: C_1  and  N_2
REMARK    2  A    between atoms: N_5  and  C_6
REMARK    3  A    between atoms: C_6  and  C_7
REMARK    4  A    between atoms: C_7  and  C_8
REMARK    5  A    between atoms: C_8  and  C_9
REMARK    6  A    between atoms: C_9  and  C_10
REMARK    7  A    between atoms: C_10  and  C_11
REMARK    8  A    between atoms: C_14  and  S_15
REMARK    9  A    between atoms: S_15  and  C_16
REMARK   10  A    between atoms: C_16  and  C_17
REMARK   11  A    between atoms: C_19  and  N_20
REMARK   12  A    between atoms: C_24  and  N_25
REMARK                            x       y       z     vdW  Elec       q    Type
REMARK                         _______ _______ _______ _____ _____    ______ ____
ROOT
ATOM      1  C   UNL     1       7.960   7.880  17.933  0.00  0.00    +0.000 A 
ATOM      2  N   UNL     1       8.265   7.157  18.990  0.00  0.00    +0.000 NA
ATOM      3  N   UNL     1       7.935   5.854  18.673  0.00  0.00    +0.000 NA
ATOM      4  C   UNL     1       7.450   5.873  17.448  0.00  0.00    +0.000 A 
ATOM      5  O   UNL     1       7.437   7.135  16.913  0.00  0.00    +0.000 OA
ENDROOT
BRANCH   1   6
ATOM      6  C   UNL     1       8.113   9.337  17.708  0.00  0.00    +0.000 C 
BRANCH   6   7
ATOM      7  C   UNL     1       8.997   9.965  18.785  0.00  0.00    +0.000 C 
BRANCH   7   8
ATOM      8  C   UNL     1      10.007  10.950  18.196  0.00  0.00    +0.000 C 
BRANCH   8   9
ATOM      9  C   UNL     1       9.491  12.387  18.318  0.00  0.00    +0.000 C 
BRANCH   9  10
ATOM     10  C   UNL     1      10.201  13.372  17.377  0.00  0.00    +0.000 C 
BRANCH  10  15
ATOM     11  C   UNL     1       9.054  17.992  18.238  0.00  0.00    +0.000 C 
ATOM     12  N   UNL     1      10.094  16.980  18.390  0.00  0.00    +0.000 NA
ATOM     13  C   UNL     1      10.560  16.494  17.079  0.00  0.00    +0.000 C 
ATOM     14  C   UNL     1      11.626  15.382  17.223  0.00  0.00    +0.000 C 
ATOM     15  N   UNL     1      11.204  14.222  18.038  0.00  0.00    +0.000 NA
ATOM     16  C   UNL     1      10.697  14.736  19.332  0.00  0.00    +0.000 C 
ATOM     17  C   UNL     1       9.627  15.850  19.213  0.00  0.00    +0.000 C 
ENDBRANCH  10  15
ENDBRANCH   9  10
ENDBRANCH   8   9
ENDBRANCH   7   8
ENDBRANCH   6   7
ENDBRANCH   1   6
BRANCH   4  18
ATOM     18  S   UNL     1       6.900   4.484  16.568  0.00  0.00    +0.000 S 
BRANCH  18  19
ATOM     19  C   UNL     1       5.388   5.143  15.807  0.00  0.00    +0.000 C 
BRANCH  19  20
ATOM     20  C   UNL     1       4.244   5.097  16.799  0.00  0.00    +0.000 A 
ATOM     21  C   UNL     1       3.785   6.277  17.411  0.00  0.00    +0.000 A 
ATOM     22  C   UNL     1       2.778   6.222  18.389  0.00  0.00    +0.000 A 
ATOM     23  C   UNL     1       2.214   4.999  18.774  0.00  0.00    +0.000 A 
ATOM     24  C   UNL     1       2.669   3.826  18.159  0.00  0.00    +0.000 A 
ATOM     25  C   UNL     1       3.675   3.870  17.177  0.00  0.00    +0.000 A 
BRANCH  22  26
ATOM     26  N   UNL     1       2.324   7.464  19.032  0.00  0.00    +0.000 N 
ATOM     27  O   UNL     1       1.974   7.402  20.218  0.00  0.00    +0.000 OA
ATOM     28  O   UNL     1       2.323   8.497  18.349  0.00  0.00    +0.000 OA
ENDBRANCH  22  26
BRANCH  24  29
ATOM     29  N   UNL     1       2.099   2.531  18.559  0.00  0.00    +0.000 N 
ATOM     30  O   UNL     1       0.869   2.458  18.684  0.00  0.00    +0.000 OA
ATOM     31  O   UNL     1       2.886   1.592  18.747  0.00  0.00    +0.000 OA
ENDBRANCH  24  29
ENDBRANCH  19  20
ENDBRANCH  18  19
ENDBRANCH   4  18
TORSDOF 11
ENDMDL
MODEL 2
REMARK VINA RESULT:      -7.8      1.108      2.956
REMARK  Name = 
REMARK  12 active torsions:
REMARK  status: ('A' for Active; 'I' for Inactive)
REMARK    1  A    between atoms: C_1  and  N_2
REMARK    2  A    between atoms: N_5  and  C_6
REMARK    3  A    between atoms: C_6  and  C_7
REMARK    4  A    between atoms: C_7  and  C_8
REMARK    5  A    between atoms: C_8  and  C_9
REMARK    6  A    between atoms: C_9  and  C_10
REMARK    7  A    between atoms: C_10  and  C_11
REMARK    8  A    between atoms: C_14  and  S_15
REMARK    9  A    between atoms: S_15  and  C_16
REMARK   10  A    between atoms: C_16  and  C_17
REMARK   11  A    between atoms: C_19  and  N_20
REMARK   12  A    between atoms: C_24  and  N_25
REMARK                            x       y       z     vdW  Elec       q    Type
REMARK                         _______ _______ _______ _____ _____    ______ ____
ROOT
ATOM      1  C   UNL     1       8.472   8.887  18.422  0.00  0.00    +0.000 A 
ATOM      2  N   UNL     1       7.762   9.029  17.322  0.00  0.00    +0.000 NA
ATOM      3  N   UNL     1       7.304   7.767  16.994  0.00  0.00    +0.000 NA
ATOM      4  C   UNL     1       7.767   6.945  17.914  0.00  0.00    +0.000 A 
ATOM      5  O   UNL     1       8.521   7.592  18.859  0.00  0.00    +0.000 OA
ENDROOT
BRANCH   1   6
ATOM      6  C   UNL     1       9.188   9.908  19.223  0.00  0.00    +0.000 C 
BRANCH   6   7
ATOM      7  C   UNL     1       9.288  11.228  18.460  0.00  0.00    +0.000 C 
BRANCH   7   8
ATOM      8  C   UNL     1      10.625  11.369  17.731  0.00  0.00    +0.000 C 
BRANCH   8   9
ATOM      9  C   UNL     1      11.415  12.560  18.282  0.00  0.00    +0.000 C 
BRANCH   9  10
ATOM     10  C   UNL     1      11.416  13.777  17.345  0.00  0.00    +0.000 C 
BRANCH  10  15
ATOM     11  C   UNL     1       8.441  17.447  18.386  0.00  0.00    +0.000 C 
ATOM     12  N   UNL     1       9.827  16.995  18.431  0.00  0.00    +0.000 NA
ATOM     13  C   UNL     1      10.347  16.736  17.076  0.00  0.00    +0.000 C 
ATOM     14  C   UNL     1      11.799  16.204  17.108  0.00  0.00    +0.000 C 
ATOM     15  N   UNL     1      11.998  14.993  17.934  0.00  0.00    +0.000 NA
ATOM     16  C   UNL     1      11.428  15.260  19.276  0.00  0.00    +0.000 C 
ATOM     17  C   UNL     1       9.973  15.791  19.269  0.00  0.00    +0.000 C 
ENDBRANCH  10  15
ENDBRANCH   9  10
ENDBRANCH   8   9
ENDBRANCH   7   8
ENDBRANCH   6   7
ENDBRANCH   1   6
BRANCH   4  18
ATOM     18  S   UNL     1       7.464   5.239  17.974  0.00  0.00    +0.000 S 
BRANCH  18  19
ATOM     19  C   UNL     1       6.205   5.074  16.676  0.00  0.00    +0.000 C 
BRANCH  19  20
ATOM     20  C   UNL     1       4.818   5.151  17.285  0.00  0.00    +0.000 A 
ATOM     21  C   UNL     1       4.066   3.981  17.488  0.00  0.00    +0.000 A 
ATOM     22  C   UNL     1       2.751   4.061  17.978  0.00  0.00    +0.000 A 
ATOM     23  C   UNL     1       2.166   5.300  18.271  0.00  0.00    +0.000 A 
ATOM     24  C   UNL     1       2.920   6.463  18.071  0.00  0.00    +0.000 A 
ATOM     25  C   UNL     1       4.238   6.394  17.584  0.00  0.00    +0.000 A 
BRANCH  22  26
ATOM     26  N   UNL     1       1.971   2.829  18.167  0.00  0.00    +0.000 N 
ATOM     27  O   UNL     1       0.737   2.927  18.184  0.00  0.00    +0.000 OA
ATOM     28  O   UNL     1       2.598   1.768  18.295  0.00  0.00    +0.000 OA
ENDBRANCH  22  26
BRANCH  24  29
ATOM     29  N   UNL     1       2.320   7.774  18.360  0.00  0.00    +0.000 N 
ATOM     30  O   UNL     1       1.941   7.990  19.519  0.00  0.00    +0.000 OA
ATOM     31  O   UNL     1       2.230   8.582  17.424  0.00  0.00    +0.000 OA
ENDBRANCH  24  29
ENDBRANCH  19  20
ENDBRANCH  18  19
ENDBRANCH   4  18
TORSDOF 11
ENDMDL
MODEL 3
REMARK VINA RESULT:      -7.7      6.086      8.883
REMARK  Name = 
REMARK  12 active torsions:
REMARK  status: ('A' for Active; 'I' for Inactive)
REMARK    1  A    between atoms: C_1  and  N_2
REMARK    2  A    between atoms: N_5  and  C_6
REMARK    3  A    between atoms: C_6  and  C_7
REMARK    4  A    between atoms: C_7  and  C_8
REMARK    5  A    between atoms: C_8  and  C_9
REMARK    6  A    between atoms: C_9  and  C_10
REMARK    7  A    between atoms: C_10  and  C_11
REMARK    8  A    between atoms: C_14  and  S_15
REMARK    9  A    between atoms: S_15  and  C_16
REMARK   10  A    between atoms: C_16  and  C_17
REMARK   11  A    between atoms: C_19  and  N_20
REMARK   12  A    between atoms: C_24  and  N_25
REMARK                            x       y       z     vdW  Elec       q    Type
REMARK                         _______ _______ _______ _____ _____    ______ ____
ROOT
ATOM      1  C   UNL     1       2.089   6.459  19.680  0.00  0.00    +0.000 A 
ATOM      2  N   UNL     1       2.290   5.566  20.626  0.00  0.00    +0.000 NA
ATOM      3  N   UNL     1       2.409   4.347  19.987  0.00  0.00    +0.000 NA
ATOM      4  C   UNL     1       2.271   4.581  18.697  0.00  0.00    +0.000 A 
ATOM      5  O   UNL     1       2.064   5.909  18.428  0.00  0.00    +0.000 OA
ENDROOT
BRANCH   1   6
ATOM      6  C   UNL     1       1.905   7.926  19.787  0.00  0.00    +0.000 C 
BRANCH   6   7
ATOM      7  C   UNL     1       2.108   8.601  18.432  0.00  0.00    +0.000 C 
BRANCH   7   8
ATOM      8  C   UNL     1       1.058   9.679  18.165  0.00  0.00    +0.000 C 
BRANCH   8   9
ATOM      9  C   UNL     1       0.631  10.351  19.473  0.00  0.00    +0.000 C 
BRANCH   9  10
ATOM     10  C   UNL     1      -0.871  10.672  19.533  0.00  0.00    +0.000 C 
BRANCH  10  15
ATOM     11  C   UNL     1      -5.454  12.173  19.907  0.00  0.00    +0.000 C 
ATOM     12  N   UNL     1      -4.149  12.479  19.331  0.00  0.00    +0.000 NA
ATOM     13  C   UNL     1      -3.719  11.423  18.397  0.00  0.00    +0.000 C 
ATOM     14  C   UNL     1      -2.313  11.705  17.816  0.00  0.00    +0.000 C 
ATOM     15  N   UNL     1      -1.253  11.906  18.829  0.00  0.00    +0.000 NA
ATOM     16  C   UNL     1      -1.726  12.937  19.782  0.00  0.00    +0.000 C 
ATOM     17  C   UNL     1      -3.131  12.675  20.378  0.00  0.00    +0.000 C 
ENDBRANCH  10  15
ENDBRANCH   9  10
ENDBRANCH   8   9
ENDBRANCH   7   8
ENDBRANCH   6   7
ENDBRANCH   1   6
BRANCH   4  18
ATOM     18  S   UNL     1       2.355   3.381  17.449  0.00  0.00    +0.000 S 
BRANCH  18  19
ATOM     19  C   UNL     1       3.984   2.653  17.789  0.00  0.00    +0.000 C 
BRANCH  19  20
ATOM     20  C   UNL     1       5.079   3.625  17.398  0.00  0.00    +0.000 A 
ATOM     21  C   UNL     1       5.462   3.760  16.051  0.00  0.00    +0.000 A 
ATOM     22  C   UNL     1       6.530   4.602  15.700  0.00  0.00    +0.000 A 
ATOM     23  C   UNL     1       7.233   5.319  16.677  0.00  0.00    +0.000 A 
ATOM     24  C   UNL     1       6.847   5.186  18.017  0.00  0.00    +0.000 A 
ATOM     25  C   UNL     1       5.777   4.348  18.379  0.00  0.00    +0.000 A 
BRANCH  22  26
ATOM     26  N   UNL     1       6.929   4.717  14.289  0.00  0.00    +0.000 N 
ATOM     27  O   UNL     1       7.789   5.561  14.002  0.00  0.00    +0.000 OA
ATOM     28  O   UNL     1       6.382   3.961  13.475  0.00  0.00    +0.000 OA
ENDBRANCH  22  26
BRANCH  24  29
ATOM     29  N   UNL     1       7.581   5.920  19.058  0.00  0.00    +0.000 N 
ATOM     30  O   UNL     1       8.153   6.967  18.728  0.00  0.00    +0.000 OA
ATOM     31  O   UNL     1       7.581   5.444  20.202  0.00  0.00    +0.000 OA
ENDBRANCH  24  29
ENDBRANCH  19  20
ENDBRANCH  18  19
ENDBRANCH   4  18
TORSDOF 11
ENDMDL
MODEL 4
REMARK VINA RESULT:      -7.6      6.019      9.505
REMARK  Name = 
REMARK  12 active torsions:
REMARK  status: ('A' for Active; 'I' for Inactive)
REMARK    1  A    between atoms: C_1  and  N_2
REMARK    2  A    between atoms: N_5  and  C_6
REMARK    3  A    between atoms: C_6  and  C_7
REMARK    4  A    between atoms: C_7  and  C_8
REMARK    5  A    between atoms: C_8  and  C_9
REMARK    6  A    between atoms: C_9  and  C_10
REMARK    7  A    between atoms: C_10  and  C_11
REMARK    8  A    between atoms: C_14  and  S_15
REMARK    9  A    between atoms: S_15  and  C_16
REMARK   10  A    between atoms: C_16  and  C_17
REMARK   11  A    between atoms: C_19  and  N_20
REMARK   12  A    between atoms: C_24  and  N_25
REMARK                            x       y       z     vdW  Elec       q    Type
REMARK                         _______ _______ _______ _____ _____    ______ ____
ROOT
ATOM      1  C   UNL     1       1.498   8.795  19.743  0.00  0.00    +0.000 A 
ATOM      2  N   UNL     1       1.879   8.878  18.485  0.00  0.00    +0.000 NA
ATOM      3  N   UNL     1       2.451   7.659  18.175  0.00  0.00    +0.000 NA
ATOM      4  C   UNL     1       2.381   6.920  19.263  0.00  0.00    +0.000 A 
ATOM      5  O   UNL     1       1.783   7.581  20.305  0.00  0.00    +0.000 OA
ENDROOT
BRANCH   1   6
ATOM      6  C   UNL     1       0.818   9.801  20.593  0.00  0.00    +0.000 C 
BRANCH   6   7
ATOM      7  C   UNL     1       0.274  10.951  19.747  0.00  0.00    +0.000 C 
BRANCH   7   8
ATOM      8  C   UNL     1      -0.759  11.784  20.506  0.00  0.00    +0.000 C 
BRANCH   8   9
ATOM      9  C   UNL     1      -1.469  12.755  19.558  0.00  0.00    +0.000 C 
BRANCH   9  10
ATOM     10  C   UNL     1      -1.867  12.117  18.218  0.00  0.00    +0.000 C 
BRANCH  10  15
ATOM     11  C   UNL     1      -3.464  10.083  14.130  0.00  0.00    +0.000 C 
ATOM     12  N   UNL     1      -3.629  10.121  15.579  0.00  0.00    +0.000 NA
ATOM     13  C   UNL     1      -4.048  11.460  16.032  0.00  0.00    +0.000 C 
ATOM     14  C   UNL     1      -4.176  11.532  17.572  0.00  0.00    +0.000 C 
ATOM     15  N   UNL     1      -2.959  11.137  18.315  0.00  0.00    +0.000 NA
ATOM     16  C   UNL     1      -2.531   9.811  17.811  0.00  0.00    +0.000 C 
ATOM     17  C   UNL     1      -2.393   9.715  16.272  0.00  0.00    +0.000 C 
ENDBRANCH  10  15
ENDBRANCH   9  10
ENDBRANCH   8   9
ENDBRANCH   7   8
ENDBRANCH   6   7
ENDBRANCH   1   6
BRANCH   4  18
ATOM     18  S   UNL     1       2.948   5.287  19.401  0.00  0.00    +0.000 S 
BRANCH  18  19
ATOM     19  C   UNL     1       3.213   4.873  17.653  0.00  0.00    +0.000 C 
BRANCH  19  20
ATOM     20  C   UNL     1       4.655   5.135  17.269  0.00  0.00    +0.000 A 
ATOM     21  C   UNL     1       5.101   4.877  15.960  0.00  0.00    +0.000 A 
ATOM     22  C   UNL     1       6.455   5.045  15.628  0.00  0.00    +0.000 A 
ATOM     23  C   UNL     1       7.385   5.470  16.586  0.00  0.00    +0.000 A 
ATOM     24  C   UNL     1       6.937   5.732  17.887  0.00  0.00    +0.000 A 
ATOM     25  C   UNL     1       5.583   5.569  18.230  0.00  0.00    +0.000 A 
BRANCH  22  26
ATOM     26  N   UNL     1       6.907   4.752  14.260  0.00  0.00    +0.000 N 
ATOM     27  O   UNL     1       7.801   5.466  13.784  0.00  0.00    +0.000 OA
ATOM     28  O   UNL     1       6.368   3.807  13.667  0.00  0.00    +0.000 OA
ENDBRANCH  22  26
BRANCH  24  29
ATOM     29  N   UNL     1       7.899   6.166  18.910  0.00  0.00    +0.000 N 
ATOM     30  O   UNL     1       8.143   5.385  19.839  0.00  0.00    +0.000 OA
ATOM     31  O   UNL     1       8.408   7.289  18.779  0.00  0.00    +0.000 OA
ENDBRANCH  24  29
ENDBRANCH  19  20
ENDBRANCH  18  19
ENDBRANCH   4  18
TORSDOF 11
ENDMDL
MODEL 5
REMARK VINA RESULT:      -7.5      6.052      8.766
REMARK  Name = 
REMARK  12 active torsions:
REMARK  status: ('A' for Active; 'I' for Inactive)
REMARK    1  A    between atoms: C_1  and  N_2
REMARK    2  A    between atoms: N_5  and  C_6
REMARK    3  A    between atoms: C_6  and  C_7
REMARK    4  A    between atoms: C_7  and  C_8
REMARK    5  A    between atoms: C_8  and  C_9
REMARK    6  A    between atoms: C_9  and  C_10
REMARK    7  A    between atoms: C_10  and  C_11
REMARK    8  A    between atoms: C_14  and  S_15
REMARK    9  A    between atoms: S_15  and  C_16
REMARK   10  A    between atoms: C_16  and  C_17
REMARK   11  A    between atoms: C_19  and  N_20
REMARK   12  A    between atoms: C_24  and  N_25
REMARK                            x       y       z     vdW  Elec       q    Type
REMARK                         _______ _______ _______ _____ _____    ______ ____
ROOT
ATOM      1  C   UNL     1       1.959   6.450  19.808  0.00  0.00    +0.000 A 
ATOM      2  N   UNL     1       1.666   5.480  20.648  0.00  0.00    +0.000 NA
ATOM      3  N   UNL     1       1.741   4.306  19.925  0.00  0.00    +0.000 NA
ATOM      4  C   UNL     1       2.074   4.640  18.694  0.00  0.00    +0.000 A 
ATOM      5  O   UNL     1       2.231   5.994  18.547  0.00  0.00    +0.000 OA
ENDROOT
BRANCH   1   6
ATOM      6  C   UNL     1       2.043   7.911  20.041  0.00  0.00    +0.000 C 
BRANCH   6   7
ATOM      7  C   UNL     1       1.536   8.686  18.826  0.00  0.00    +0.000 C 
BRANCH   7   8
ATOM      8  C   UNL     1       1.076  10.097  19.197  0.00  0.00    +0.000 C 
BRANCH   8   9
ATOM      9  C   UNL     1      -0.104  10.040  20.171  0.00  0.00    +0.000 C 
BRANCH   9  10
ATOM     10  C   UNL     1      -1.183  11.096  19.885  0.00  0.00    +0.000 C 
BRANCH  10  15
ATOM     11  C   UNL     1      -3.594  12.334  23.891  0.00  0.00    +0.000 C 
ATOM     12  N   UNL     1      -2.589  12.772  22.929  0.00  0.00    +0.000 NA
ATOM     13  C   UNL     1      -3.161  12.883  21.575  0.00  0.00    +0.000 C 
ATOM     14  C   UNL     1      -2.096  13.296  20.532  0.00  0.00    +0.000 C 
ATOM     15  N   UNL     1      -0.909  12.415  20.476  0.00  0.00    +0.000 NA
ATOM     16  C   UNL     1      -0.378  12.280  21.853  0.00  0.00    +0.000 C 
ATOM     17  C   UNL     1      -1.426  11.866  22.915  0.00  0.00    +0.000 C 
ENDBRANCH  10  15
ENDBRANCH   9  10
ENDBRANCH   8   9
ENDBRANCH   7   8
ENDBRANCH   6   7
ENDBRANCH   1   6
BRANCH   4  18
ATOM     18  S   UNL     1       2.316   3.528  17.386  0.00  0.00    +0.000 S 
BRANCH  18  19
ATOM     19  C   UNL     1       3.917   2.806  17.849  0.00  0.00    +0.000 C 
BRANCH  19  20
ATOM     20  C   UNL     1       5.044   3.733  17.437  0.00  0.00    +0.000 A 
ATOM     21  C   UNL     1       5.423   3.833  16.087  0.00  0.00    +0.000 A 
ATOM     22  C   UNL     1       6.519   4.631  15.717  0.00  0.00    +0.000 A 
ATOM     23  C   UNL     1       7.252   5.338  16.679  0.00  0.00    +0.000 A 
ATOM     24  C   UNL     1       6.868   5.240  18.022  0.00  0.00    +0.000 A 
ATOM     25  C   UNL     1       5.772   4.446  18.403  0.00  0.00    +0.000 A 
BRANCH  22  26
ATOM     26  N   UNL     1       6.914   4.709  14.303  0.00  0.00    +0.000 N 
ATOM     27  O   UNL     1       6.329   3.968  13.501  0.00  0.00    +0.000 OA
ATOM     28  O   UNL     1       7.806   5.513  14.000  0.00  0.00    +0.000 OA
ENDBRANCH  22  26
BRANCH  24  29
ATOM     29  N   UNL     1       7.633   5.965  19.048  0.00  0.00    +0.000 N 
ATOM     30  O   UNL     1       7.669   5.481  20.187  0.00  0.00    +0.000 OA
ATOM     31  O   UNL     1       8.195   7.016  18.708  0.00  0.00    +0.000 OA
ENDBRANCH  24  29
ENDBRANCH  19  20
ENDBRANCH  18  19
ENDBRANCH   4  18
TORSDOF 11
ENDMDL
MODEL 6
REMARK VINA RESULT:      -7.5      1.894      2.478
REMARK  Name = 
REMARK  12 active torsions:
REMARK  status: ('A' for Active; 'I' for Inactive)
REMARK    1  A    between atoms: C_1  and  N_2
REMARK    2  A    between atoms: N_5  and  C_6
REMARK    3  A    between atoms: C_6  and  C_7
REMARK    4  A    between atoms: C_7  and  C_8
REMARK    5  A    between atoms: C_8  and  C_9
REMARK    6  A    between atoms: C_9  and  C_10
REMARK    7  A    between atoms: C_10  and  C_11
REMARK    8  A    between atoms: C_14  and  S_15
REMARK    9  A    between atoms: S_15  and  C_16
REMARK   10  A    between atoms: C_16  and  C_17
REMARK   11  A    between atoms: C_19  and  N_20
REMARK   12  A    between atoms: C_24  and  N_25
REMARK                            x       y       z     vdW  Elec       q    Type
REMARK                         _______ _______ _______ _____ _____    ______ ____
ROOT
ATOM      1  C   UNL     1       6.878   6.565  17.502  0.00  0.00    +0.000 A 
ATOM      2  N   UNL     1       6.071   7.055  16.584  0.00  0.00    +0.000 NA
ATOM      3  N   UNL     1       5.238   6.019  16.211  0.00  0.00    +0.000 NA
ATOM      4  C   UNL     1       5.594   4.970  16.925  0.00  0.00    +0.000 A 
ATOM      5  O   UNL     1       6.636   5.246  17.772  0.00  0.00    +0.000 OA
ENDROOT
BRANCH   1   6
ATOM      6  C   UNL     1       7.964   7.232  18.260  0.00  0.00    +0.000 C 
BRANCH   6   7
ATOM      7  C   UNL     1       8.282   8.602  17.663  0.00  0.00    +0.000 C 
BRANCH   7   8
ATOM      8  C   UNL     1       8.833   9.570  18.710  0.00  0.00    +0.000 C 
BRANCH   8   9
ATOM      9  C   UNL     1       8.553  11.020  18.303  0.00  0.00    +0.000 C 
BRANCH   9  10
ATOM     10  C   UNL     1       9.647  12.001  18.751  0.00  0.00    +0.000 C 
BRANCH  10  15
ATOM     11  C   UNL     1      12.318  15.834  20.005  0.00  0.00    +0.000 C 
ATOM     12  N   UNL     1      11.758  15.097  18.878  0.00  0.00    +0.000 NA
ATOM     13  C   UNL     1      10.285  15.088  18.927  0.00  0.00    +0.000 C 
ATOM     14  C   UNL     1       9.675  14.265  17.768  0.00  0.00    +0.000 C 
ATOM     15  N   UNL     1      10.157  12.869  17.678  0.00  0.00    +0.000 NA
ATOM     16  C   UNL     1      11.639  12.899  17.677  0.00  0.00    +0.000 C 
ATOM     17  C   UNL     1      12.272  13.716  18.830  0.00  0.00    +0.000 C 
ENDBRANCH  10  15
ENDBRANCH   9  10
ENDBRANCH   8   9
ENDBRANCH   7   8
ENDBRANCH   6   7
ENDBRANCH   1   6
BRANCH   4  18
ATOM     18  S   UNL     1       4.847   3.407  16.849  0.00  0.00    +0.000 S 
BRANCH  18  19
ATOM     19  C   UNL     1       3.091   3.872  16.842  0.00  0.00    +0.000 C 
BRANCH  19  20
ATOM     20  C   UNL     1       2.664   4.312  18.228  0.00  0.00    +0.000 A 
ATOM     21  C   UNL     1       2.417   5.670  18.498  0.00  0.00    +0.000 A 
ATOM     22  C   UNL     1       2.100   6.085  19.802  0.00  0.00    +0.000 A 
ATOM     23  C   UNL     1       2.023   5.163  20.854  0.00  0.00    +0.000 A 
ATOM     24  C   UNL     1       2.265   3.811  20.581  0.00  0.00    +0.000 A 
ATOM     25  C   UNL     1       2.582   3.383  19.278  0.00  0.00    +0.000 A 
BRANCH  22  26
ATOM     26  N   UNL     1       1.863   7.512  20.071  0.00  0.00    +0.000 N 
ATOM     27  O   UNL     1       1.404   7.819  21.179  0.00  0.00    +0.000 OA
ATOM     28  O   UNL     1       2.140   8.318  19.173  0.00  0.00    +0.000 OA
ENDBRANCH  22  26
BRANCH  24  29
ATOM     29  N   UNL     1       2.203   2.829  21.673  0.00  0.00    +0.000 N 
ATOM     30  O   UNL     1       1.128   2.706  22.275  0.00  0.00    +0.000 OA
ATOM     31  O   UNL     1       3.232   2.185  21.924  0.00  0.00    +0.000 OA
ENDBRANCH  24  29
ENDBRANCH  19  20
ENDBRANCH  18  19
ENDBRANCH   4  18
TORSDOF 11
ENDMDL
MODEL 7
REMARK VINA RESULT:      -7.4      5.261      7.738
REMARK  Name = 
REMARK  12 active torsions:
REMARK  status: ('A' for Active; 'I' for Inactive)
REMARK    1  A    between atoms: C_1  and  N_2
REMARK    2  A    between atoms: N_5  and  C_6
REMARK    3  A    between atoms: C_6  and  C_7
REMARK    4  A    between atoms: C_7  and  C_8
REMARK    5  A    between atoms: C_8  and  C_9
REMARK    6  A    between atoms: C_9  and  C_10
REMARK    7  A    between atoms: C_10  and  C_11
REMARK    8  A    between atoms: C_14  and  S_15
REMARK    9  A    between atoms: S_15  and  C_16
REMARK   10  A    between atoms: C_16  and  C_17
REMARK   11  A    between atoms: C_19  and  N_20
REMARK   12  A    between atoms: C_24  and  N_25
REMARK                            x       y       z     vdW  Elec       q    Type
REMARK                         _______ _______ _______ _____ _____    ______ ____
ROOT
ATOM      1  C   UNL     1       1.951   6.701  19.806  0.00  0.00    +0.000 A 
ATOM      2  N   UNL     1       2.588   7.333  18.843  0.00  0.00    +0.000 NA
ATOM      3  N   UNL     1       2.810   6.400  17.849  0.00  0.00    +0.000 NA
ATOM      4  C   UNL     1       2.294   5.264  18.275  0.00  0.00    +0.000 A 
ATOM      5  O   UNL     1       1.728   5.383  19.518  0.00  0.00    +0.000 OA
ENDROOT
BRANCH   1   6
ATOM      6  C   UNL     1       1.453   7.212  21.105  0.00  0.00    +0.000 C 
BRANCH   6   7
ATOM      7  C   UNL     1       1.543   8.737  21.161  0.00  0.00    +0.000 C 
BRANCH   7   8
ATOM      8  C   UNL     1       0.931   9.301  22.443  0.00  0.00    +0.000 C 
BRANCH   8   9
ATOM      9  C   UNL     1      -0.457   9.885  22.165  0.00  0.00    +0.000 C 
BRANCH   9  10
ATOM     10  C   UNL     1      -0.571  10.562  20.790  0.00  0.00    +0.000 C 
BRANCH  10  15
ATOM     11  C   UNL     1       2.319  13.449  18.199  0.00  0.00    +0.000 C 
ATOM     12  N   UNL     1       1.175  13.419  19.104  0.00  0.00    +0.000 NA
ATOM     13  C   UNL     1       1.551  12.869  20.419  0.00  0.00    +0.000 C 
ATOM     14  C   UNL     1       0.338  12.781  21.375  0.00  0.00    +0.000 C 
ATOM     15  N   UNL     1      -0.811  12.012  20.849  0.00  0.00    +0.000 NA
ATOM     16  C   UNL     1      -1.142  12.551  19.508  0.00  0.00    +0.000 C 
ATOM     17  C   UNL     1       0.057  12.646  18.533  0.00  0.00    +0.000 C 
ENDBRANCH  10  15
ENDBRANCH   9  10
ENDBRANCH   8   9
ENDBRANCH   7   8
ENDBRANCH   6   7
ENDBRANCH   1   6
BRANCH   4  18
ATOM     18  S   UNL     1       2.291   3.773  17.390  0.00  0.00    +0.000 S 
BRANCH  18  19
ATOM     19  C   UNL     1       3.773   2.973  18.071  0.00  0.00    +0.000 C 
BRANCH  19  20
ATOM     20  C   UNL     1       5.015   3.730  17.645  0.00  0.00    +0.000 A 
ATOM     21  C   UNL     1       5.795   4.409  18.598  0.00  0.00    +0.000 A 
ATOM     22  C   UNL     1       6.900   5.176  18.191  0.00  0.00    +0.000 A 
ATOM     23  C   UNL     1       7.245   5.280  16.837  0.00  0.00    +0.000 A 
ATOM     24  C   UNL     1       6.469   4.599  15.891  0.00  0.00    +0.000 A 
ATOM     25  C   UNL     1       5.362   3.827  16.288  0.00  0.00    +0.000 A 
BRANCH  22  26
ATOM     26  N   UNL     1       7.693   5.896  19.199  0.00  0.00    +0.000 N 
ATOM     27  O   UNL     1       7.718   5.434  20.347  0.00  0.00    +0.000 OA
ATOM     28  O   UNL     1       8.289   6.919  18.836  0.00  0.00    +0.000 OA
ENDBRANCH  22  26
BRANCH  24  29
ATOM     29  N   UNL     1       6.807   4.706  14.465  0.00  0.00    +0.000 N 
ATOM     30  O   UNL     1       6.161   4.015  13.667  0.00  0.00    +0.000 OA
ATOM     31  O   UNL     1       7.720   5.483  14.149  0.00  0.00    +0.000 OA
ENDBRANCH  24  29
ENDBRANCH  19  20
ENDBRANCH  18  19
ENDBRANCH   4  18
TORSDOF 11
ENDMDL
MODEL 8
REMARK VINA RESULT:      -7.4      1.542      1.977
REMARK  Name = 
REMARK  12 active torsions:
REMARK  status: ('A' for Active; 'I' for Inactive)
REMARK    1  A    between atoms: C_1  and  N_2
REMARK    2  A    between atoms: N_5  and  C_6
REMARK    3  A    between atoms: C_6  and  C_7
REMARK    4  A    between atoms: C_7  and  C_8
REMARK    5  A    between atoms: C_8  and  C_9
REMARK    6  A    between atoms: C_9  and  C_10
REMARK    7  A    between atoms: C_10  and  C_11
REMARK    8  A    between atoms: C_14  and  S_15
REMARK    9  A    between atoms: S_15  and  C_16
REMARK   10  A    between atoms: C_16  and  C_17
REMARK   11  A    between atoms: C_19  and  N_20
REMARK   12  A    between atoms: C_24  and  N_25
REMARK                            x       y       z     vdW  Elec       q    Type
REMARK                         _______ _______ _______ _____ _____    ______ ____
ROOT
ATOM      1  C   UNL     1       7.845   8.308  17.831  0.00  0.00    +0.000 A 
ATOM      2  N   UNL     1       8.377   7.392  18.612  0.00  0.00    +0.000 NA
ATOM      3  N   UNL     1       7.756   6.201  18.288  0.00  0.00    +0.000 NA
ATOM      4  C   UNL     1       6.889   6.474  17.334  0.00  0.00    +0.000 A 
ATOM      5  O   UNL     1       6.892   7.801  16.991  0.00  0.00    +0.000 OA
ENDROOT
BRANCH   1   6
ATOM      6  C   UNL     1       8.139   9.758  17.737  0.00  0.00    +0.000 C 
BRANCH   6   7
ATOM      7  C   UNL     1       9.148  10.179  18.804  0.00  0.00    +0.000 C 
BRANCH   7   8
ATOM      8  C   UNL     1      10.183  11.163  18.259  0.00  0.00    +0.000 C 
BRANCH   8   9
ATOM      9  C   UNL     1       9.519  12.495  17.895  0.00  0.00    +0.000 C 
BRANCH   9  10
ATOM     10  C   UNL     1      10.526  13.614  17.586  0.00  0.00    +0.000 C 
BRANCH  10  15
ATOM     11  C   UNL     1      10.787  16.117  21.717  0.00  0.00    +0.000 C 
ATOM     12  N   UNL     1      10.335  16.160  20.331  0.00  0.00    +0.000 NA
ATOM     13  C   UNL     1       9.311  15.131  20.073  0.00  0.00    +0.000 C 
ATOM     14  C   UNL     1       8.858  15.128  18.594  0.00  0.00    +0.000 C 
ATOM     15  N   UNL     1       9.951  14.967  17.611  0.00  0.00    +0.000 NA
ATOM     16  C   UNL     1      10.989  15.980  17.917  0.00  0.00    +0.000 C 
ATOM     17  C   UNL     1      11.460  16.001  19.392  0.00  0.00    +0.000 C 
ENDBRANCH  10  15
ENDBRANCH   9  10
ENDBRANCH   8   9
ENDBRANCH   7   8
ENDBRANCH   6   7
ENDBRANCH   1   6
BRANCH   4  18
ATOM     18  S   UNL     1       5.858   5.315  16.558  0.00  0.00    +0.000 S 
BRANCH  18  19
ATOM     19  C   UNL     1       5.605   4.130  17.911  0.00  0.00    +0.000 C 
BRANCH  19  20
ATOM     20  C   UNL     1       4.376   4.510  18.712  0.00  0.00    +0.000 A 
ATOM     21  C   UNL     1       3.858   5.815  18.642  0.00  0.00    +0.000 A 
ATOM     22  C   UNL     1       2.767   6.189  19.445  0.00  0.00    +0.000 A 
ATOM     23  C   UNL     1       2.177   5.275  20.328  0.00  0.00    +0.000 A 
ATOM     24  C   UNL     1       2.692   3.974  20.392  0.00  0.00    +0.000 A 
ATOM     25  C   UNL     1       3.782   3.589  19.590  0.00  0.00    +0.000 A 
BRANCH  22  26
ATOM     26  N   UNL     1       2.251   7.563  19.373  0.00  0.00    +0.000 N 
ATOM     27  O   UNL     1       1.723   8.033  20.390  0.00  0.00    +0.000 OA
ATOM     28  O   UNL     1       2.378   8.169  18.300  0.00  0.00    +0.000 OA
ENDBRANCH  22  26
BRANCH  24  29
ATOM     29  N   UNL     1       2.095   3.004  21.321  0.00  0.00    +0.000 N 
ATOM     30  O   UNL     1       2.855   2.397  22.087  0.00  0.00    +0.000 OA
ATOM     31  O   UNL     1       0.865   2.853  21.280  0.00  0.00    +0.000 OA
ENDBRANCH  24  29
ENDBRANCH  19  20
ENDBRANCH  18  19
ENDBRANCH   4  18
TORSDOF 11
ENDMDL
MODEL 9
REMARK VINA RESULT:      -7.4      5.594      7.648
REMARK  Name = 
REMARK  12 active torsions:
REMARK  status: ('A' for Active; 'I' for Inactive)
REMARK    1  A    between atoms: C_1  and  N_2
REMARK    2  A    between atoms: N_5  and  C_6
REMARK    3  A    between atoms: C_6  and  C_7
REMARK    4  A    between atoms: C_7  and  C_8
REMARK    5  A    between atoms: C_8  and  C_9
REMARK    6  A    between atoms: C_9  and  C_10
REMARK    7  A    between atoms: C_10  and  C_11
REMARK    8  A    between atoms: C_14  and  S_15
REMARK    9  A    between atoms: S_15  and  C_16
REMARK   10  A    between atoms: C_16  and  C_17
REMARK   11  A    between atoms: C_19  and  N_20
REMARK   12  A    between atoms: C_24  and  N_25
REMARK                            x       y       z     vdW  Elec       q    Type
REMARK                         _______ _______ _______ _____ _____    ______ ____
ROOT
ATOM      1  C   UNL     1       1.891   6.533  19.923  0.00  0.00    +0.000 A 
ATOM      2  N   UNL     1       1.635   5.520  20.723  0.00  0.00    +0.000 NA
ATOM      3  N   UNL     1       1.749   4.380  19.951  0.00  0.00    +0.000 NA
ATOM      4  C   UNL     1       2.065   4.777  18.735  0.00  0.00    +0.000 A 
ATOM      5  O   UNL     1       2.173   6.140  18.644  0.00  0.00    +0.000 OA
ENDROOT
BRANCH   1   6
ATOM      6  C   UNL     1       1.924   7.986  20.217  0.00  0.00    +0.000 C 
BRANCH   6   7
ATOM      7  C   UNL     1       1.194   8.294  21.523  0.00  0.00    +0.000 C 
BRANCH   7   8
ATOM      8  C   UNL     1       0.394   9.593  21.441  0.00  0.00    +0.000 C 
BRANCH   8   9
ATOM      9  C   UNL     1       0.069   9.934  19.983  0.00  0.00    +0.000 C 
BRANCH   9  10
ATOM     10  C   UNL     1      -0.274  11.416  19.765  0.00  0.00    +0.000 C 
BRANCH  10  15
ATOM     11  C   UNL     1      -0.224  16.110  18.598  0.00  0.00    +0.000 C 
ATOM     12  N   UNL     1       0.220  15.127  19.580  0.00  0.00    +0.000 NA
ATOM     13  C   UNL     1       1.121  14.133  18.969  0.00  0.00    +0.000 C 
ATOM     14  C   UNL     1       1.560  13.052  19.985  0.00  0.00    +0.000 C 
ATOM     15  N   UNL     1       0.448  12.340  20.652  0.00  0.00    +0.000 NA
ATOM     16  C   UNL     1      -0.468  13.358  21.218  0.00  0.00    +0.000 C 
ATOM     17  C   UNL     1      -0.923  14.450  20.219  0.00  0.00    +0.000 C 
ENDBRANCH  10  15
ENDBRANCH   9  10
ENDBRANCH   8   9
ENDBRANCH   7   8
ENDBRANCH   6   7
ENDBRANCH   1   6
BRANCH   4  18
ATOM     18  S   UNL     1       2.341   3.729  17.382  0.00  0.00    +0.000 S 
BRANCH  18  19
ATOM     19  C   UNL     1       3.850   2.872  17.921  0.00  0.00    +0.000 C 
BRANCH  19  20
ATOM     20  C   UNL     1       5.073   3.670  17.516  0.00  0.00    +0.000 A 
ATOM     21  C   UNL     1       5.817   4.369  18.482  0.00  0.00    +0.000 A 
ATOM     22  C   UNL     1       6.903   5.173  18.095  0.00  0.00    +0.000 A 
ATOM     23  C   UNL     1       7.265   5.293  16.747  0.00  0.00    +0.000 A 
ATOM     24  C   UNL     1       6.525   4.591  15.787  0.00  0.00    +0.000 A 
ATOM     25  C   UNL     1       5.438   3.783  16.164  0.00  0.00    +0.000 A 
BRANCH  22  26
ATOM     26  N   UNL     1       7.658   5.912  19.118  0.00  0.00    +0.000 N 
ATOM     27  O   UNL     1       8.223   6.958  18.770  0.00  0.00    +0.000 OA
ATOM     28  O   UNL     1       7.681   5.445  20.264  0.00  0.00    +0.000 OA
ENDBRANCH  22  26
BRANCH  24  29
ATOM     29  N   UNL     1       6.881   4.716  14.366  0.00  0.00    +0.000 N 
ATOM     30  O   UNL     1       7.749   5.544  14.061  0.00  0.00    +0.000 OA
ATOM     31  O   UNL     1       6.289   3.982  13.561  0.00  0.00    +0.000 OA
ENDBRANCH  24  29
ENDBRANCH  19  20
ENDBRANCH  18  19
ENDBRANCH   4  18
TORSDOF 11
ENDMDL
