MODEL 1
REMARK VINA RESULT:      -7.7      0.000      0.000
REMARK  Name = 
REMARK  5 active torsions:
REMARK  status: ('A' for Active; 'I' for Inactive)
REMARK    1  A    between atoms: C_2  and  O_3
REMARK    2  A    between atoms: C_2  and  C_4
REMARK    3  A    between atoms: C_4  and  C_5
REMARK    4  A    between atoms: C_7  and  C_8
REMARK    5  A    between atoms: C_15  and  C_16
REMARK                            x       y       z     vdW  Elec       q    Type
REMARK                         _______ _______ _______ _____ _____    ______ ____
ROOT
ATOM      1  C   UNL     1       6.362   4.338  17.710  0.00  0.00    +0.000 A 
ATOM      2  N   UNL     1       5.533   4.100  18.790  0.00  0.00    +0.000 NA
ATOM      3  C   UNL     1       4.336   3.955  18.250  0.00  0.00    +0.000 A 
ATOM      4  O   UNL     1       4.333   4.032  16.882  0.00  0.00    +0.000 OA
ATOM      5  C   UNL     1       5.648   4.207  16.533  0.00  0.00    +0.000 A 
ENDROOT
BRANCH   3   6
ATOM      6  C   UNL     1       3.042   3.744  18.901  0.00  0.00    +0.000 A 
ATOM      7  C   UNL     1       2.139   2.812  18.370  0.00  0.00    +0.000 A 
ATOM      8  C   UNL     1       0.900   2.587  18.979  0.00  0.00    +0.000 A 
ATOM      9  C   UNL     1       0.548   3.295  20.126  0.00  0.00    +0.000 A 
ATOM     10  C   UNL     1       1.431   4.224  20.666  0.00  0.00    +0.000 A 
ATOM     11  C   UNL     1       2.672   4.446  20.058  0.00  0.00    +0.000 A 
ENDBRANCH   3   6
BRANCH   5  12
ATOM     12  C   UNL     1       6.147   4.264  15.132  0.00  0.00    +0.000 A 
ATOM     13  C   UNL     1       5.630   3.535  14.021  0.00  0.00    +0.000 A 
ATOM     14  C   UNL     1       6.309   3.816  12.855  0.00  0.00    +0.000 A 
ATOM     15  S   UNL     1       7.570   4.942  13.101  0.00  0.00    +0.000 S 
ATOM     16  C   UNL     1       7.180   5.097  14.763  0.00  0.00    +0.000 A 
ENDBRANCH   5  12
BRANCH   1  17
ATOM     17  C   UNL     1       7.769   4.753  17.943  0.00  0.00    +0.000 C 
BRANCH  17  19
ATOM     18  O   UNL     1       8.100   7.029  18.633  0.00  0.00    +0.000 OA
ATOM     19  C   UNL     1       7.909   5.861  18.950  0.00  0.00    +0.000 C 
BRANCH  19  20
ATOM     20  O   UNL     1       7.766   5.489  20.242  0.00  0.00    +0.000 OA
ATOM     21  H   UNL     1       7.120   4.761  20.371  0.00  0.00    +0.000 HD
ENDBRANCH  19  20
ENDBRANCH  17  19
ENDBRANCH   1  17
TORSDOF 5
ENDMDL
MODEL 2
REMARK VINA RESULT:      -7.7      0.064      1.078
REMARK  Name = 
REMARK  5 active torsions:
REMARK  status: ('A' for Active; 'I' for Inactive)
REMARK    1  A    between atoms: C_2  and  O_3
REMARK    2  A    between atoms: C_2  and  C_4
REMARK    3  A    between atoms: C_4  and  C_5
REMARK    4  A    between atoms: C_7  and  C_8
REMARK    5  A    between atoms: C_15  and  C_16
REMARK                            x       y       z     vdW  Elec       q    Type
REMARK                         _______ _______ _______ _____ _____    ______ ____
ROOT
ATOM      1  C   UNL     1       6.370   4.366  17.705  0.00  0.00    +0.000 A 
ATOM      2  N   UNL     1       5.537   4.124  18.782  0.00  0.00    +0.000 NA
ATOM      3  C   UNL     1       4.342   3.976  18.236  0.00  0.00    +0.000 A 
ATOM      4  O   UNL     1       4.345   4.053  16.869  0.00  0.00    +0.000 OA
ATOM      5  C   UNL     1       5.661   4.233  16.525  0.00  0.00    +0.000 A 
ENDROOT
BRANCH   3   6
ATOM      6  C   UNL     1       3.047   3.759  18.881  0.00  0.00    +0.000 A 
ATOM      7  C   UNL     1       2.672   4.553  19.975  0.00  0.00    +0.000 A 
ATOM      8  C   UNL     1       1.436   4.370  20.604  0.00  0.00    +0.000 A 
ATOM      9  C   UNL     1       0.560   3.387  20.147  0.00  0.00    +0.000 A 
ATOM     10  C   UNL     1       0.916   2.590  19.065  0.00  0.00    +0.000 A 
ATOM     11  C   UNL     1       2.151   2.775  18.434  0.00  0.00    +0.000 A 
ENDBRANCH   3   6
BRANCH   5  12
ATOM     12  C   UNL     1       6.167   4.293  15.127  0.00  0.00    +0.000 A 
ATOM     13  C   UNL     1       5.660   3.560  14.014  0.00  0.00    +0.000 A 
ATOM     14  C   UNL     1       6.342   3.845  12.851  0.00  0.00    +0.000 A 
ATOM     15  S   UNL     1       7.593   4.981  13.102  0.00  0.00    +0.000 S 
ATOM     16  C   UNL     1       7.195   5.134  14.762  0.00  0.00    +0.000 A 
ENDBRANCH   5  12
BRANCH   1  17
ATOM     17  C   UNL     1       7.774   4.786  17.946  0.00  0.00    +0.000 C 
BRANCH  17  19
ATOM     18  O   UNL     1       8.105   7.055  18.655  0.00  0.00    +0.000 OA
ATOM     19  C   UNL     1       7.907   5.886  18.962  0.00  0.00    +0.000 C 
BRANCH  19  20
ATOM     20  O   UNL     1       7.749   5.505  20.250  0.00  0.00    +0.000 OA
ATOM     21  H   UNL     1       8.446   4.889  20.565  0.00  0.00    +0.000 HD
ENDBRANCH  19  20
ENDBRANCH  17  19
ENDBRANCH   1  17
TORSDOF 5
ENDMDL
MODEL 3
REMARK VINA RESULT:      -7.6      2.373      5.956
REMARK  Name = 
REMARK  5 active torsions:
REMARK  status: ('A' for Active; 'I' for Inactive)
REMARK    1  A    between atoms: C_2  and  O_3
REMARK    2  A    between atoms: C_2  and  C_4
REMARK    3  A    between atoms: C_4  and  C_5
REMARK    4  A    between atoms: C_7  and  C_8
REMARK    5  A    between atoms: C_15  and  C_16
REMARK                            x       y       z     vdW  Elec       q    Type
REMARK                         _______ _______ _______ _____ _____    ______ ____
ROOT
ATOM      1  C   UNL     1       5.710   4.909  17.923  0.00  0.00    +0.000 A 
ATOM      2  N   UNL     1       6.496   5.162  16.814  0.00  0.00    +0.000 NA
ATOM      3  C   UNL     1       5.880   4.530  15.832  0.00  0.00    +0.000 A 
ATOM      4  O   UNL     1       4.714   3.920  16.212  0.00  0.00    +0.000 OA
ATOM      5  C   UNL     1       4.570   4.225  17.541  0.00  0.00    +0.000 A 
ENDROOT
BRANCH   3   6
ATOM      6  C   UNL     1       6.273   4.384  14.430  0.00  0.00    +0.000 A 
ATOM      7  C   UNL     1       7.348   5.131  13.926  0.00  0.00    +0.000 A 
ATOM      8  C   UNL     1       7.748   5.004  12.592  0.00  0.00    +0.000 A 
ATOM      9  C   UNL     1       7.074   4.128  11.742  0.00  0.00    +0.000 A 
ATOM     10  C   UNL     1       6.005   3.380  12.225  0.00  0.00    +0.000 A 
ATOM     11  C   UNL     1       5.608   3.505  13.561  0.00  0.00    +0.000 A 
ENDBRANCH   3   6
BRANCH   5  12
ATOM     12  C   UNL     1       3.396   3.842  18.372  0.00  0.00    +0.000 A 
ATOM     13  C   UNL     1       2.089   4.407  18.299  0.00  0.00    +0.000 A 
ATOM     14  C   UNL     1       1.222   3.827  19.199  0.00  0.00    +0.000 A 
ATOM     15  S   UNL     1       1.982   2.616  20.135  0.00  0.00    +0.000 S 
ATOM     16  C   UNL     1       3.465   2.829  19.303  0.00  0.00    +0.000 A 
ENDBRANCH   5  12
BRANCH   1  17
ATOM     17  C   UNL     1       6.198   5.296  19.271  0.00  0.00    +0.000 C 
BRANCH  17  19
ATOM     18  O   UNL     1       8.512   5.109  19.881  0.00  0.00    +0.000 OA
ATOM     19  C   UNL     1       7.638   5.729  19.288  0.00  0.00    +0.000 C 
BRANCH  19  20
ATOM     20  O   UNL     1       7.917   6.835  18.563  0.00  0.00    +0.000 OA
ATOM     21  H   UNL     1       7.623   6.776  17.627  0.00  0.00    +0.000 HD
ENDBRANCH  19  20
ENDBRANCH  17  19
ENDBRANCH   1  17
TORSDOF 5
ENDMDL
MODEL 4
REMARK VINA RESULT:      -7.6      2.369      5.889
REMARK  Name = 
REMARK  5 active torsions:
REMARK  status: ('A' for Active; 'I' for Inactive)
REMARK    1  A    between atoms: C_2  and  O_3
REMARK    2  A    between atoms: C_2  and  C_4
REMARK    3  A    between atoms: C_4  and  C_5
REMARK    4  A    between atoms: C_7  and  C_8
REMARK    5  A    between atoms: C_15  and  C_16
REMARK                            x       y       z     vdW  Elec       q    Type
REMARK                         _______ _______ _______ _____ _____    ______ ____
ROOT
ATOM      1  C   UNL     1       5.678   5.027  17.885  0.00  0.00    +0.000 A 
ATOM      2  N   UNL     1       6.467   5.293  16.781  0.00  0.00    +0.000 NA
ATOM      3  C   UNL     1       5.895   4.609  15.806  0.00  0.00    +0.000 A 
ATOM      4  O   UNL     1       4.754   3.953  16.185  0.00  0.00    +0.000 OA
ATOM      5  C   UNL     1       4.577   4.281  17.505  0.00  0.00    +0.000 A 
ENDROOT
BRANCH   3   6
ATOM      6  C   UNL     1       6.314   4.450  14.412  0.00  0.00    +0.000 A 
ATOM      7  C   UNL     1       5.626   3.561  13.574  0.00  0.00    +0.000 A 
ATOM      8  C   UNL     1       6.003   3.398  12.237  0.00  0.00    +0.000 A 
ATOM      9  C   UNL     1       7.077   4.121  11.722  0.00  0.00    +0.000 A 
ATOM     10  C   UNL     1       7.772   5.006  12.540  0.00  0.00    +0.000 A 
ATOM     11  C   UNL     1       7.393   5.171  13.876  0.00  0.00    +0.000 A 
ENDBRANCH   3   6
BRANCH   5  12
ATOM     12  C   UNL     1       3.412   3.861  18.330  0.00  0.00    +0.000 A 
ATOM     13  C   UNL     1       2.104   4.429  18.295  0.00  0.00    +0.000 A 
ATOM     14  C   UNL     1       1.246   3.810  19.177  0.00  0.00    +0.000 A 
ATOM     15  S   UNL     1       2.014   2.559  20.050  0.00  0.00    +0.000 S 
ATOM     16  C   UNL     1       3.490   2.808  19.214  0.00  0.00    +0.000 A 
ENDBRANCH   5  12
BRANCH   1  17
ATOM     17  C   UNL     1       6.128   5.468  19.229  0.00  0.00    +0.000 C 
BRANCH  17  19
ATOM     18  O   UNL     1       8.399   5.078  19.903  0.00  0.00    +0.000 OA
ATOM     19  C   UNL     1       7.598   5.780  19.300  0.00  0.00    +0.000 C 
BRANCH  19  20
ATOM     20  O   UNL     1       7.989   6.875  18.609  0.00  0.00    +0.000 OA
ATOM     21  H   UNL     1       7.529   7.698  18.886  0.00  0.00    +0.000 HD
ENDBRANCH  19  20
ENDBRANCH  17  19
ENDBRANCH   1  17
TORSDOF 5
ENDMDL
MODEL 5
REMARK VINA RESULT:      -7.2      3.815      6.893
REMARK  Name = 
REMARK  5 active torsions:
REMARK  status: ('A' for Active; 'I' for Inactive)
REMARK    1  A    between atoms: C_2  and  O_3
REMARK    2  A    between atoms: C_2  and  C_4
REMARK    3  A    between atoms: C_4  and  C_5
REMARK    4  A    between atoms: C_7  and  C_8
REMARK    5  A    between atoms: C_15  and  C_16
REMARK                            x       y       z     vdW  Elec       q    Type
REMARK                         _______ _______ _______ _____ _____    ______ ____
ROOT
ATOM      1  C   UNL     1       2.409   5.451  19.892  0.00  0.00    +0.000 A 
ATOM      2  N   UNL     1       3.401   4.672  19.326  0.00  0.00    +0.000 NA
ATOM      3  C   UNL     1       4.003   5.485  18.476  0.00  0.00    +0.000 A 
ATOM      4  O   UNL     1       3.505   6.761  18.484  0.00  0.00    +0.000 OA
ATOM      5  C   UNL     1       2.527   6.755  19.446  0.00  0.00    +0.000 A 
ENDROOT
BRANCH   3   6
ATOM      6  C   UNL     1       5.094   5.209  17.541  0.00  0.00    +0.000 A 
ATOM      7  C   UNL     1       4.890   5.373  16.163  0.00  0.00    +0.000 A 
ATOM      8  C   UNL     1       5.919   5.123  15.250  0.00  0.00    +0.000 A 
ATOM      9  C   UNL     1       7.167   4.701  15.704  0.00  0.00    +0.000 A 
ATOM     10  C   UNL     1       7.387   4.532  17.067  0.00  0.00    +0.000 A 
ATOM     11  C   UNL     1       6.358   4.786  17.981  0.00  0.00    +0.000 A 
ENDBRANCH   3   6
BRANCH   5  12
ATOM     12  C   UNL     1       1.753   7.954  19.869  0.00  0.00    +0.000 A 
ATOM     13  C   UNL     1       1.237   8.208  21.174  0.00  0.00    +0.000 A 
ATOM     14  C   UNL     1       0.572   9.413  21.243  0.00  0.00    +0.000 A 
ATOM     15  S   UNL     1       0.561  10.228  19.741  0.00  0.00    +0.000 S 
ATOM     16  C   UNL     1       1.490   8.992  19.002  0.00  0.00    +0.000 A 
ENDBRANCH   5  12
BRANCH   1  17
ATOM     17  C   UNL     1       1.385   4.817  20.760  0.00  0.00    +0.000 C 
BRANCH  17  19
ATOM     18  O   UNL     1       2.059   3.023  22.206  0.00  0.00    +0.000 OA
ATOM     19  C   UNL     1       1.686   3.382  21.096  0.00  0.00    +0.000 C 
BRANCH  19  20
ATOM     20  O   UNL     1       1.476   2.498  20.095  0.00  0.00    +0.000 OA
ATOM     21  H   UNL     1       2.304   2.175  19.676  0.00  0.00    +0.000 HD
ENDBRANCH  19  20
ENDBRANCH  17  19
ENDBRANCH   1  17
TORSDOF 5
ENDMDL
MODEL 6
REMARK VINA RESULT:      -7.2      3.790      5.210
REMARK  Name = 
REMARK  5 active torsions:
REMARK  status: ('A' for Active; 'I' for Inactive)
REMARK    1  A    between atoms: C_2  and  O_3
REMARK    2  A    between atoms: C_2  and  C_4
REMARK    3  A    between atoms: C_4  and  C_5
REMARK    4  A    between atoms: C_7  and  C_8
REMARK    5  A    between atoms: C_15  and  C_16
REMARK                            x       y       z     vdW  Elec       q    Type
REMARK                         _______ _______ _______ _____ _____    ______ ____
ROOT
ATOM      1  C   UNL     1       2.878   4.711  19.601  0.00  0.00    +0.000 A 
ATOM      2  N   UNL     1       1.937   5.532  20.193  0.00  0.00    +0.000 NA
ATOM      3  C   UNL     1       2.257   6.743  19.772  0.00  0.00    +0.000 A 
ATOM      4  O   UNL     1       3.315   6.765  18.903  0.00  0.00    +0.000 OA
ATOM      5  C   UNL     1       3.668   5.450  18.739  0.00  0.00    +0.000 A 
ENDROOT
BRANCH   3   6
ATOM      6  C   UNL     1       1.657   8.034  20.113  0.00  0.00    +0.000 A 
ATOM      7  C   UNL     1       1.431   8.985  19.107  0.00  0.00    +0.000 A 
ATOM      8  C   UNL     1       0.852  10.222  19.407  0.00  0.00    +0.000 A 
ATOM      9  C   UNL     1       0.494  10.525  20.719  0.00  0.00    +0.000 A 
ATOM     10  C   UNL     1       0.711   9.594  21.729  0.00  0.00    +0.000 A 
ATOM     11  C   UNL     1       1.287   8.355  21.428  0.00  0.00    +0.000 A 
ENDBRANCH   3   6
BRANCH   5  12
ATOM     12  C   UNL     1       4.729   4.971  17.811  0.00  0.00    +0.000 A 
ATOM     13  C   UNL     1       4.540   4.136  16.672  0.00  0.00    +0.000 A 
ATOM     14  C   UNL     1       5.723   3.878  16.015  0.00  0.00    +0.000 A 
ATOM     15  S   UNL     1       7.056   4.630  16.774  0.00  0.00    +0.000 S 
ATOM     16  C   UNL     1       6.046   5.345  17.960  0.00  0.00    +0.000 A 
ENDBRANCH   5  12
BRANCH   1  17
ATOM     17  C   UNL     1       2.963   3.285  20.004  0.00  0.00    +0.000 C 
BRANCH  17  19
ATOM     18  O   UNL     1       2.482   2.666  22.273  0.00  0.00    +0.000 OA
ATOM     19  C   UNL     1       2.061   2.930  21.154  0.00  0.00    +0.000 C 
BRANCH  19  20
ATOM     20  O   UNL     1       0.737   2.963  20.880  0.00  0.00    +0.000 OA
ATOM     21  H   UNL     1       0.272   3.727  21.285  0.00  0.00    +0.000 HD
ENDBRANCH  19  20
ENDBRANCH  17  19
ENDBRANCH   1  17
TORSDOF 5
ENDMDL
MODEL 7
REMARK VINA RESULT:      -7.1      3.952      6.899
REMARK  Name = 
REMARK  5 active torsions:
REMARK  status: ('A' for Active; 'I' for Inactive)
REMARK    1  A    between atoms: C_2  and  O_3
REMARK    2  A    between atoms: C_2  and  C_4
REMARK    3  A    between atoms: C_4  and  C_5
REMARK    4  A    between atoms: C_7  and  C_8
REMARK    5  A    between atoms: C_15  and  C_16
REMARK                            x       y       z     vdW  Elec       q    Type
REMARK                         _______ _______ _______ _____ _____    ______ ____
ROOT
ATOM      1  C   UNL     1       2.401   5.419  19.787  0.00  0.00    +0.000 A 
ATOM      2  N   UNL     1       3.369   4.613  19.218  0.00  0.00    +0.000 NA
ATOM      3  C   UNL     1       3.996   5.413  18.374  0.00  0.00    +0.000 A 
ATOM      4  O   UNL     1       3.536   6.703  18.389  0.00  0.00    +0.000 OA
ATOM      5  C   UNL     1       2.558   6.721  19.350  0.00  0.00    +0.000 A 
ENDROOT
BRANCH   3   6
ATOM      6  C   UNL     1       5.080   5.110  17.438  0.00  0.00    +0.000 A 
ATOM      7  C   UNL     1       6.372   4.863  17.924  0.00  0.00    +0.000 A 
ATOM      8  C   UNL     1       7.422   4.564  17.050  0.00  0.00    +0.000 A 
ATOM      9  C   UNL     1       7.193   4.511  15.676  0.00  0.00    +0.000 A 
ATOM     10  C   UNL     1       5.918   4.755  15.177  0.00  0.00    +0.000 A 
ATOM     11  C   UNL     1       4.867   5.051  16.052  0.00  0.00    +0.000 A 
ENDBRANCH   3   6
BRANCH   5  12
ATOM     12  C   UNL     1       1.820   7.940  19.779  0.00  0.00    +0.000 A 
ATOM     13  C   UNL     1       1.411   9.019  18.941  0.00  0.00    +0.000 A 
ATOM     14  C   UNL     1       0.739   9.995  19.643  0.00  0.00    +0.000 A 
ATOM     15  S   UNL     1       0.612   9.620  21.304  0.00  0.00    +0.000 S 
ATOM     16  C   UNL     1       1.414   8.122  21.083  0.00  0.00    +0.000 A 
ENDBRANCH   5  12
BRANCH   1  17
ATOM     17  C   UNL     1       1.357   4.810  20.651  0.00  0.00    +0.000 C 
BRANCH  17  19
ATOM     18  O   UNL     1       2.145   3.178  22.225  0.00  0.00    +0.000 OA
ATOM     19  C   UNL     1       1.694   3.419  21.112  0.00  0.00    +0.000 C 
BRANCH  19  20
ATOM     20  O   UNL     1       1.423   2.435  20.226  0.00  0.00    +0.000 OA
ATOM     21  H   UNL     1       0.752   1.793  20.545  0.00  0.00    +0.000 HD
ENDBRANCH  19  20
ENDBRANCH  17  19
ENDBRANCH   1  17
TORSDOF 5
ENDMDL
MODEL 8
REMARK VINA RESULT:      -7.1      1.158      1.397
REMARK  Name = 
REMARK  5 active torsions:
REMARK  status: ('A' for Active; 'I' for Inactive)
REMARK    1  A    between atoms: C_2  and  O_3
REMARK    2  A    between atoms: C_2  and  C_4
REMARK    3  A    between atoms: C_4  and  C_5
REMARK    4  A    between atoms: C_7  and  C_8
REMARK    5  A    between atoms: C_15  and  C_16
REMARK                            x       y       z     vdW  Elec       q    Type
REMARK                         _______ _______ _______ _____ _____    ______ ____
ROOT
ATOM      1  C   UNL     1       5.549   5.861  17.149  0.00  0.00    +0.000 A 
ATOM      2  N   UNL     1       4.753   5.687  18.265  0.00  0.00    +0.000 NA
ATOM      3  C   UNL     1       3.912   4.730  17.913  0.00  0.00    +0.000 A 
ATOM      4  O   UNL     1       4.137   4.229  16.659  0.00  0.00    +0.000 OA
ATOM      5  C   UNL     1       5.235   4.909  16.196  0.00  0.00    +0.000 A 
ENDROOT
BRANCH   3   6
ATOM      6  C   UNL     1       2.792   4.156  18.661  0.00  0.00    +0.000 A 
ATOM      7  C   UNL     1       2.000   3.158  18.074  0.00  0.00    +0.000 A 
ATOM      8  C   UNL     1       0.929   2.590  18.770  0.00  0.00    +0.000 A 
ATOM      9  C   UNL     1       0.634   3.016  20.064  0.00  0.00    +0.000 A 
ATOM     10  C   UNL     1       1.408   4.006  20.661  0.00  0.00    +0.000 A 
ATOM     11  C   UNL     1       2.481   4.572  19.965  0.00  0.00    +0.000 A 
ENDBRANCH   3   6
BRANCH   5  12
ATOM     12  C   UNL     1       5.903   4.645  14.893  0.00  0.00    +0.000 A 
ATOM     13  C   UNL     1       7.180   5.130  14.485  0.00  0.00    +0.000 A 
ATOM     14  C   UNL     1       7.519   4.700  13.220  0.00  0.00    +0.000 A 
ATOM     15  S   UNL     1       6.300   3.725  12.525  0.00  0.00    +0.000 S 
ATOM     16  C   UNL     1       5.333   3.835  13.935  0.00  0.00    +0.000 A 
ENDBRANCH   5  12
BRANCH   1  17
ATOM     17  C   UNL     1       6.493   7.006  17.094  0.00  0.00    +0.000 C 
BRANCH  17  19
ATOM     18  O   UNL     1       8.325   7.846  18.399  0.00  0.00    +0.000 OA
ATOM     19  C   UNL     1       7.635   6.891  18.067  0.00  0.00    +0.000 C 
BRANCH  19  20
ATOM     20  O   UNL     1       7.825   5.658  18.590  0.00  0.00    +0.000 OA
ATOM     21  H   UNL     1       8.468   5.643  19.332  0.00  0.00    +0.000 HD
ENDBRANCH  19  20
ENDBRANCH  17  19
ENDBRANCH   1  17
TORSDOF 5
ENDMDL
MODEL 9
REMARK VINA RESULT:      -7.1      1.159      1.764
REMARK  Name = 
REMARK  5 active torsions:
REMARK  status: ('A' for Active; 'I' for Inactive)
REMARK    1  A    between atoms: C_2  and  O_3
REMARK    2  A    between atoms: C_2  and  C_4
REMARK    3  A    between atoms: C_4  and  C_5
REMARK    4  A    between atoms: C_7  and  C_8
REMARK    5  A    between atoms: C_15  and  C_16
REMARK                            x       y       z     vdW  Elec       q    Type
REMARK                         _______ _______ _______ _____ _____    ______ ____
ROOT
ATOM      1  C   UNL     1       5.549   5.860  17.140  0.00  0.00    +0.000 A 
ATOM      2  N   UNL     1       4.741   5.680  18.247  0.00  0.00    +0.000 NA
ATOM      3  C   UNL     1       3.898   4.731  17.879  0.00  0.00    +0.000 A 
ATOM      4  O   UNL     1       4.133   4.241  16.622  0.00  0.00    +0.000 OA
ATOM      5  C   UNL     1       5.239   4.918  16.176  0.00  0.00    +0.000 A 
ENDROOT
BRANCH   3   6
ATOM      6  C   UNL     1       2.767   4.158  18.610  0.00  0.00    +0.000 A 
ATOM      7  C   UNL     1       2.356   4.734  19.821  0.00  0.00    +0.000 A 
ATOM      8  C   UNL     1       1.274   4.209  20.534  0.00  0.00    +0.000 A 
ATOM      9  C   UNL     1       0.590   3.098  20.046  0.00  0.00    +0.000 A 
ATOM     10  C   UNL     1       0.985   2.513  18.847  0.00  0.00    +0.000 A 
ATOM     11  C   UNL     1       2.066   3.040  18.132  0.00  0.00    +0.000 A 
ENDBRANCH   3   6
BRANCH   5  12
ATOM     12  C   UNL     1       5.917   4.661  14.877  0.00  0.00    +0.000 A 
ATOM     13  C   UNL     1       7.198   5.150  14.482  0.00  0.00    +0.000 A 
ATOM     14  C   UNL     1       7.547   4.727  13.218  0.00  0.00    +0.000 A 
ATOM     15  S   UNL     1       6.335   3.756  12.507  0.00  0.00    +0.000 S 
ATOM     16  C   UNL     1       5.355   3.857  13.910  0.00  0.00    +0.000 A 
ENDBRANCH   5  12
BRANCH   1  17
ATOM     17  C   UNL     1       6.501   6.999  17.105  0.00  0.00    +0.000 C 
BRANCH  17  19
ATOM     18  O   UNL     1       8.337   7.799  18.428  0.00  0.00    +0.000 OA
ATOM     19  C   UNL     1       7.649   6.853  18.065  0.00  0.00    +0.000 C 
BRANCH  19  20
ATOM     20  O   UNL     1       7.848   5.604  18.543  0.00  0.00    +0.000 OA
ATOM     21  H   UNL     1       7.889   5.560  19.523  0.00  0.00    +0.000 HD
ENDBRANCH  19  20
ENDBRANCH  17  19
ENDBRANCH   1  17
TORSDOF 5
ENDMDL
