MODEL 1
REMARK VINA RESULT:      -7.9      0.000      0.000
REMARK  Name = 
REMARK  4 active torsions:
REMARK  status: ('A' for Active; 'I' for Inactive)
REMARK    1  A    between atoms: C_1  and  N_2
REMARK    2  A    between atoms: N_2  and  C_3
REMARK    3  A    between atoms: N_2  and  C_4
REMARK    4  A    between atoms: C_16  and  C_17
REMARK                            x       y       z     vdW  Elec       q    Type
REMARK                         _______ _______ _______ _____ _____    ______ ____
ROOT
ATOM      1  C   UNL     1       3.655   4.764  18.977  0.00  0.00    +0.000 A 
ATOM      2  C   UNL     1       3.399   3.907  19.991  0.00  0.00    +0.000 A 
ATOM      3 CL   UNL     1       4.180   2.357  20.112  0.00  0.00    +0.000 Cl
ATOM      4  C   UNL     1       2.477   4.215  21.110  0.00  0.00    +0.000 A 
ATOM      5  O   UNL     1       2.191   3.408  21.989  0.00  0.00    +0.000 OA
ATOM      6  O   UNL     1       1.942   5.489  21.132  0.00  0.00    +0.000 OA
ATOM      7  C   UNL     1       2.184   6.420  20.107  0.00  0.00    +0.000 A 
ATOM      8  C   UNL     1       3.000   6.097  19.021  0.00  0.00    +0.000 A 
ATOM      9  C   UNL     1       3.162   7.060  18.015  0.00  0.00    +0.000 A 
ATOM     10  C   UNL     1       2.561   8.327  18.096  0.00  0.00    +0.000 A 
ATOM     11  C   UNL     1       1.750   8.646  19.201  0.00  0.00    +0.000 A 
ATOM     12  N   UNL     1       1.082   9.842  19.412  0.00  0.00    +0.000 NA
ATOM     13  C   UNL     1       0.366   9.779  20.518  0.00  0.00    +0.000 A 
ATOM     14  S   UNL     1       0.532   8.311  21.400  0.00  0.00    +0.000 S 
ATOM     15  C   UNL     1       1.571   7.682  20.188  0.00  0.00    +0.000 A 
ENDROOT
BRANCH  13  16
ATOM     16  C   UNL     1      -0.493  10.863  21.028  0.00  0.00    +0.000 A 
ATOM     17  C   UNL     1      -1.113  11.796  20.177  0.00  0.00    +0.000 A 
ATOM     18  C   UNL     1      -1.930  12.807  20.690  0.00  0.00    +0.000 A 
ATOM     19  C   UNL     1      -2.136  12.907  22.063  0.00  0.00    +0.000 A 
ATOM     20  C   UNL     1      -1.519  12.001  22.924  0.00  0.00    +0.000 A 
ATOM     21  C   UNL     1      -0.700  10.991  22.411  0.00  0.00    +0.000 A 
ENDBRANCH  13  16
BRANCH   1  23
ATOM     22  C   UNL     1       4.067   3.690  16.756  0.00  0.00    +0.000 C 
ATOM     23  N   UNL     1       4.503   4.529  17.878  0.00  0.00    +0.000 N 
ATOM     24  C   UNL     1       5.958   4.641  18.042  0.00  0.00    +0.000 C 
ENDBRANCH   1  23
TORSDOF 2
ENDMDL
MODEL 2
REMARK VINA RESULT:      -7.8      3.242      7.815
REMARK  Name = 
REMARK  4 active torsions:
REMARK  status: ('A' for Active; 'I' for Inactive)
REMARK    1  A    between atoms: C_1  and  N_2
REMARK    2  A    between atoms: N_2  and  C_3
REMARK    3  A    between atoms: N_2  and  C_4
REMARK    4  A    between atoms: C_16  and  C_17
REMARK                            x       y       z     vdW  Elec       q    Type
REMARK                         _______ _______ _______ _____ _____    ______ ____
ROOT
ATOM      1  C   UNL     1       0.563  11.433  20.327  0.00  0.00    +0.000 A 
ATOM      2  C   UNL     1       0.141  11.325  21.607  0.00  0.00    +0.000 A 
ATOM      3 CL   UNL     1      -0.606  12.652  22.449  0.00  0.00    +0.000 Cl
ATOM      4  C   UNL     1       0.229  10.073  22.394  0.00  0.00    +0.000 A 
ATOM      5  O   UNL     1      -0.087   9.998  23.577  0.00  0.00    +0.000 OA
ATOM      6  O   UNL     1       0.685   8.954  21.723  0.00  0.00    +0.000 OA
ATOM      7  C   UNL     1       1.127   9.011  20.389  0.00  0.00    +0.000 A 
ATOM      8  C   UNL     1       1.106  10.211  19.676  0.00  0.00    +0.000 A 
ATOM      9  C   UNL     1       1.602  10.202  18.365  0.00  0.00    +0.000 A 
ATOM     10  C   UNL     1       2.076   9.027  17.758  0.00  0.00    +0.000 A 
ATOM     11  C   UNL     1       2.083   7.821  18.483  0.00  0.00    +0.000 A 
ATOM     12  N   UNL     1       2.531   6.591  18.028  0.00  0.00    +0.000 NA
ATOM     13  C   UNL     1       2.449   5.689  18.986  0.00  0.00    +0.000 A 
ATOM     14  S   UNL     1       1.747   6.257  20.451  0.00  0.00    +0.000 S 
ATOM     15  C   UNL     1       1.611   7.835  19.792  0.00  0.00    +0.000 A 
ENDROOT
BRANCH  13  16
ATOM     16  C   UNL     1       2.870   4.281  18.857  0.00  0.00    +0.000 A 
ATOM     17  C   UNL     1       3.869   3.718  19.672  0.00  0.00    +0.000 A 
ATOM     18  C   UNL     1       4.240   2.377  19.533  0.00  0.00    +0.000 A 
ATOM     19  C   UNL     1       3.624   1.580  18.572  0.00  0.00    +0.000 A 
ATOM     20  C   UNL     1       2.642   2.125  17.746  0.00  0.00    +0.000 A 
ATOM     21  C   UNL     1       2.273   3.466  17.884  0.00  0.00    +0.000 A 
ENDBRANCH  13  16
BRANCH   1  23
ATOM     22  C   UNL     1       1.496  13.675  19.729  0.00  0.00    +0.000 C 
ATOM     23  N   UNL     1       0.526  12.592  19.529  0.00  0.00    +0.000 N 
ATOM     24  C   UNL     1      -0.730  12.993  18.883  0.00  0.00    +0.000 C 
ENDBRANCH   1  23
TORSDOF 2
ENDMDL
MODEL 3
REMARK VINA RESULT:      -7.5      0.246      1.238
REMARK  Name = 
REMARK  4 active torsions:
REMARK  status: ('A' for Active; 'I' for Inactive)
REMARK    1  A    between atoms: C_1  and  N_2
REMARK    2  A    between atoms: N_2  and  C_3
REMARK    3  A    between atoms: N_2  and  C_4
REMARK    4  A    between atoms: C_16  and  C_17
REMARK                            x       y       z     vdW  Elec       q    Type
REMARK                         _______ _______ _______ _____ _____    ______ ____
ROOT
ATOM      1  C   UNL     1       3.727   4.538  19.035  0.00  0.00    +0.000 A 
ATOM      2  C   UNL     1       3.451   3.700  20.059  0.00  0.00    +0.000 A 
ATOM      3 CL   UNL     1       4.223   2.150  20.220  0.00  0.00    +0.000 Cl
ATOM      4  C   UNL     1       2.511   4.031  21.156  0.00  0.00    +0.000 A 
ATOM      5  O   UNL     1       2.207   3.241  22.044  0.00  0.00    +0.000 OA
ATOM      6  O   UNL     1       1.980   5.307  21.148  0.00  0.00    +0.000 OA
ATOM      7  C   UNL     1       2.244   6.220  20.111  0.00  0.00    +0.000 A 
ATOM      8  C   UNL     1       3.076   5.875  19.045  0.00  0.00    +0.000 A 
ATOM      9  C   UNL     1       3.259   6.820  18.025  0.00  0.00    +0.000 A 
ATOM     10  C   UNL     1       2.662   8.090  18.074  0.00  0.00    +0.000 A 
ATOM     11  C   UNL     1       1.833   8.431  19.159  0.00  0.00    +0.000 A 
ATOM     12  N   UNL     1       1.167   9.633  19.339  0.00  0.00    +0.000 NA
ATOM     13  C   UNL     1       0.432   9.591  20.433  0.00  0.00    +0.000 A 
ATOM     14  S   UNL     1       0.577   8.139  21.343  0.00  0.00    +0.000 S 
ATOM     15  C   UNL     1       1.634   7.485  20.160  0.00  0.00    +0.000 A 
ENDROOT
BRANCH  13  16
ATOM     16  C   UNL     1      -0.432  10.688  20.910  0.00  0.00    +0.000 A 
ATOM     17  C   UNL     1      -0.626  10.950  22.278  0.00  0.00    +0.000 A 
ATOM     18  C   UNL     1      -1.443  12.003  22.701  0.00  0.00    +0.000 A 
ATOM     19  C   UNL     1      -2.084  12.806  21.761  0.00  0.00    +0.000 A 
ATOM     20  C   UNL     1      -1.916  12.552  20.401  0.00  0.00    +0.000 A 
ATOM     21  C   UNL     1      -1.101  11.498  19.979  0.00  0.00    +0.000 A 
ENDBRANCH  13  16
BRANCH   1  23
ATOM     22  C   UNL     1       5.924   4.895  17.895  0.00  0.00    +0.000 C 
ATOM     23  N   UNL     1       4.593   4.282  17.955  0.00  0.00    +0.000 N 
ATOM     24  C   UNL     1       4.039   3.867  16.660  0.00  0.00    +0.000 C 
ENDBRANCH   1  23
TORSDOF 2
ENDMDL
MODEL 4
REMARK VINA RESULT:      -7.4      3.311      7.963
REMARK  Name = 
REMARK  4 active torsions:
REMARK  status: ('A' for Active; 'I' for Inactive)
REMARK    1  A    between atoms: C_1  and  N_2
REMARK    2  A    between atoms: N_2  and  C_3
REMARK    3  A    between atoms: N_2  and  C_4
REMARK    4  A    between atoms: C_16  and  C_17
REMARK                            x       y       z     vdW  Elec       q    Type
REMARK                         _______ _______ _______ _____ _____    ______ ____
ROOT
ATOM      1  C   UNL     1      -0.696  11.566  21.036  0.00  0.00    +0.000 A 
ATOM      2  C   UNL     1      -0.773  11.083  22.296  0.00  0.00    +0.000 A 
ATOM      3 CL   UNL     1      -1.746  11.844  23.521  0.00  0.00    +0.000 Cl
ATOM      4  C   UNL     1      -0.082   9.850  22.743  0.00  0.00    +0.000 A 
ATOM      5  O   UNL     1      -0.094   9.455  23.905  0.00  0.00    +0.000 OA
ATOM      6  O   UNL     1       0.589   9.134  21.770  0.00  0.00    +0.000 OA
ATOM      7  C   UNL     1       0.690   9.588  20.443  0.00  0.00    +0.000 A 
ATOM      8  C   UNL     1       0.094  10.786  20.047  0.00  0.00    +0.000 A 
ATOM      9  C   UNL     1       0.272  11.198  18.718  0.00  0.00    +0.000 A 
ATOM     10  C   UNL     1       0.993  10.426  17.793  0.00  0.00    +0.000 A 
ATOM     11  C   UNL     1       1.581   9.214  18.200  0.00  0.00    +0.000 A 
ATOM     12  N   UNL     1       2.330   8.356  17.410  0.00  0.00    +0.000 NA
ATOM     13  C   UNL     1       2.777   7.344  18.127  0.00  0.00    +0.000 A 
ATOM     14  S   UNL     1       2.246   7.331  19.763  0.00  0.00    +0.000 S 
ATOM     15  C   UNL     1       1.422   8.817  19.525  0.00  0.00    +0.000 A 
ENDROOT
BRANCH  13  16
ATOM     16  C   UNL     1       3.633   6.260  17.612  0.00  0.00    +0.000 A 
ATOM     17  C   UNL     1       3.316   4.902  17.792  0.00  0.00    +0.000 A 
ATOM     18  C   UNL     1       4.142   3.895  17.283  0.00  0.00    +0.000 A 
ATOM     19  C   UNL     1       5.303   4.231  16.592  0.00  0.00    +0.000 A 
ATOM     20  C   UNL     1       5.641   5.571  16.415  0.00  0.00    +0.000 A 
ATOM     21  C   UNL     1       4.817   6.577  16.926  0.00  0.00    +0.000 A 
ENDBRANCH  13  16
BRANCH   1  23
ATOM     22  C   UNL     1      -0.756  14.059  20.858  0.00  0.00    +0.000 C 
ATOM     23  N   UNL     1      -1.310  12.736  20.550  0.00  0.00    +0.000 N 
ATOM     24  C   UNL     1      -2.738  12.722  20.208  0.00  0.00    +0.000 C 
ENDBRANCH   1  23
TORSDOF 2
ENDMDL
MODEL 5
REMARK VINA RESULT:      -7.2      2.309      3.145
REMARK  Name = 
REMARK  4 active torsions:
REMARK  status: ('A' for Active; 'I' for Inactive)
REMARK    1  A    between atoms: C_1  and  N_2
REMARK    2  A    between atoms: N_2  and  C_3
REMARK    3  A    between atoms: N_2  and  C_4
REMARK    4  A    between atoms: C_16  and  C_17
REMARK                            x       y       z     vdW  Elec       q    Type
REMARK                         _______ _______ _______ _____ _____    ______ ____
ROOT
ATOM      1  C   UNL     1       3.925   4.318  18.066  0.00  0.00    +0.000 A 
ATOM      2  C   UNL     1       4.555   4.907  17.025  0.00  0.00    +0.000 A 
ATOM      3 CL   UNL     1       5.462   3.994  15.855  0.00  0.00    +0.000 Cl
ATOM      4  C   UNL     1       4.498   6.364  16.753  0.00  0.00    +0.000 A 
ATOM      5  O   UNL     1       5.129   6.905  15.851  0.00  0.00    +0.000 OA
ATOM      6  O   UNL     1       3.674   7.111  17.572  0.00  0.00    +0.000 OA
ATOM      7  C   UNL     1       2.990   6.544  18.663  0.00  0.00    +0.000 A 
ATOM      8  C   UNL     1       3.104   5.183  18.953  0.00  0.00    +0.000 A 
ATOM      9  C   UNL     1       2.429   4.696  20.081  0.00  0.00    +0.000 A 
ATOM     10  C   UNL     1       1.630   5.526  20.884  0.00  0.00    +0.000 A 
ATOM     11  C   UNL     1       1.513   6.894  20.575  0.00  0.00    +0.000 A 
ATOM     12  N   UNL     1       0.779   7.836  21.278  0.00  0.00    +0.000 NA
ATOM     13  C   UNL     1       0.939   9.033  20.749  0.00  0.00    +0.000 A 
ATOM     14  S   UNL     1       1.910   9.067  19.329  0.00  0.00    +0.000 S 
ATOM     15  C   UNL     1       2.202   7.382  19.469  0.00  0.00    +0.000 A 
ENDROOT
BRANCH  13  16
ATOM     16  C   UNL     1       0.327  10.272  21.264  0.00  0.00    +0.000 A 
ATOM     17  C   UNL     1      -0.504  10.284  22.398  0.00  0.00    +0.000 A 
ATOM     18  C   UNL     1      -1.063  11.476  22.870  0.00  0.00    +0.000 A 
ATOM     19  C   UNL     1      -0.805  12.674  22.209  0.00  0.00    +0.000 A 
ATOM     20  C   UNL     1       0.005  12.680  21.075  0.00  0.00    +0.000 A 
ATOM     21  C   UNL     1       0.562  11.488  20.602  0.00  0.00    +0.000 A 
ENDBRANCH  13  16
BRANCH   1  23
ATOM     22  C   UNL     1       2.953   2.025  17.841  0.00  0.00    +0.000 C 
ATOM     23  N   UNL     1       3.951   2.949  18.392  0.00  0.00    +0.000 N 
ATOM     24  C   UNL     1       4.585   2.509  19.640  0.00  0.00    +0.000 C 
ENDBRANCH   1  23
TORSDOF 2
ENDMDL
MODEL 6
REMARK VINA RESULT:      -7.2      4.113      8.584
REMARK  Name = 
REMARK  4 active torsions:
REMARK  status: ('A' for Active; 'I' for Inactive)
REMARK    1  A    between atoms: C_1  and  N_2
REMARK    2  A    between atoms: N_2  and  C_3
REMARK    3  A    between atoms: N_2  and  C_4
REMARK    4  A    between atoms: C_16  and  C_17
REMARK                            x       y       z     vdW  Elec       q    Type
REMARK                         _______ _______ _______ _____ _____    ______ ____
ROOT
ATOM      1  C   UNL     1      -1.051  12.403  21.225  0.00  0.00    +0.000 A 
ATOM      2  C   UNL     1      -1.083  13.283  20.199  0.00  0.00    +0.000 A 
ATOM      3 CL   UNL     1      -1.800  14.860  20.354  0.00  0.00    +0.000 Cl
ATOM      4  C   UNL     1      -0.478  13.014  18.872  0.00  0.00    +0.000 A 
ATOM      5  O   UNL     1      -0.572  13.784  17.921  0.00  0.00    +0.000 OA
ATOM      6  O   UNL     1       0.225  11.832  18.745  0.00  0.00    +0.000 OA
ATOM      7  C   UNL     1       0.296  10.888  19.785  0.00  0.00    +0.000 A 
ATOM      8  C   UNL     1      -0.335  11.119  21.009  0.00  0.00    +0.000 A 
ATOM      9  C   UNL     1      -0.258  10.115  21.984  0.00  0.00    +0.000 A 
ATOM     10  C   UNL     1       0.455   8.924  21.770  0.00  0.00    +0.000 A 
ATOM     11  C   UNL     1       1.097   8.706  20.536  0.00  0.00    +0.000 A 
ATOM     12  N   UNL     1       1.821   7.582  20.173  0.00  0.00    +0.000 NA
ATOM     13  C   UNL     1       2.234   7.684  18.925  0.00  0.00    +0.000 A 
ATOM     14  S   UNL     1       1.845   9.175  18.159  0.00  0.00    +0.000 S 
ATOM     15  C   UNL     1       1.001   9.694  19.560  0.00  0.00    +0.000 A 
ENDROOT
BRANCH  13  16
ATOM     16  C   UNL     1       3.006   6.655  18.205  0.00  0.00    +0.000 A 
ATOM     17  C   UNL     1       4.128   6.969  17.419  0.00  0.00    +0.000 A 
ATOM     18  C   UNL     1       4.847   5.970  16.756  0.00  0.00    +0.000 A 
ATOM     19  C   UNL     1       4.450   4.640  16.863  0.00  0.00    +0.000 A 
ATOM     20  C   UNL     1       3.331   4.310  17.627  0.00  0.00    +0.000 A 
ATOM     21  C   UNL     1       2.612   5.310  18.288  0.00  0.00    +0.000 A 
ENDBRANCH  13  16
BRANCH   1  23
ATOM     22  C   UNL     1      -3.028  12.264  22.750  0.00  0.00    +0.000 C 
ATOM     23  N   UNL     1      -1.619  12.586  22.500  0.00  0.00    +0.000 N 
ATOM     24  C   UNL     1      -1.028  13.558  23.428  0.00  0.00    +0.000 C 
ENDBRANCH   1  23
TORSDOF 2
ENDMDL
MODEL 7
REMARK VINA RESULT:      -6.9      3.474      7.984
REMARK  Name = 
REMARK  4 active torsions:
REMARK  status: ('A' for Active; 'I' for Inactive)
REMARK    1  A    between atoms: C_1  and  N_2
REMARK    2  A    between atoms: N_2  and  C_3
REMARK    3  A    between atoms: N_2  and  C_4
REMARK    4  A    between atoms: C_16  and  C_17
REMARK                            x       y       z     vdW  Elec       q    Type
REMARK                         _______ _______ _______ _____ _____    ______ ____
ROOT
ATOM      1  C   UNL     1       0.177  12.347  20.926  0.00  0.00    +0.000 A 
ATOM      2  C   UNL     1      -0.278  11.922  22.126  0.00  0.00    +0.000 A 
ATOM      3 CL   UNL     1      -1.147  12.970  23.209  0.00  0.00    +0.000 Cl
ATOM      4  C   UNL     1      -0.126  10.530  22.612  0.00  0.00    +0.000 A 
ATOM      5  O   UNL     1      -0.476  10.166  23.731  0.00  0.00    +0.000 OA
ATOM      6  O   UNL     1       0.432   9.627  21.728  0.00  0.00    +0.000 OA
ATOM      7  C   UNL     1       0.912  10.016  20.465  0.00  0.00    +0.000 A 
ATOM      8  C   UNL     1       0.828  11.344  20.042  0.00  0.00    +0.000 A 
ATOM      9  C   UNL     1       1.367  11.667  18.789  0.00  0.00    +0.000 A 
ATOM     10  C   UNL     1       1.944  10.695  17.956  0.00  0.00    +0.000 A 
ATOM     11  C   UNL     1       2.015   9.357  18.388  0.00  0.00    +0.000 A 
ATOM     12  N   UNL     1       2.566   8.295  17.689  0.00  0.00    +0.000 NA
ATOM     13  C   UNL     1       2.518   7.193  18.413  0.00  0.00    +0.000 A 
ATOM     14  S   UNL     1       1.728   7.365  19.931  0.00  0.00    +0.000 S 
ATOM     15  C   UNL     1       1.500   9.041  19.642  0.00  0.00    +0.000 A 
ENDROOT
BRANCH  13  16
ATOM     16  C   UNL     1       3.044   5.883  17.989  0.00  0.00    +0.000 A 
ATOM     17  C   UNL     1       4.405   5.675  17.707  0.00  0.00    +0.000 A 
ATOM     18  C   UNL     1       4.877   4.418  17.317  0.00  0.00    +0.000 A 
ATOM     19  C   UNL     1       3.992   3.350  17.195  0.00  0.00    +0.000 A 
ATOM     20  C   UNL     1       2.637   3.540  17.456  0.00  0.00    +0.000 A 
ATOM     21  C   UNL     1       2.165   4.797  17.844  0.00  0.00    +0.000 A 
ENDBRANCH  13  16
BRANCH   1  23
ATOM     22  C   UNL     1       0.979  14.715  20.883  0.00  0.00    +0.000 C 
ATOM     23  N   UNL     1       0.083  13.654  20.410  0.00  0.00    +0.000 N 
ATOM     24  C   UNL     1      -1.183  14.119  19.831  0.00  0.00    +0.000 C 
ENDBRANCH   1  23
TORSDOF 2
ENDMDL
MODEL 8
REMARK VINA RESULT:      -6.9      2.493      3.343
REMARK  Name = 
REMARK  4 active torsions:
REMARK  status: ('A' for Active; 'I' for Inactive)
REMARK    1  A    between atoms: C_1  and  N_2
REMARK    2  A    between atoms: N_2  and  C_3
REMARK    3  A    between atoms: N_2  and  C_4
REMARK    4  A    between atoms: C_16  and  C_17
REMARK                            x       y       z     vdW  Elec       q    Type
REMARK                         _______ _______ _______ _____ _____    ______ ____
ROOT
ATOM      1  C   UNL     1       3.867   4.668  18.178  0.00  0.00    +0.000 A 
ATOM      2  C   UNL     1       4.603   4.965  17.083  0.00  0.00    +0.000 A 
ATOM      3 CL   UNL     1       5.509   3.756  16.222  0.00  0.00    +0.000 Cl
ATOM      4  C   UNL     1       4.673   6.322  16.489  0.00  0.00    +0.000 A 
ATOM      5  O   UNL     1       5.399   6.604  15.541  0.00  0.00    +0.000 OA
ATOM      6  O   UNL     1       3.859   7.284  17.055  0.00  0.00    +0.000 OA
ATOM      7  C   UNL     1       3.068   7.023  18.188  0.00  0.00    +0.000 A 
ATOM      8  C   UNL     1       3.060   5.761  18.783  0.00  0.00    +0.000 A 
ATOM      9  C   UNL     1       2.281   5.585  19.935  0.00  0.00    +0.000 A 
ATOM     10  C   UNL     1       1.499   6.623  20.468  0.00  0.00    +0.000 A 
ATOM     11  C   UNL     1       1.506   7.889  19.853  0.00  0.00    +0.000 A 
ATOM     12  N   UNL     1       0.803   9.009  20.269  0.00  0.00    +0.000 NA
ATOM     13  C   UNL     1       1.086  10.042  19.499  0.00  0.00    +0.000 A 
ATOM     14  S   UNL     1       2.143   9.692  18.188  0.00  0.00    +0.000 S 
ATOM     15  C   UNL     1       2.297   8.069  18.723  0.00  0.00    +0.000 A 
ENDROOT
BRANCH  13  16
ATOM     16  C   UNL     1       0.539  11.399  19.675  0.00  0.00    +0.000 A 
ATOM     17  C   UNL     1      -0.611  11.652  20.443  0.00  0.00    +0.000 A 
ATOM     18  C   UNL     1      -1.102  12.952  20.601  0.00  0.00    +0.000 A 
ATOM     19  C   UNL     1      -0.452  14.019  19.986  0.00  0.00    +0.000 A 
ATOM     20  C   UNL     1       0.681  13.787  19.210  0.00  0.00    +0.000 A 
ATOM     21  C   UNL     1       1.170  12.487  19.050  0.00  0.00    +0.000 A 
ENDBRANCH  13  16
BRANCH   1  23
ATOM     22  C   UNL     1       4.824   2.932  19.702  0.00  0.00    +0.000 C 
ATOM     23  N   UNL     1       3.768   3.410  18.803  0.00  0.00    +0.000 N 
ATOM     24  C   UNL     1       2.942   2.358  18.198  0.00  0.00    +0.000 C 
ENDBRANCH   1  23
TORSDOF 2
ENDMDL
