MODEL 1
REMARK VINA RESULT:      -9.2      0.000      0.000
REMARK  Name = 
REMARK  6 active torsions:
REMARK  status: ('A' for Active; 'I' for Inactive)
REMARK    1  A    between atoms: C_1  and  C_2
REMARK    2  A    between atoms: C_2  and  N_3
REMARK    3  A    between atoms: N_6  and  C_7
REMARK    4  A    between atoms: C_10  and  N_11
REMARK    5  A    between atoms: N_11  and  C_12
REMARK    6  A    between atoms: N_23  and  C_24
REMARK                            x       y       z     vdW  Elec       q    Type
REMARK                         _______ _______ _______ _____ _____    ______ ____
ROOT
ATOM      1  N   UNL     1       1.673   7.644  21.173  0.00  0.00    +0.000 N 
ATOM      2  H   UNL     1       1.977   7.341  22.124  0.00  0.00    +0.000 HD
ENDROOT
BRANCH   1   3
ATOM      3  C   UNL     1       0.418   8.867  21.704  0.00  0.00    +0.000 A 
ATOM      4  C   UNL     1       0.366   8.891  21.550  0.00  0.00    +0.000 A 
ATOM      5  C   UNL     1      -0.729  10.447  22.187  0.00  0.00    +0.000 A 
ATOM      6  N   UNL     1      -1.435  11.069  22.452  0.00  0.00    +0.000 NA
ATOM      7  C   UNL     1      -2.459  12.431  23.011  0.00  0.00    +0.000 A 
ATOM      8  C   UNL     1      -1.341  13.188  23.231  0.00  0.00    +0.000 A 
ATOM      9  C   UNL     1      -1.678  14.124  23.916  0.00  0.00    +0.000 A 
ATOM     10  C   UNL     1      -2.814  14.569  24.059  0.00  0.00    +0.000 A 
ATOM     11  C   UNL     1      -3.891  13.385  23.827  0.00  0.00    +0.000 A 
ATOM     12  N   UNL     1      -5.552  13.087  24.124  0.00  0.00    +0.000 NA
ATOM     13  N   UNL     1      -5.803  13.680  23.273  0.00  0.00    +0.000 NA
ATOM     14  N   UNL     1      -3.780  15.520  23.848  0.00  0.00    +0.000 N 
ATOM     15  C   UNL     1      -4.618  16.311  24.620  0.00  0.00    +0.000 C 
ATOM     16  C   UNL     1      -2.755  12.208  22.959  0.00  0.00    +0.000 A 
ENDBRANCH   1   3
BRANCH   1  20
ATOM     17  C   UNL     1       3.782   5.990  17.931  0.00  0.00    +0.000 A 
ATOM     18  C   UNL     1       3.694   5.260  19.103  0.00  0.00    +0.000 A 
ATOM     19  C   UNL     1       2.796   5.779  20.056  0.00  0.00    +0.000 A 
ATOM     20  C   UNL     1       2.325   7.021  20.040  0.00  0.00    +0.000 A 
ATOM     21  C   UNL     1       2.498   7.721  18.880  0.00  0.00    +0.000 A 
ATOM     22  C   UNL     1       3.259   7.217  17.853  0.00  0.00    +0.000 A 
BRANCH  17  26
ATOM     23  N   UNL     1       6.575   4.065  15.354  0.00  0.00    +0.000 NA
ATOM     24  C   UNL     1       6.660   5.455  15.742  0.00  0.00    +0.000 C 
ATOM     25  C   UNL     1       5.242   6.144  15.879  0.00  0.00    +0.000 C 
ATOM     26  N   UNL     1       4.432   5.380  16.769  0.00  0.00    +0.000 N 
ATOM     27  C   UNL     1       4.361   3.966  16.397  0.00  0.00    +0.000 C 
ATOM     28  C   UNL     1       5.741   3.341  16.323  0.00  0.00    +0.000 C 
BRANCH  23  30
ATOM     29  C   UNL     1       6.124   3.492  12.480  0.00  0.00    +0.000 C 
ATOM     30  C   UNL     1       5.934   4.775  14.192  0.00  0.00    +0.000 C 
ENDBRANCH  23  30
ENDBRANCH  17  26
ENDBRANCH   1  20
TORSDOF 4
ENDMDL
MODEL 2
REMARK VINA RESULT:      -9.2      0.770      1.517
REMARK  Name = 
REMARK  6 active torsions:
REMARK  status: ('A' for Active; 'I' for Inactive)
REMARK    1  A    between atoms: C_1  and  C_2
REMARK    2  A    between atoms: C_2  and  N_3
REMARK    3  A    between atoms: N_6  and  C_7
REMARK    4  A    between atoms: C_10  and  N_11
REMARK    5  A    between atoms: N_11  and  C_12
REMARK    6  A    between atoms: N_23  and  C_24
REMARK                            x       y       z     vdW  Elec       q    Type
REMARK                         _______ _______ _______ _____ _____    ______ ____
ROOT
ATOM      1  N   UNL     1       1.478   7.545  21.069  0.00  0.00    +0.000 N 
ATOM      2  H   UNL     1       1.301   6.934  21.897  0.00  0.00    +0.000 HD
ENDROOT
BRANCH   1   3
ATOM      3  C   UNL     1       0.669   9.056  21.713  0.00  0.00    +0.000 A 
ATOM      4  C   UNL     1       0.661   8.995  21.866  0.00  0.00    +0.000 A 
ATOM      5  C   UNL     1      -0.512  10.535  22.391  0.00  0.00    +0.000 A 
ATOM      6  N   UNL     1      -0.904  11.349  22.767  0.00  0.00    +0.000 NA
ATOM      7  C   UNL     1      -1.912  12.745  23.268  0.00  0.00    +0.000 A 
ATOM      8  C   UNL     1      -2.957  12.263  22.529  0.00  0.00    +0.000 A 
ATOM      9  C   UNL     1      -3.753  13.163  22.415  0.00  0.00    +0.000 A 
ATOM     10  C   UNL     1      -3.853  14.161  23.123  0.00  0.00    +0.000 A 
ATOM     11  C   UNL     1      -2.410  14.515  23.764  0.00  0.00    +0.000 A 
ATOM     12  N   UNL     1      -1.646  15.828  24.556  0.00  0.00    +0.000 NA
ATOM     13  N   UNL     1      -2.146  15.564  25.461  0.00  0.00    +0.000 NA
ATOM     14  N   UNL     1      -4.487  14.911  24.081  0.00  0.00    +0.000 N 
ATOM     15  C   UNL     1      -5.001  16.194  24.197  0.00  0.00    +0.000 C 
ATOM     16  C   UNL     1      -1.613  12.872  23.455  0.00  0.00    +0.000 A 
ENDBRANCH   1   3
BRANCH   1  20
ATOM     17  C   UNL     1       3.782   5.994  17.910  0.00  0.00    +0.000 A 
ATOM     18  C   UNL     1       3.600   5.215  19.038  0.00  0.00    +0.000 A 
ATOM     19  C   UNL     1       2.646   5.709  19.950  0.00  0.00    +0.000 A 
ATOM     20  C   UNL     1       2.198   6.960  19.957  0.00  0.00    +0.000 A 
ATOM     21  C   UNL     1       2.464   7.707  18.845  0.00  0.00    +0.000 A 
ATOM     22  C   UNL     1       3.286   7.234  17.852  0.00  0.00    +0.000 A 
BRANCH  17  26
ATOM     23  N   UNL     1       6.721   4.139  15.446  0.00  0.00    +0.000 NA
ATOM     24  C   UNL     1       6.794   5.511  15.896  0.00  0.00    +0.000 C 
ATOM     25  C   UNL     1       5.378   6.213  15.967  0.00  0.00    +0.000 C 
ATOM     26  N   UNL     1       4.502   5.424  16.769  0.00  0.00    +0.000 N 
ATOM     27  C   UNL     1       4.441   4.026  16.336  0.00  0.00    +0.000 C 
ATOM     28  C   UNL     1       5.817   3.388  16.328  0.00  0.00    +0.000 C 
BRANCH  23  30
ATOM     29  C   UNL     1       6.325   3.631  12.552  0.00  0.00    +0.000 C 
ATOM     30  C   UNL     1       6.167   4.905  14.275  0.00  0.00    +0.000 C 
ENDBRANCH  23  30
ENDBRANCH  17  26
ENDBRANCH   1  20
TORSDOF 4
ENDMDL
MODEL 3
REMARK VINA RESULT:      -8.9      8.327     10.204
REMARK  Name = 
REMARK  6 active torsions:
REMARK  status: ('A' for Active; 'I' for Inactive)
REMARK    1  A    between atoms: C_1  and  C_2
REMARK    2  A    between atoms: C_2  and  N_3
REMARK    3  A    between atoms: N_6  and  C_7
REMARK    4  A    between atoms: C_10  and  N_11
REMARK    5  A    between atoms: N_11  and  C_12
REMARK    6  A    between atoms: N_23  and  C_24
REMARK                            x       y       z     vdW  Elec       q    Type
REMARK                         _______ _______ _______ _____ _____    ______ ____
ROOT
ATOM      1  N   UNL     1       7.875   8.149  17.501  0.00  0.00    +0.000 N 
ATOM      2  H   UNL     1       8.535   7.976  16.711  0.00  0.00    +0.000 HD
ENDROOT
BRANCH   1   3
ATOM      3  C   UNL     1       8.557   9.764  18.028  0.00  0.00    +0.000 A 
ATOM      4  C   UNL     1       8.712   9.711  18.015  0.00  0.00    +0.000 A 
ATOM      5  C   UNL     1       9.338  11.390  18.917  0.00  0.00    +0.000 A 
ATOM      6  N   UNL     1       9.726  12.257  19.153  0.00  0.00    +0.000 NA
ATOM      7  C   UNL     1      10.309  13.774  19.912  0.00  0.00    +0.000 A 
ATOM      8  C   UNL     1       9.794  13.375  21.115  0.00  0.00    +0.000 A 
ATOM      9  C   UNL     1       9.765  14.351  21.826  0.00  0.00    +0.000 A 
ATOM     10  C   UNL     1      10.418  15.383  21.699  0.00  0.00    +0.000 A 
ATOM     11  C   UNL     1      10.775  15.606  20.136  0.00  0.00    +0.000 A 
ATOM     12  N   UNL     1      11.339  16.862  19.117  0.00  0.00    +0.000 NA
ATOM     13  N   UNL     1      12.332  16.692  19.469  0.00  0.00    +0.000 NA
ATOM     14  N   UNL     1      11.424  16.237  22.073  0.00  0.00    +0.000 N 
ATOM     15  C   UNL     1      11.549  17.572  22.428  0.00  0.00    +0.000 C 
ATOM     16  C   UNL     1      10.433  13.875  19.573  0.00  0.00    +0.000 A 
ENDBRANCH   1   3
BRANCH   1  20
ATOM     17  C   UNL     1       4.888   5.348  18.461  0.00  0.00    +0.000 A 
ATOM     18  C   UNL     1       4.584   6.354  17.561  0.00  0.00    +0.000 A 
ATOM     19  C   UNL     1       5.691   7.113  17.129  0.00  0.00    +0.000 A 
ATOM     20  C   UNL     1       6.864   7.143  17.751  0.00  0.00    +0.000 A 
ATOM     21  C   UNL     1       7.085   6.165  18.678  0.00  0.00    +0.000 A 
ATOM     22  C   UNL     1       6.084   5.304  19.054  0.00  0.00    +0.000 A 
BRANCH  17  26
ATOM     23  N   UNL     1       2.627   1.737  18.411  0.00  0.00    +0.000 NA
ATOM     24  C   UNL     1       2.550   2.752  17.384  0.00  0.00    +0.000 C 
ATOM     25  C   UNL     1       2.687   4.221  17.959  0.00  0.00    +0.000 C 
ATOM     26  N   UNL     1       3.884   4.315  18.727  0.00  0.00    +0.000 N 
ATOM     27  C   UNL     1       3.983   3.275  19.753  0.00  0.00    +0.000 C 
ATOM     28  C   UNL     1       3.890   1.888  19.146  0.00  0.00    +0.000 C 
BRANCH  23  30
ATOM     29  C   UNL     1       1.287   2.433  20.962  0.00  0.00    +0.000 C 
ATOM     30  C   UNL     1       1.418   2.534  18.820  0.00  0.00    +0.000 C 
ENDBRANCH  23  30
ENDBRANCH  17  26
ENDBRANCH   1  20
TORSDOF 4
ENDMDL
MODEL 4
REMARK VINA RESULT:      -8.7      0.548      1.029
REMARK  Name = 
REMARK  6 active torsions:
REMARK  status: ('A' for Active; 'I' for Inactive)
REMARK    1  A    between atoms: C_1  and  C_2
REMARK    2  A    between atoms: C_2  and  N_3
REMARK    3  A    between atoms: N_6  and  C_7
REMARK    4  A    between atoms: C_10  and  N_11
REMARK    5  A    between atoms: N_11  and  C_12
REMARK    6  A    between atoms: N_23  and  C_24
REMARK                            x       y       z     vdW  Elec       q    Type
REMARK                         _______ _______ _______ _____ _____    ______ ____
ROOT
ATOM      1  N   UNL     1       1.258   7.808  21.214  0.00  0.00    +0.000 N 
ATOM      2  H   UNL     1       1.241   7.273  22.110  0.00  0.00    +0.000 HD
ENDROOT
BRANCH   1   3
ATOM      3  C   UNL     1       0.127   9.156  21.722  0.00  0.00    +0.000 A 
ATOM      4  C   UNL     1       0.092   9.194  21.566  0.00  0.00    +0.000 A 
ATOM      5  C   UNL     1      -0.849  10.844  22.214  0.00  0.00    +0.000 A 
ATOM      6  N   UNL     1      -1.492  11.538  22.462  0.00  0.00    +0.000 NA
ATOM      7  C   UNL     1      -2.381  12.990  23.025  0.00  0.00    +0.000 A 
ATOM      8  C   UNL     1      -1.200  13.580  23.384  0.00  0.00    +0.000 A 
ATOM      9  C   UNL     1      -1.475  14.513  24.100  0.00  0.00    +0.000 A 
ATOM     10  C   UNL     1      -2.553  15.096  24.180  0.00  0.00    +0.000 A 
ATOM     11  C   UNL     1      -3.747  14.078  23.783  0.00  0.00    +0.000 A 
ATOM     12  N   UNL     1      -5.452  13.986  23.924  0.00  0.00    +0.000 NA
ATOM     13  N   UNL     1      -5.549  14.653  23.097  0.00  0.00    +0.000 NA
ATOM     14  N   UNL     1      -3.368  16.175  23.954  0.00  0.00    +0.000 N 
ATOM     15  C   UNL     1      -4.164  17.027  24.706  0.00  0.00    +0.000 C 
ATOM     16  C   UNL     1      -2.697  12.811  22.934  0.00  0.00    +0.000 A 
ENDBRANCH   1   3
BRANCH   1  20
ATOM     17  C   UNL     1       3.444   6.109  18.047  0.00  0.00    +0.000 A 
ATOM     18  C   UNL     1       2.839   7.337  17.848  0.00  0.00    +0.000 A 
ATOM     19  C   UNL     1       2.317   7.935  19.013  0.00  0.00    +0.000 A 
ATOM     20  C   UNL     1       2.079   7.282  20.145  0.00  0.00    +0.000 A 
ATOM     21  C   UNL     1       2.646   6.044  20.262  0.00  0.00    +0.000 A 
ATOM     22  C   UNL     1       3.286   5.452  19.200  0.00  0.00    +0.000 A 
BRANCH  17  26
ATOM     23  N   UNL     1       6.635   4.293  15.888  0.00  0.00    +0.000 NA
ATOM     24  C   UNL     1       6.657   5.657  16.365  0.00  0.00    +0.000 C 
ATOM     25  C   UNL     1       5.240   6.358  16.293  0.00  0.00    +0.000 C 
ATOM     26  N   UNL     1       4.284   5.557  16.983  0.00  0.00    +0.000 N 
ATOM     27  C   UNL     1       4.273   4.166  16.523  0.00  0.00    +0.000 C 
ATOM     28  C   UNL     1       5.642   3.528  16.654  0.00  0.00    +0.000 C 
BRANCH  23  30
ATOM     29  C   UNL     1       6.143   3.706  13.024  0.00  0.00    +0.000 C 
ATOM     30  C   UNL     1       6.210   5.077  14.676  0.00  0.00    +0.000 C 
ENDBRANCH  23  30
ENDBRANCH  17  26
ENDBRANCH   1  20
TORSDOF 4
ENDMDL
MODEL 5
REMARK VINA RESULT:      -8.7      8.484     10.561
REMARK  Name = 
REMARK  6 active torsions:
REMARK  status: ('A' for Active; 'I' for Inactive)
REMARK    1  A    between atoms: C_1  and  C_2
REMARK    2  A    between atoms: C_2  and  N_3
REMARK    3  A    between atoms: N_6  and  C_7
REMARK    4  A    between atoms: C_10  and  N_11
REMARK    5  A    between atoms: N_11  and  C_12
REMARK    6  A    between atoms: N_23  and  C_24
REMARK                            x       y       z     vdW  Elec       q    Type
REMARK                         _______ _______ _______ _____ _____    ______ ____
ROOT
ATOM      1  N   UNL     1       8.570   7.870  18.459  0.00  0.00    +0.000 N 
ATOM      2  H   UNL     1       9.535   7.493  18.331  0.00  0.00    +0.000 HD
ENDROOT
BRANCH   1   3
ATOM      3  C   UNL     1       9.023   9.638  18.601  0.00  0.00    +0.000 A 
ATOM      4  C   UNL     1       8.865   9.685  18.606  0.00  0.00    +0.000 A 
ATOM      5  C   UNL     1       9.456  11.594  18.419  0.00  0.00    +0.000 A 
ATOM      6  N   UNL     1       9.674  12.539  18.541  0.00  0.00    +0.000 NA
ATOM      7  C   UNL     1      10.186  14.254  18.425  0.00  0.00    +0.000 A 
ATOM      8  C   UNL     1      10.559  14.060  17.123  0.00  0.00    +0.000 A 
ATOM      9  C   UNL     1      11.248  15.001  16.810  0.00  0.00    +0.000 A 
ATOM     10  C   UNL     1      11.291  16.103  17.350  0.00  0.00    +0.000 A 
ATOM     11  C   UNL     1      10.889  15.956  18.911  0.00  0.00    +0.000 A 
ATOM     12  N   UNL     1      10.993  16.873  20.353  0.00  0.00    +0.000 NA
ATOM     13  N   UNL     1      10.150  17.448  20.040  0.00  0.00    +0.000 NA
ATOM     14  N   UNL     1      11.024  17.448  17.386  0.00  0.00    +0.000 N 
ATOM     15  C   UNL     1      11.739  18.626  17.544  0.00  0.00    +0.000 C 
ATOM     16  C   UNL     1      10.092  14.289  18.786  0.00  0.00    +0.000 A 
ENDBRANCH   1   3
BRANCH   1  20
ATOM     17  C   UNL     1       5.307   5.223  18.657  0.00  0.00    +0.000 A 
ATOM     18  C   UNL     1       5.287   6.226  17.703  0.00  0.00    +0.000 A 
ATOM     19  C   UNL     1       6.501   6.926  17.557  0.00  0.00    +0.000 A 
ATOM     20  C   UNL     1       7.482   6.915  18.453  0.00  0.00    +0.000 A 
ATOM     21  C   UNL     1       7.417   5.945  19.413  0.00  0.00    +0.000 A 
ATOM     22  C   UNL     1       6.313   5.137  19.532  0.00  0.00    +0.000 A 
BRANCH  17  26
ATOM     23  N   UNL     1       3.080   1.592  18.613  0.00  0.00    +0.000 NA
ATOM     24  C   UNL     1       3.670   2.191  17.437  0.00  0.00    +0.000 C 
ATOM     25  C   UNL     1       3.622   3.773  17.462  0.00  0.00    +0.000 C 
ATOM     26  N   UNL     1       4.220   4.241  18.668  0.00  0.00    +0.000 N 
ATOM     27  C   UNL     1       3.646   3.621  19.864  0.00  0.00    +0.000 C 
ATOM     28  C   UNL     1       3.756   2.109  19.811  0.00  0.00    +0.000 C 
BRANCH  23  30
ATOM     29  C   UNL     1       0.474   2.634  19.568  0.00  0.00    +0.000 C 
ATOM     30  C   UNL     1       1.928   2.351  18.012  0.00  0.00    +0.000 C 
ENDBRANCH  23  30
ENDBRANCH  17  26
ENDBRANCH   1  20
TORSDOF 4
ENDMDL
MODEL 6
REMARK VINA RESULT:      -8.5      1.053      2.041
REMARK  Name = 
REMARK  6 active torsions:
REMARK  status: ('A' for Active; 'I' for Inactive)
REMARK    1  A    between atoms: C_1  and  C_2
REMARK    2  A    between atoms: C_2  and  N_3
REMARK    3  A    between atoms: N_6  and  C_7
REMARK    4  A    between atoms: C_10  and  N_11
REMARK    5  A    between atoms: N_11  and  C_12
REMARK    6  A    between atoms: N_23  and  C_24
REMARK                            x       y       z     vdW  Elec       q    Type
REMARK                         _______ _______ _______ _____ _____    ______ ____
ROOT
ATOM      1  N   UNL     1       1.330   7.556  20.926  0.00  0.00    +0.000 N 
ATOM      2  H   UNL     1       0.750   6.927  21.525  0.00  0.00    +0.000 HD
ENDROOT
BRANCH   1   3
ATOM      3  C   UNL     1       0.663   9.147  21.541  0.00  0.00    +0.000 A 
ATOM      4  C   UNL     1       0.734   9.127  21.689  0.00  0.00    +0.000 A 
ATOM      5  C   UNL     1      -0.311  10.700  22.368  0.00  0.00    +0.000 A 
ATOM      6  N   UNL     1      -0.618  11.566  22.703  0.00  0.00    +0.000 NA
ATOM      7  C   UNL     1      -1.505  13.001  23.314  0.00  0.00    +0.000 A 
ATOM      8  C   UNL     1      -2.678  12.299  23.273  0.00  0.00    +0.000 A 
ATOM      9  C   UNL     1      -3.574  13.104  23.361  0.00  0.00    +0.000 A 
ATOM     10  C   UNL     1      -3.505  14.247  23.805  0.00  0.00    +0.000 A 
ATOM     11  C   UNL     1      -2.003  14.815  23.602  0.00  0.00    +0.000 A 
ATOM     12  N   UNL     1      -1.186  16.320  23.646  0.00  0.00    +0.000 NA
ATOM     13  N   UNL     1      -1.182  16.279  24.713  0.00  0.00    +0.000 NA
ATOM     14  N   UNL     1      -3.756  15.192  24.767  0.00  0.00    +0.000 N 
ATOM     15  C   UNL     1      -4.361  16.438  24.839  0.00  0.00    +0.000 C 
ATOM     16  C   UNL     1      -1.178  13.184  23.307  0.00  0.00    +0.000 A 
ENDBRANCH   1   3
BRANCH   1  20
ATOM     17  C   UNL     1       3.855   5.562  18.217  0.00  0.00    +0.000 A 
ATOM     18  C   UNL     1       3.323   6.785  17.846  0.00  0.00    +0.000 A 
ATOM     19  C   UNL     1       2.672   7.484  18.882  0.00  0.00    +0.000 A 
ATOM     20  C   UNL     1       2.266   6.928  20.018  0.00  0.00    +0.000 A 
ATOM     21  C   UNL     1       2.771   5.691  20.303  0.00  0.00    +0.000 A 
ATOM     22  C   UNL     1       3.526   5.003  19.385  0.00  0.00    +0.000 A 
BRANCH  17  26
ATOM     23  N   UNL     1       7.079   4.791  15.541  0.00  0.00    +0.000 NA
ATOM     24  C   UNL     1       5.836   5.418  15.149  0.00  0.00    +0.000 C 
ATOM     25  C   UNL     1       4.582   4.830  15.914  0.00  0.00    +0.000 C 
ATOM     26  N   UNL     1       4.810   4.909  17.319  0.00  0.00    +0.000 N 
ATOM     27  C   UNL     1       6.079   4.299  17.722  0.00  0.00    +0.000 C 
ATOM     28  C   UNL     1       7.251   4.926  16.994  0.00  0.00    +0.000 C 
BRANCH  23  30
ATOM     29  C   UNL     1       6.530   3.682  12.847  0.00  0.00    +0.000 C 
ATOM     30  C   UNL     1       6.287   3.640  14.980  0.00  0.00    +0.000 C 
ENDBRANCH  23  30
ENDBRANCH  17  26
ENDBRANCH   1  20
TORSDOF 4
ENDMDL
MODEL 7
REMARK VINA RESULT:      -8.5      1.317      2.110
REMARK  Name = 
REMARK  6 active torsions:
REMARK  status: ('A' for Active; 'I' for Inactive)
REMARK    1  A    between atoms: C_1  and  C_2
REMARK    2  A    between atoms: C_2  and  N_3
REMARK    3  A    between atoms: N_6  and  C_7
REMARK    4  A    between atoms: C_10  and  N_11
REMARK    5  A    between atoms: N_11  and  C_12
REMARK    6  A    between atoms: N_23  and  C_24
REMARK                            x       y       z     vdW  Elec       q    Type
REMARK                         _______ _______ _______ _____ _____    ______ ____
ROOT
ATOM      1  N   UNL     1       0.718   8.397  21.551  0.00  0.00    +0.000 N 
ATOM      2  H   UNL     1       0.435   7.788  22.351  0.00  0.00    +0.000 HD
ENDROOT
BRANCH   1   3
ATOM      3  C   UNL     1      -0.144   9.918  22.095  0.00  0.00    +0.000 A 
ATOM      4  C   UNL     1      -0.152   9.866  22.251  0.00  0.00    +0.000 A 
ATOM      5  C   UNL     1      -1.377  11.398  22.672  0.00  0.00    +0.000 A 
ATOM      6  N   UNL     1      -1.797  12.221  22.993  0.00  0.00    +0.000 NA
ATOM      7  C   UNL     1      -2.853  13.613  23.400  0.00  0.00    +0.000 A 
ATOM      8  C   UNL     1      -3.875  13.054  22.684  0.00  0.00    +0.000 A 
ATOM      9  C   UNL     1      -4.697  13.920  22.508  0.00  0.00    +0.000 A 
ATOM     10  C   UNL     1      -4.835  14.956  23.153  0.00  0.00    +0.000 A 
ATOM     11  C   UNL     1      -3.410  15.393  23.783  0.00  0.00    +0.000 A 
ATOM     12  N   UNL     1      -2.695  16.774  24.499  0.00  0.00    +0.000 NA
ATOM     13  N   UNL     1      -3.195  16.551  25.415  0.00  0.00    +0.000 NA
ATOM     14  N   UNL     1      -5.501  15.742  24.058  0.00  0.00    +0.000 N 
ATOM     15  C   UNL     1      -6.055  17.013  24.092  0.00  0.00    +0.000 C 
ATOM     16  C   UNL     1      -2.560  13.760  23.582  0.00  0.00    +0.000 A 
ENDBRANCH   1   3
BRANCH   1  20
ATOM     17  C   UNL     1       2.950   6.523  18.518  0.00  0.00    +0.000 A 
ATOM     18  C   UNL     1       2.487   7.808  18.299  0.00  0.00    +0.000 A 
ATOM     19  C   UNL     1       1.943   8.441  19.434  0.00  0.00    +0.000 A 
ATOM     20  C   UNL     1       1.559   7.802  20.533  0.00  0.00    +0.000 A 
ATOM     21  C   UNL     1       1.989   6.513  20.667  0.00  0.00    +0.000 A 
ATOM     22  C   UNL     1       2.643   5.872  19.644  0.00  0.00    +0.000 A 
BRANCH  17  26
ATOM     23  N   UNL     1       6.184   4.588  16.531  0.00  0.00    +0.000 NA
ATOM     24  C   UNL     1       6.184   5.985  16.902  0.00  0.00    +0.000 C 
ATOM     25  C   UNL     1       4.759   6.660  16.764  0.00  0.00    +0.000 C 
ATOM     26  N   UNL     1       3.807   5.901  17.506  0.00  0.00    +0.000 N 
ATOM     27  C   UNL     1       3.817   4.480  17.155  0.00  0.00    +0.000 C 
ATOM     28  C   UNL     1       5.193   3.871  17.346  0.00  0.00    +0.000 C 
BRANCH  23  30
ATOM     29  C   UNL     1       6.077   3.877  13.655  0.00  0.00    +0.000 C 
ATOM     30  C   UNL     1       5.760   5.271  15.259  0.00  0.00    +0.000 C 
ENDBRANCH  23  30
ENDBRANCH  17  26
ENDBRANCH   1  20
TORSDOF 4
ENDMDL
MODEL 8
REMARK VINA RESULT:      -8.4      1.473      1.953
REMARK  Name = 
REMARK  6 active torsions:
REMARK  status: ('A' for Active; 'I' for Inactive)
REMARK    1  A    between atoms: C_1  and  C_2
REMARK    2  A    between atoms: C_2  and  N_3
REMARK    3  A    between atoms: N_6  and  C_7
REMARK    4  A    between atoms: C_10  and  N_11
REMARK    5  A    between atoms: N_11  and  C_12
REMARK    6  A    between atoms: N_23  and  C_24
REMARK                            x       y       z     vdW  Elec       q    Type
REMARK                         _______ _______ _______ _____ _____    ______ ____
ROOT
ATOM      1  N   UNL     1       1.107   7.947  20.909  0.00  0.00    +0.000 N 
ATOM      2  H   UNL     1       0.587   7.270  21.509  0.00  0.00    +0.000 HD
ENDROOT
BRANCH   1   3
ATOM      3  C   UNL     1       0.459   9.482  21.669  0.00  0.00    +0.000 A 
ATOM      4  C   UNL     1       0.311   9.463  21.598  0.00  0.00    +0.000 A 
ATOM      5  C   UNL     1      -0.188  11.312  22.197  0.00  0.00    +0.000 A 
ATOM      6  N   UNL     1      -0.569  12.103  22.626  0.00  0.00    +0.000 NA
ATOM      7  C   UNL     1      -1.051  13.734  23.197  0.00  0.00    +0.000 A 
ATOM      8  C   UNL     1      -0.191  14.306  22.300  0.00  0.00    +0.000 A 
ATOM      9  C   UNL     1      -0.054  15.459  22.632  0.00  0.00    +0.000 A 
ATOM     10  C   UNL     1      -0.804  16.124  23.341  0.00  0.00    +0.000 A 
ATOM     11  C   UNL     1      -1.597  15.143  24.355  0.00  0.00    +0.000 A 
ATOM     12  N   UNL     1      -2.529  15.262  25.786  0.00  0.00    +0.000 NA
ATOM     13  N   UNL     1      -3.367  15.579  25.206  0.00  0.00    +0.000 NA
ATOM     14  N   UNL     1      -1.739  17.110  23.529  0.00  0.00    +0.000 N 
ATOM     15  C   UNL     1      -1.878  18.248  24.310  0.00  0.00    +0.000 C 
ATOM     16  C   UNL     1      -1.273  13.563  23.446  0.00  0.00    +0.000 A 
ENDBRANCH   1   3
BRANCH   1  20
ATOM     17  C   UNL     1       3.458   6.188  17.897  0.00  0.00    +0.000 A 
ATOM     18  C   UNL     1       2.917   7.440  17.666  0.00  0.00    +0.000 A 
ATOM     19  C   UNL     1       2.333   8.049  18.794  0.00  0.00    +0.000 A 
ATOM     20  C   UNL     1       1.986   7.397  19.898  0.00  0.00    +0.000 A 
ATOM     21  C   UNL     1       2.494   6.138  20.045  0.00  0.00    +0.000 A 
ATOM     22  C   UNL     1       3.189   5.529  19.028  0.00  0.00    +0.000 A 
BRANCH  17  26
ATOM     23  N   UNL     1       6.763   4.330  15.955  0.00  0.00    +0.000 NA
ATOM     24  C   UNL     1       6.756   5.706  16.396  0.00  0.00    +0.000 C 
ATOM     25  C   UNL     1       5.342   6.399  16.232  0.00  0.00    +0.000 C 
ATOM     26  N   UNL     1       4.354   5.611  16.892  0.00  0.00    +0.000 N 
ATOM     27  C   UNL     1       4.371   4.209  16.470  0.00  0.00    +0.000 C 
ATOM     28  C   UNL     1       5.733   3.581  16.689  0.00  0.00    +0.000 C 
BRANCH  23  30
ATOM     29  C   UNL     1       6.197   3.629  13.130  0.00  0.00    +0.000 C 
ATOM     30  C   UNL     1       6.399   5.080  14.702  0.00  0.00    +0.000 C 
ENDBRANCH  23  30
ENDBRANCH  17  26
ENDBRANCH   1  20
TORSDOF 4
ENDMDL
MODEL 9
REMARK VINA RESULT:      -8.4      1.898     13.069
REMARK  Name = 
REMARK  6 active torsions:
REMARK  status: ('A' for Active; 'I' for Inactive)
REMARK    1  A    between atoms: C_1  and  C_2
REMARK    2  A    between atoms: C_2  and  N_3
REMARK    3  A    between atoms: N_6  and  C_7
REMARK    4  A    between atoms: C_10  and  N_11
REMARK    5  A    between atoms: N_11  and  C_12
REMARK    6  A    between atoms: N_23  and  C_24
REMARK                            x       y       z     vdW  Elec       q    Type
REMARK                         _______ _______ _______ _____ _____    ______ ____
ROOT
ATOM      1  N   UNL     1      -0.132  10.636  21.994  0.00  0.00    +0.000 N 
ATOM      2  H   UNL     1       0.608  10.761  22.720  0.00  0.00    +0.000 HD
ENDROOT
BRANCH   1   3
ATOM      3  C   UNL     1       0.680   9.289  21.057  0.00  0.00    +0.000 A 
ATOM      4  C   UNL     1       0.763   9.237  21.190  0.00  0.00    +0.000 A 
ATOM      5  C   UNL     1       1.842   8.023  20.013  0.00  0.00    +0.000 A 
ATOM      6  N   UNL     1       2.253   7.269  19.544  0.00  0.00    +0.000 NA
ATOM      7  C   UNL     1       3.194   6.141  18.515  0.00  0.00    +0.000 A 
ATOM      8  C   UNL     1       3.857   7.197  17.954  0.00  0.00    +0.000 A 
ATOM      9  C   UNL     1       4.401   6.784  16.958  0.00  0.00    +0.000 A 
ATOM     10  C   UNL     1       4.676   5.617  16.691  0.00  0.00    +0.000 A 
ATOM     11  C   UNL     1       3.632   4.632  17.439  0.00  0.00    +0.000 A 
ATOM     12  N   UNL     1       3.137   2.995  17.363  0.00  0.00    +0.000 NA
ATOM     13  N   UNL     1       4.014   2.711  17.902  0.00  0.00    +0.000 NA
ATOM     14  N   UNL     1       5.567   4.587  16.531  0.00  0.00    +0.000 N 
ATOM     15  C   UNL     1       5.913   3.683  15.537  0.00  0.00    +0.000 C 
ATOM     16  C   UNL     1       2.995   5.863  18.667  0.00  0.00    +0.000 A 
ENDBRANCH   1   3
BRANCH   1  20
ATOM     17  C   UNL     1      -3.377  13.280  22.413  0.00  0.00    +0.000 A 
ATOM     18  C   UNL     1      -2.659  13.298  21.230  0.00  0.00    +0.000 A 
ATOM     19  C   UNL     1      -1.737  12.243  21.083  0.00  0.00    +0.000 A 
ATOM     20  C   UNL     1      -1.299  11.489  22.085  0.00  0.00    +0.000 A 
ATOM     21  C   UNL     1      -2.005  11.560  23.252  0.00  0.00    +0.000 A 
ATOM     22  C   UNL     1      -3.009  12.482  23.420  0.00  0.00    +0.000 A 
BRANCH  17  26
ATOM     23  N   UNL     1      -6.740  15.419  23.916  0.00  0.00    +0.000 NA
ATOM     24  C   UNL     1      -6.736  13.995  23.664  0.00  0.00    +0.000 C 
ATOM     25  C   UNL     1      -5.880  13.598  22.394  0.00  0.00    +0.000 C 
ATOM     26  N   UNL     1      -4.564  14.129  22.529  0.00  0.00    +0.000 N 
ATOM     27  C   UNL     1      -4.560  15.567  22.810  0.00  0.00    +0.000 C 
ATOM     28  C   UNL     1      -5.356  15.889  24.059  0.00  0.00    +0.000 C 
BRANCH  23  30
ATOM     29  C   UNL     1      -7.914  17.311  21.959  0.00  0.00    +0.000 C 
ATOM     30  C   UNL     1      -7.365  15.320  22.551  0.00  0.00    +0.000 C 
ENDBRANCH  23  30
ENDBRANCH  17  26
ENDBRANCH   1  20
TORSDOF 4
ENDMDL
