MODEL 1
REMARK VINA RESULT:      -8.2      0.000      0.000
REMARK  Name = 
REMARK  8 active torsions:
REMARK  status: ('A' for Active; 'I' for Inactive)
REMARK    1  A    between atoms: C_1  and  C_2
REMARK    2  A    between atoms: C_2  and  C_3
REMARK    3  A    between atoms: C_3  and  N_4
REMARK    4  A    between atoms: N_8  and  C_9
REMARK    5  A    between atoms: C_9  and  C_10
REMARK    6  A    between atoms: C_10  and  C_11
REMARK    7  A    between atoms: C_11  and  C_12
REMARK    8  A    between atoms: C_11  and  C_18
REMARK                            x       y       z     vdW  Elec       q    Type
REMARK                         _______ _______ _______ _____ _____    ______ ____
ROOT
ATOM      1  C   UNL     1       3.078   6.345  19.215  0.00  0.00    +0.000 C 
ENDROOT
BRANCH   1   2
ATOM      2  C   UNL     1       2.154   7.561  19.188  0.00  0.00    +0.000 A 
ATOM      3  C   UNL     1       1.974   8.317  18.021  0.00  0.00    +0.000 A 
ATOM      4  C   UNL     1       1.259   9.516  18.051  0.00  0.00    +0.000 A 
ATOM      5  C   UNL     1       0.701   9.966  19.245  0.00  0.00    +0.000 A 
ATOM      6  C   UNL     1       0.847   9.214  20.408  0.00  0.00    +0.000 A 
ATOM      7  C   UNL     1       1.567   8.019  20.381  0.00  0.00    +0.000 A 
ENDBRANCH   1   2
BRANCH   1   8
ATOM      8  C   UNL     1       2.402   5.078  19.739  0.00  0.00    +0.000 A 
ATOM      9  C   UNL     1       1.571   4.341  18.880  0.00  0.00    +0.000 A 
ATOM     10  C   UNL     1       0.899   3.205  19.338  0.00  0.00    +0.000 A 
ATOM     11  C   UNL     1       1.052   2.787  20.657  0.00  0.00    +0.000 A 
ATOM     12  C   UNL     1       1.882   3.497  21.518  0.00  0.00    +0.000 A 
ATOM     13  C   UNL     1       2.557   4.630  21.061  0.00  0.00    +0.000 A 
ENDBRANCH   1   8
BRANCH   1  14
ATOM     14  C   UNL     1       3.730   6.135  17.830  0.00  0.00    +0.000 C 
BRANCH  14  15
ATOM     15  C   UNL     1       5.257   6.222  17.846  0.00  0.00    +0.000 C 
BRANCH  15  20
ATOM     16  N   UNL     1       6.460   3.963  15.131  0.00  0.00    +0.000 NA
ATOM     17  C   UNL     1       5.002   4.045  15.364  0.00  0.00    +0.000 C 
ATOM     18  C   UNL     1       4.428   3.490  16.671  0.00  0.00    +0.000 C 
ATOM     19  C   UNL     1       5.144   3.745  17.994  0.00  0.00    +0.000 C 
ATOM     20  N   UNL     1       5.933   4.961  18.153  0.00  0.00    +0.000 NA
ATOM     21  C   UNL     1       7.212   4.828  17.454  0.00  0.00    +0.000 C 
ATOM     22  C   UNL     1       7.204   4.974  15.921  0.00  0.00    +0.000 C 
BRANCH  16  23
ATOM     23  C   UNL     1       6.690   4.217  13.681  0.00  0.00    +0.000 C 
BRANCH  23  25
ATOM     24  C   UNL     1       6.115   2.562  11.857  0.00  0.00    +0.000 C 
ATOM     25  C   UNL     1       5.592   3.674  12.756  0.00  0.00    +0.000 C 
ENDBRANCH  23  25
ENDBRANCH  16  23
ENDBRANCH  15  20
ENDBRANCH  14  15
ENDBRANCH   1  14
TORSDOF 7
ENDMDL
MODEL 2
REMARK VINA RESULT:      -8.2      0.579      1.131
REMARK  Name = 
REMARK  8 active torsions:
REMARK  status: ('A' for Active; 'I' for Inactive)
REMARK    1  A    between atoms: C_1  and  C_2
REMARK    2  A    between atoms: C_2  and  C_3
REMARK    3  A    between atoms: C_3  and  N_4
REMARK    4  A    between atoms: N_8  and  C_9
REMARK    5  A    between atoms: C_9  and  C_10
REMARK    6  A    between atoms: C_10  and  C_11
REMARK    7  A    between atoms: C_11  and  C_12
REMARK    8  A    between atoms: C_11  and  C_18
REMARK                            x       y       z     vdW  Elec       q    Type
REMARK                         _______ _______ _______ _____ _____    ______ ____
ROOT
ATOM      1  C   UNL     1       2.859   6.466  19.396  0.00  0.00    +0.000 C 
ENDROOT
BRANCH   1   2
ATOM      2  C   UNL     1       1.970   7.688  19.616  0.00  0.00    +0.000 A 
ATOM      3  C   UNL     1       1.727   8.611  18.588  0.00  0.00    +0.000 A 
ATOM      4  C   UNL     1       1.050   9.803  18.845  0.00  0.00    +0.000 A 
ATOM      5  C   UNL     1       0.593  10.083  20.131  0.00  0.00    +0.000 A 
ATOM      6  C   UNL     1       0.802   9.166  21.158  0.00  0.00    +0.000 A 
ATOM      7  C   UNL     1       1.485   7.976  20.903  0.00  0.00    +0.000 A 
ENDBRANCH   1   2
BRANCH   1   8
ATOM      8  C   UNL     1       2.237   5.163  19.896  0.00  0.00    +0.000 A 
ATOM      9  C   UNL     1       2.550   4.706  21.186  0.00  0.00    +0.000 A 
ATOM     10  C   UNL     1       2.038   3.495  21.659  0.00  0.00    +0.000 A 
ATOM     11  C   UNL     1       1.204   2.726  20.851  0.00  0.00    +0.000 A 
ATOM     12  C   UNL     1       0.872   3.170  19.575  0.00  0.00    +0.000 A 
ATOM     13  C   UNL     1       1.380   4.381  19.104  0.00  0.00    +0.000 A 
ENDBRANCH   1   8
BRANCH   1  14
ATOM     14  C   UNL     1       3.298   6.379  17.916  0.00  0.00    +0.000 C 
BRANCH  14  15
ATOM     15  C   UNL     1       4.770   6.721  17.686  0.00  0.00    +0.000 C 
BRANCH  15  20
ATOM     16  N   UNL     1       6.678   4.361  15.515  0.00  0.00    +0.000 NA
ATOM     17  C   UNL     1       5.233   4.113  15.700  0.00  0.00    +0.000 C 
ATOM     18  C   UNL     1       4.722   3.694  17.082  0.00  0.00    +0.000 C 
ATOM     19  C   UNL     1       5.260   4.375  18.337  0.00  0.00    +0.000 C 
ATOM     20  N   UNL     1       5.713   5.758  18.258  0.00  0.00    +0.000 NA
ATOM     21  C   UNL     1       7.031   5.822  17.625  0.00  0.00    +0.000 C 
ATOM     22  C   UNL     1       7.094   5.662  16.096  0.00  0.00    +0.000 C 
BRANCH  16  23
ATOM     23  C   UNL     1       6.940   4.380  14.049  0.00  0.00    +0.000 C 
BRANCH  23  25
ATOM     24  C   UNL     1       6.400   3.155  11.903  0.00  0.00    +0.000 C 
ATOM     25  C   UNL     1       5.840   3.733  13.197  0.00  0.00    +0.000 C 
ENDBRANCH  23  25
ENDBRANCH  16  23
ENDBRANCH  15  20
ENDBRANCH  14  15
ENDBRANCH   1  14
TORSDOF 7
ENDMDL
MODEL 3
REMARK VINA RESULT:      -8.2      1.073      1.732
REMARK  Name = 
REMARK  8 active torsions:
REMARK  status: ('A' for Active; 'I' for Inactive)
REMARK    1  A    between atoms: C_1  and  C_2
REMARK    2  A    between atoms: C_2  and  C_3
REMARK    3  A    between atoms: C_3  and  N_4
REMARK    4  A    between atoms: N_8  and  C_9
REMARK    5  A    between atoms: C_9  and  C_10
REMARK    6  A    between atoms: C_10  and  C_11
REMARK    7  A    between atoms: C_11  and  C_12
REMARK    8  A    between atoms: C_11  and  C_18
REMARK                            x       y       z     vdW  Elec       q    Type
REMARK                         _______ _______ _______ _____ _____    ______ ____
ROOT
ATOM      1  C   UNL     1       2.984   6.320  19.515  0.00  0.00    +0.000 C 
ENDROOT
BRANCH   1   2
ATOM      2  C   UNL     1       2.103   7.560  19.381  0.00  0.00    +0.000 A 
ATOM      3  C   UNL     1       1.961   8.229  18.157  0.00  0.00    +0.000 A 
ATOM      4  C   UNL     1       1.288   9.449  18.084  0.00  0.00    +0.000 A 
ATOM      5  C   UNL     1       0.733  10.009  19.232  0.00  0.00    +0.000 A 
ATOM      6  C   UNL     1       0.841   9.346  20.451  0.00  0.00    +0.000 A 
ATOM      7  C   UNL     1       1.520   8.129  20.527  0.00  0.00    +0.000 A 
ENDBRANCH   1   2
BRANCH   1   8
ATOM      8  C   UNL     1       2.194   5.013  19.554  0.00  0.00    +0.000 A 
ATOM      9  C   UNL     1       1.858   4.453  20.797  0.00  0.00    +0.000 A 
ATOM     10  C   UNL     1       1.178   3.235  20.871  0.00  0.00    +0.000 A 
ATOM     11  C   UNL     1       0.821   2.562  19.706  0.00  0.00    +0.000 A 
ATOM     12  C   UNL     1       1.132   3.108  18.466  0.00  0.00    +0.000 A 
ATOM     13  C   UNL     1       1.808   4.327  18.390  0.00  0.00    +0.000 A 
ENDBRANCH   1   8
BRANCH   1  14
ATOM     14  C   UNL     1       4.076   6.316  18.420  0.00  0.00    +0.000 C 
BRANCH  14  15
ATOM     15  C   UNL     1       5.336   5.542  18.807  0.00  0.00    +0.000 C 
BRANCH  15  20
ATOM     16  N   UNL     1       7.028   5.538  15.482  0.00  0.00    +0.000 NA
ATOM     17  C   UNL     1       7.077   4.296  16.281  0.00  0.00    +0.000 C 
ATOM     18  C   UNL     1       7.878   4.284  17.587  0.00  0.00    +0.000 C 
ATOM     19  C   UNL     1       7.805   5.472  18.543  0.00  0.00    +0.000 C 
ATOM     20  N   UNL     1       6.586   6.272  18.592  0.00  0.00    +0.000 NA
ATOM     21  C   UNL     1       6.521   7.164  17.434  0.00  0.00    +0.000 C 
ATOM     22  C   UNL     1       6.121   6.546  16.082  0.00  0.00    +0.000 C 
BRANCH  16  23
ATOM     23  C   UNL     1       6.520   5.173  14.130  0.00  0.00    +0.000 C 
BRANCH  23  25
ATOM     24  C   UNL     1       5.978   3.334  12.481  0.00  0.00    +0.000 C 
ATOM     25  C   UNL     1       6.212   3.681  13.945  0.00  0.00    +0.000 C 
ENDBRANCH  23  25
ENDBRANCH  16  23
ENDBRANCH  15  20
ENDBRANCH  14  15
ENDBRANCH   1  14
TORSDOF 7
ENDMDL
MODEL 4
REMARK VINA RESULT:      -8.1      1.077      2.000
REMARK  Name = 
REMARK  8 active torsions:
REMARK  status: ('A' for Active; 'I' for Inactive)
REMARK    1  A    between atoms: C_1  and  C_2
REMARK    2  A    between atoms: C_2  and  C_3
REMARK    3  A    between atoms: C_3  and  N_4
REMARK    4  A    between atoms: N_8  and  C_9
REMARK    5  A    between atoms: C_9  and  C_10
REMARK    6  A    between atoms: C_10  and  C_11
REMARK    7  A    between atoms: C_11  and  C_12
REMARK    8  A    between atoms: C_11  and  C_18
REMARK                            x       y       z     vdW  Elec       q    Type
REMARK                         _______ _______ _______ _____ _____    ______ ____
ROOT
ATOM      1  C   UNL     1       2.911   6.445  19.449  0.00  0.00    +0.000 C 
ENDROOT
BRANCH   1   2
ATOM      2  C   UNL     1       2.037   7.690  19.575  0.00  0.00    +0.000 A 
ATOM      3  C   UNL     1       1.303   7.954  20.741  0.00  0.00    +0.000 A 
ATOM      4  C   UNL     1       0.384   9.003  20.784  0.00  0.00    +0.000 A 
ATOM      5  C   UNL     1       0.198   9.813  19.667  0.00  0.00    +0.000 A 
ATOM      6  C   UNL     1       0.937   9.583  18.510  0.00  0.00    +0.000 A 
ATOM      7  C   UNL     1       1.851   8.530  18.463  0.00  0.00    +0.000 A 
ENDBRANCH   1   2
BRANCH   1   8
ATOM      8  C   UNL     1       2.121   5.138  19.495  0.00  0.00    +0.000 A 
ATOM      9  C   UNL     1       1.854   4.543  20.738  0.00  0.00    +0.000 A 
ATOM     10  C   UNL     1       1.177   3.324  20.815  0.00  0.00    +0.000 A 
ATOM     11  C   UNL     1       0.752   2.685  19.653  0.00  0.00    +0.000 A 
ATOM     12  C   UNL     1       0.995   3.268  18.413  0.00  0.00    +0.000 A 
ATOM     13  C   UNL     1       1.668   4.487  18.334  0.00  0.00    +0.000 A 
ENDBRANCH   1   8
BRANCH   1  14
ATOM     14  C   UNL     1       3.811   6.545  18.195  0.00  0.00    +0.000 C 
BRANCH  14  15
ATOM     15  C   UNL     1       5.102   5.732  18.294  0.00  0.00    +0.000 C 
BRANCH  15  20
ATOM     16  N   UNL     1       7.298   5.278  15.311  0.00  0.00    +0.000 NA
ATOM     17  C   UNL     1       7.288   4.207  16.330  0.00  0.00    +0.000 C 
ATOM     18  C   UNL     1       7.871   4.496  17.717  0.00  0.00    +0.000 C 
ATOM     19  C   UNL     1       7.580   5.825  18.409  0.00  0.00    +0.000 C 
ATOM     20  N   UNL     1       6.327   6.514  18.129  0.00  0.00    +0.000 NA
ATOM     21  C   UNL     1       6.396   7.177  16.825  0.00  0.00    +0.000 C 
ATOM     22  C   UNL     1       6.251   6.297  15.571  0.00  0.00    +0.000 C 
BRANCH  16  23
ATOM     23  C   UNL     1       7.032   4.636  13.993  0.00  0.00    +0.000 C 
BRANCH  23  25
ATOM     24  C   UNL     1       5.394   3.475  12.456  0.00  0.00    +0.000 C 
ATOM     25  C   UNL     1       5.647   3.988  13.867  0.00  0.00    +0.000 C 
ENDBRANCH  23  25
ENDBRANCH  16  23
ENDBRANCH  15  20
ENDBRANCH  14  15
ENDBRANCH   1  14
TORSDOF 7
ENDMDL
MODEL 5
REMARK VINA RESULT:      -8.1      1.053      1.450
REMARK  Name = 
REMARK  8 active torsions:
REMARK  status: ('A' for Active; 'I' for Inactive)
REMARK    1  A    between atoms: C_1  and  C_2
REMARK    2  A    between atoms: C_2  and  C_3
REMARK    3  A    between atoms: C_3  and  N_4
REMARK    4  A    between atoms: N_8  and  C_9
REMARK    5  A    between atoms: C_9  and  C_10
REMARK    6  A    between atoms: C_10  and  C_11
REMARK    7  A    between atoms: C_11  and  C_12
REMARK    8  A    between atoms: C_11  and  C_18
REMARK                            x       y       z     vdW  Elec       q    Type
REMARK                         _______ _______ _______ _____ _____    ______ ____
ROOT
ATOM      1  C   UNL     1       2.946   6.447  19.477  0.00  0.00    +0.000 C 
ENDROOT
BRANCH   1   2
ATOM      2  C   UNL     1       2.014   7.655  19.533  0.00  0.00    +0.000 A 
ATOM      3  C   UNL     1       1.867   8.518  18.437  0.00  0.00    +0.000 A 
ATOM      4  C   UNL     1       1.142   9.704  18.556  0.00  0.00    +0.000 A 
ATOM      5  C   UNL     1       0.540  10.036  19.767  0.00  0.00    +0.000 A 
ATOM      6  C   UNL     1       0.653   9.178  20.858  0.00  0.00    +0.000 A 
ATOM      7  C   UNL     1       1.383   7.995  20.743  0.00  0.00    +0.000 A 
ENDBRANCH   1   2
BRANCH   1   8
ATOM      8  C   UNL     1       2.225   5.112  19.657  0.00  0.00    +0.000 A 
ATOM      9  C   UNL     1       1.754   4.430  18.524  0.00  0.00    +0.000 A 
ATOM     10  C   UNL     1       1.048   3.232  18.653  0.00  0.00    +0.000 A 
ATOM     11  C   UNL     1       0.807   2.695  19.915  0.00  0.00    +0.000 A 
ATOM     12  C   UNL     1       1.278   3.350  21.048  0.00  0.00    +0.000 A 
ATOM     13  C   UNL     1       1.987   4.545  20.921  0.00  0.00    +0.000 A 
ENDBRANCH   1   8
BRANCH   1  14
ATOM     14  C   UNL     1       3.800   6.486  18.189  0.00  0.00    +0.000 C 
BRANCH  14  15
ATOM     15  C   UNL     1       5.101   5.689  18.285  0.00  0.00    +0.000 C 
BRANCH  15  20
ATOM     16  N   UNL     1       7.307   5.208  15.314  0.00  0.00    +0.000 NA
ATOM     17  C   UNL     1       7.311   4.157  16.354  0.00  0.00    +0.000 C 
ATOM     18  C   UNL     1       7.888   4.482  17.735  0.00  0.00    +0.000 C 
ATOM     19  C   UNL     1       7.579   5.819  18.401  0.00  0.00    +0.000 C 
ATOM     20  N   UNL     1       6.316   6.486  18.106  0.00  0.00    +0.000 NA
ATOM     21  C   UNL     1       6.377   7.123  16.790  0.00  0.00    +0.000 C 
ATOM     22  C   UNL     1       6.245   6.217  15.553  0.00  0.00    +0.000 C 
BRANCH  16  23
ATOM     23  C   UNL     1       7.051   4.538  14.009  0.00  0.00    +0.000 C 
BRANCH  23  25
ATOM     24  C   UNL     1       5.367   3.592  12.377  0.00  0.00    +0.000 C 
ATOM     25  C   UNL     1       5.602   4.077  13.801  0.00  0.00    +0.000 C 
ENDBRANCH  23  25
ENDBRANCH  16  23
ENDBRANCH  15  20
ENDBRANCH  14  15
ENDBRANCH   1  14
TORSDOF 7
ENDMDL
MODEL 6
REMARK VINA RESULT:      -8.1      0.402      3.639
REMARK  Name = 
REMARK  8 active torsions:
REMARK  status: ('A' for Active; 'I' for Inactive)
REMARK    1  A    between atoms: C_1  and  C_2
REMARK    2  A    between atoms: C_2  and  C_3
REMARK    3  A    between atoms: C_3  and  N_4
REMARK    4  A    between atoms: N_8  and  C_9
REMARK    5  A    between atoms: C_9  and  C_10
REMARK    6  A    between atoms: C_10  and  C_11
REMARK    7  A    between atoms: C_11  and  C_12
REMARK    8  A    between atoms: C_11  and  C_18
REMARK                            x       y       z     vdW  Elec       q    Type
REMARK                         _______ _______ _______ _____ _____    ______ ____
ROOT
ATOM      1  C   UNL     1       3.066   6.228  18.688  0.00  0.00    +0.000 C 
ENDROOT
BRANCH   1   2
ATOM      2  C   UNL     1       2.424   4.985  19.300  0.00  0.00    +0.000 A 
ATOM      3  C   UNL     1       1.520   4.196  18.574  0.00  0.00    +0.000 A 
ATOM      4  C   UNL     1       0.818   3.162  19.195  0.00  0.00    +0.000 A 
ATOM      5  C   UNL     1       1.024   2.892  20.546  0.00  0.00    +0.000 A 
ATOM      6  C   UNL     1       1.938   3.648  21.275  0.00  0.00    +0.000 A 
ATOM      7  C   UNL     1       2.635   4.687  20.657  0.00  0.00    +0.000 A 
ENDBRANCH   1   2
BRANCH   1   8
ATOM      8  C   UNL     1       2.267   7.508  18.931  0.00  0.00    +0.000 A 
ATOM      9  C   UNL     1       2.071   8.405  17.869  0.00  0.00    +0.000 A 
ATOM     10  C   UNL     1       1.388   9.607  18.066  0.00  0.00    +0.000 A 
ATOM     11  C   UNL     1       0.887   9.928  19.324  0.00  0.00    +0.000 A 
ATOM     12  C   UNL     1       1.059   9.045  20.385  0.00  0.00    +0.000 A 
ATOM     13  C   UNL     1       1.739   7.842  20.189  0.00  0.00    +0.000 A 
ENDBRANCH   1   8
BRANCH   1  14
ATOM     14  C   UNL     1       4.537   6.356  19.148  0.00  0.00    +0.000 C 
BRANCH  14  15
ATOM     15  C   UNL     1       5.556   6.032  18.055  0.00  0.00    +0.000 C 
BRANCH  15  20
ATOM     16  N   UNL     1       6.399   3.948  15.077  0.00  0.00    +0.000 NA
ATOM     17  C   UNL     1       4.976   4.059  15.461  0.00  0.00    +0.000 C 
ATOM     18  C   UNL     1       4.510   3.425  16.775  0.00  0.00    +0.000 C 
ATOM     19  C   UNL     1       5.362   3.556  18.035  0.00  0.00    +0.000 C 
ATOM     20  N   UNL     1       6.210   4.731  18.201  0.00  0.00    +0.000 NA
ATOM     21  C   UNL     1       7.408   4.610  17.369  0.00  0.00    +0.000 C 
ATOM     22  C   UNL     1       7.256   4.872  15.860  0.00  0.00    +0.000 C 
BRANCH  16  23
ATOM     23  C   UNL     1       6.496   4.305  13.634  0.00  0.00    +0.000 C 
BRANCH  23  25
ATOM     24  C   UNL     1       5.990   2.539  11.895  0.00  0.00    +0.000 C 
ATOM     25  C   UNL     1       5.419   3.666  12.746  0.00  0.00    +0.000 C 
ENDBRANCH  23  25
ENDBRANCH  16  23
ENDBRANCH  15  20
ENDBRANCH  14  15
ENDBRANCH   1  14
TORSDOF 7
ENDMDL
MODEL 7
REMARK VINA RESULT:      -8.1      1.791      3.450
REMARK  Name = 
REMARK  8 active torsions:
REMARK  status: ('A' for Active; 'I' for Inactive)
REMARK    1  A    between atoms: C_1  and  C_2
REMARK    2  A    between atoms: C_2  and  C_3
REMARK    3  A    between atoms: C_3  and  N_4
REMARK    4  A    between atoms: N_8  and  C_9
REMARK    5  A    between atoms: C_9  and  C_10
REMARK    6  A    between atoms: C_10  and  C_11
REMARK    7  A    between atoms: C_11  and  C_12
REMARK    8  A    between atoms: C_11  and  C_18
REMARK                            x       y       z     vdW  Elec       q    Type
REMARK                         _______ _______ _______ _____ _____    ______ ____
ROOT
ATOM      1  C   UNL     1       3.158   5.819  19.064  0.00  0.00    +0.000 C 
ENDROOT
BRANCH   1   2
ATOM      2  C   UNL     1       2.383   7.132  18.973  0.00  0.00    +0.000 A 
ATOM      3  C   UNL     1       2.340   7.875  17.784  0.00  0.00    +0.000 A 
ATOM      4  C   UNL     1       1.769   9.148  17.759  0.00  0.00    +0.000 A 
ATOM      5  C   UNL     1       1.219   9.689  18.919  0.00  0.00    +0.000 A 
ATOM      6  C   UNL     1       1.229   8.954  20.101  0.00  0.00    +0.000 A 
ATOM      7  C   UNL     1       1.806   7.684  20.129  0.00  0.00    +0.000 A 
ENDBRANCH   1   2
BRANCH   1   8
ATOM      8  C   UNL     1       2.413   4.724  19.827  0.00  0.00    +0.000 A 
ATOM      9  C   UNL     1       2.841   4.377  21.118  0.00  0.00    +0.000 A 
ATOM     10  C   UNL     1       2.215   3.349  21.826  0.00  0.00    +0.000 A 
ATOM     11  C   UNL     1       1.149   2.657  21.257  0.00  0.00    +0.000 A 
ATOM     12  C   UNL     1       0.702   2.996  19.985  0.00  0.00    +0.000 A 
ATOM     13  C   UNL     1       1.324   4.026  19.278  0.00  0.00    +0.000 A 
ENDBRANCH   1   8
BRANCH   1  14
ATOM     14  C   UNL     1       3.601   5.357  17.657  0.00  0.00    +0.000 C 
BRANCH  14  15
ATOM     15  C   UNL     1       4.735   4.332  17.671  0.00  0.00    +0.000 C 
BRANCH  15  20
ATOM     16  N   UNL     1       7.483   6.814  17.213  0.00  0.00    +0.000 NA
ATOM     17  C   UNL     1       6.091   7.297  17.096  0.00  0.00    +0.000 C 
ATOM     18  C   UNL     1       5.237   6.821  15.917  0.00  0.00    +0.000 C 
ATOM     19  C   UNL     1       5.280   5.360  15.478  0.00  0.00    +0.000 C 
ATOM     20  N   UNL     1       5.566   4.328  16.467  0.00  0.00    +0.000 NA
ATOM     21  C   UNL     1       6.997   4.307  16.775  0.00  0.00    +0.000 C 
ATOM     22  C   UNL     1       7.543   5.412  17.697  0.00  0.00    +0.000 C 
BRANCH  16  23
ATOM     23  C   UNL     1       8.175   7.694  18.195  0.00  0.00    +0.000 C 
BRANCH  23  25
ATOM     24  C   UNL     1       9.009  10.014  18.763  0.00  0.00    +0.000 C 
ATOM     25  C   UNL     1       8.059   9.196  17.898  0.00  0.00    +0.000 C 
ENDBRANCH  23  25
ENDBRANCH  16  23
ENDBRANCH  15  20
ENDBRANCH  14  15
ENDBRANCH   1  14
TORSDOF 7
ENDMDL
MODEL 8
REMARK VINA RESULT:      -8.0      0.551      1.121
REMARK  Name = 
REMARK  8 active torsions:
REMARK  status: ('A' for Active; 'I' for Inactive)
REMARK    1  A    between atoms: C_1  and  C_2
REMARK    2  A    between atoms: C_2  and  C_3
REMARK    3  A    between atoms: C_3  and  N_4
REMARK    4  A    between atoms: N_8  and  C_9
REMARK    5  A    between atoms: C_9  and  C_10
REMARK    6  A    between atoms: C_10  and  C_11
REMARK    7  A    between atoms: C_11  and  C_12
REMARK    8  A    between atoms: C_11  and  C_18
REMARK                            x       y       z     vdW  Elec       q    Type
REMARK                         _______ _______ _______ _____ _____    ______ ____
ROOT
ATOM      1  C   UNL     1       2.981   6.427  19.396  0.00  0.00    +0.000 C 
ENDROOT
BRANCH   1   2
ATOM      2  C   UNL     1       2.106   7.649  19.666  0.00  0.00    +0.000 A 
ATOM      3  C   UNL     1       1.422   7.805  20.881  0.00  0.00    +0.000 A 
ATOM      4  C   UNL     1       0.501   8.839  21.052  0.00  0.00    +0.000 A 
ATOM      5  C   UNL     1       0.262   9.740  20.018  0.00  0.00    +0.000 A 
ATOM      6  C   UNL     1       0.952   9.616  18.815  0.00  0.00    +0.000 A 
ATOM      7  C   UNL     1       1.869   8.579  18.639  0.00  0.00    +0.000 A 
ENDBRANCH   1   2
BRANCH   1   8
ATOM      8  C   UNL     1       2.373   5.119  19.900  0.00  0.00    +0.000 A 
ATOM      9  C   UNL     1       1.494   4.407  19.069  0.00  0.00    +0.000 A 
ATOM     10  C   UNL     1       0.883   3.233  19.515  0.00  0.00    +0.000 A 
ATOM     11  C   UNL     1       1.144   2.752  20.795  0.00  0.00    +0.000 A 
ATOM     12  C   UNL     1       2.024   3.436  21.627  0.00  0.00    +0.000 A 
ATOM     13  C   UNL     1       2.638   4.607  21.182  0.00  0.00    +0.000 A 
ENDBRANCH   1   8
BRANCH   1  14
ATOM     14  C   UNL     1       3.363   6.360  17.899  0.00  0.00    +0.000 C 
BRANCH  14  15
ATOM     15  C   UNL     1       4.845   6.620  17.627  0.00  0.00    +0.000 C 
BRANCH  15  20
ATOM     16  N   UNL     1       6.495   4.298  15.218  0.00  0.00    +0.000 NA
ATOM     17  C   UNL     1       5.045   4.132  15.452  0.00  0.00    +0.000 C 
ATOM     18  C   UNL     1       4.565   3.653  16.825  0.00  0.00    +0.000 C 
ATOM     19  C   UNL     1       5.199   4.208  18.097  0.00  0.00    +0.000 C 
ATOM     20  N   UNL     1       5.742   5.561  18.089  0.00  0.00    +0.000 NA
ATOM     21  C   UNL     1       7.034   5.582  17.402  0.00  0.00    +0.000 C 
ATOM     22  C   UNL     1       7.023   5.525  15.864  0.00  0.00    +0.000 C 
BRANCH  16  23
ATOM     23  C   UNL     1       6.697   4.401  13.746  0.00  0.00    +0.000 C 
BRANCH  23  25
ATOM     24  C   UNL     1       5.081   3.585  11.980  0.00  0.00    +0.000 C 
ATOM     25  C   UNL     1       6.191   3.192  12.947  0.00  0.00    +0.000 C 
ENDBRANCH  23  25
ENDBRANCH  16  23
ENDBRANCH  15  20
ENDBRANCH  14  15
ENDBRANCH   1  14
TORSDOF 7
ENDMDL
MODEL 9
REMARK VINA RESULT:      -8.0      2.159      3.706
REMARK  Name = 
REMARK  8 active torsions:
REMARK  status: ('A' for Active; 'I' for Inactive)
REMARK    1  A    between atoms: C_1  and  C_2
REMARK    2  A    between atoms: C_2  and  C_3
REMARK    3  A    between atoms: C_3  and  N_4
REMARK    4  A    between atoms: N_8  and  C_9
REMARK    5  A    between atoms: C_9  and  C_10
REMARK    6  A    between atoms: C_10  and  C_11
REMARK    7  A    between atoms: C_11  and  C_12
REMARK    8  A    between atoms: C_11  and  C_18
REMARK                            x       y       z     vdW  Elec       q    Type
REMARK                         _______ _______ _______ _____ _____    ______ ____
ROOT
ATOM      1  C   UNL     1       3.158   5.801  19.610  0.00  0.00    +0.000 C 
ENDROOT
BRANCH   1   2
ATOM      2  C   UNL     1       2.414   7.090  19.266  0.00  0.00    +0.000 A 
ATOM      3  C   UNL     1       2.510   7.674  17.995  0.00  0.00    +0.000 A 
ATOM      4  C   UNL     1       1.961   8.932  17.745  0.00  0.00    +0.000 A 
ATOM      5  C   UNL     1       1.295   9.617  18.758  0.00  0.00    +0.000 A 
ATOM      6  C   UNL     1       1.167   9.041  20.018  0.00  0.00    +0.000 A 
ATOM      7  C   UNL     1       1.721   7.786  20.272  0.00  0.00    +0.000 A 
ENDBRANCH   1   2
BRANCH   1   8
ATOM      8  C   UNL     1       2.247   4.577  19.693  0.00  0.00    +0.000 A 
ATOM      9  C   UNL     1       1.945   4.032  20.951  0.00  0.00    +0.000 A 
ATOM     10  C   UNL     1       1.156   2.886  21.062  0.00  0.00    +0.000 A 
ATOM     11  C   UNL     1       0.653   2.269  19.919  0.00  0.00    +0.000 A 
ATOM     12  C   UNL     1       0.930   2.803  18.665  0.00  0.00    +0.000 A 
ATOM     13  C   UNL     1       1.716   3.951  18.553  0.00  0.00    +0.000 A 
ENDBRANCH   1   8
BRANCH   1  14
ATOM     14  C   UNL     1       4.343   5.589  18.640  0.00  0.00    +0.000 C 
BRANCH  14  15
ATOM     15  C   UNL     1       5.643   5.181  19.332  0.00  0.00    +0.000 C 
BRANCH  15  20
ATOM     16  N   UNL     1       7.758   7.584  17.415  0.00  0.00    +0.000 NA
ATOM     17  C   UNL     1       6.350   7.418  16.995  0.00  0.00    +0.000 C 
ATOM     18  C   UNL     1       5.909   6.081  16.391  0.00  0.00    +0.000 C 
ATOM     19  C   UNL     1       6.391   4.767  17.000  0.00  0.00    +0.000 C 
ATOM     20  N   UNL     1       6.692   4.712  18.426  0.00  0.00    +0.000 NA
ATOM     21  C   UNL     1       7.985   5.343  18.694  0.00  0.00    +0.000 C 
ATOM     22  C   UNL     1       8.041   6.881  18.690  0.00  0.00    +0.000 C 
BRANCH  16  23
ATOM     23  C   UNL     1       7.993   9.043  17.605  0.00  0.00    +0.000 C 
BRANCH  23  25
ATOM     24  C   UNL     1       9.520  10.757  18.666  0.00  0.00    +0.000 C 
ATOM     25  C   UNL     1       8.853   9.397  18.826  0.00  0.00    +0.000 C 
ENDBRANCH  23  25
ENDBRANCH  16  23
ENDBRANCH  15  20
ENDBRANCH  14  15
ENDBRANCH   1  14
TORSDOF 7
ENDMDL
