MODEL 1
REMARK VINA RESULT:      -7.5      0.000      0.000
REMARK  Name = 
REMARK  8 active torsions:
REMARK  status: ('A' for Active; 'I' for Inactive)
REMARK    1  A    between atoms: C_1  and  O_2
REMARK    2  A    between atoms: O_2  and  C_3
REMARK    3  A    between atoms: C_8  and  C_9
REMARK    4  A    between atoms: C_9  and  N_10
REMARK    5  A    between atoms: C_11  and  C_12
REMARK    6  A    between atoms: C_13  and  C_14
REMARK    7  A    between atoms: N_16  and  C_17
REMARK    8  A    between atoms: C_17  and  C_18
REMARK                            x       y       z     vdW  Elec       q    Type
REMARK                         _______ _______ _______ _____ _____    ______ ____
ROOT
ATOM      1  N   UNL     1       1.442   8.830  19.677  0.00  0.00    +0.000 N 
ATOM      2  C   UNL     1       2.092   7.835  18.944  0.00  0.00    +0.000 A 
ATOM      3  C   UNL     1       2.576   8.070  17.546  0.00  0.00    +0.000 C 
ATOM      4  C   UNL     1       2.208   6.679  19.629  0.00  0.00    +0.000 A 
ATOM      5  S   UNL     1       1.458   6.769  21.200  0.00  0.00    +0.000 S 
ATOM      6  C   UNL     1       0.998   8.445  20.936  0.00  0.00    +0.000 A 
ATOM      7  O   UNL     1       0.406   9.110  21.764  0.00  0.00    +0.000 OA
ENDROOT
BRANCH   4   8
ATOM      8  C   UNL     1       2.901   5.417  19.205  0.00  0.00    +0.000 C 
ATOM      9  O   UNL     1       2.283   4.450  18.776  0.00  0.00    +0.000 OA
ATOM     10  N   UNL     1       4.272   5.458  19.318  0.00  0.00    +0.000 N 
ATOM     11  H   UNL     1       4.695   6.288  19.718  0.00  0.00    +0.000 HD
BRANCH  10  12
ATOM     12  C   UNL     1       5.149   4.359  18.973  0.00  0.00    +0.000 C 
BRANCH  12  13
ATOM     13  C   UNL     1       5.699   4.465  17.564  0.00  0.00    +0.000 A 
ATOM     14  C   UNL     1       4.869   4.163  16.467  0.00  0.00    +0.000 A 
ATOM     15  C   UNL     1       5.332   4.315  15.159  0.00  0.00    +0.000 A 
ATOM     16  C   UNL     1       6.621   4.774  14.935  0.00  0.00    +0.000 A 
ATOM     17  F   UNL     1       7.063   4.931  13.680  0.00  0.00    +0.000 F 
ATOM     18  C   UNL     1       7.458   5.089  16.000  0.00  0.00    +0.000 A 
ATOM     19  C   UNL     1       6.995   4.943  17.311  0.00  0.00    +0.000 A 
ENDBRANCH  12  13
ENDBRANCH  10  12
ENDBRANCH   4   8
BRANCH   1  20
ATOM     20  C   UNL     1       1.283  10.224  19.282  0.00  0.00    +0.000 C 
BRANCH  20  26
ATOM     21  C   UNL     1      -1.993  10.381  17.273  0.00  0.00    +0.000 A 
ATOM     22  C   UNL     1      -2.698  11.358  17.969  0.00  0.00    +0.000 A 
ATOM     23  C   UNL     1      -2.099  12.009  19.045  0.00  0.00    +0.000 A 
ATOM     24  C   UNL     1      -0.800  11.670  19.440  0.00  0.00    +0.000 A 
ATOM     25 BR   UNL     1      -0.051  12.676  20.871  0.00  0.00    +0.000 Br
ATOM     26  C   UNL     1      -0.091  10.639  18.795  0.00  0.00    +0.000 A 
ATOM     27  C   UNL     1      -0.715  10.006  17.703  0.00  0.00    +0.000 A 
BRANCH  21  29
ATOM     28  C   UNL     1      -3.103  10.524  15.205  0.00  0.00    +0.000 C 
ATOM     29  O   UNL     1      -2.475   9.703  16.187  0.00  0.00    +0.000 OA
ENDBRANCH  21  29
ENDBRANCH  20  26
ENDBRANCH   1  20
TORSDOF 6
ENDMDL
MODEL 2
REMARK VINA RESULT:      -7.3      1.054      1.125
REMARK  Name = 
REMARK  8 active torsions:
REMARK  status: ('A' for Active; 'I' for Inactive)
REMARK    1  A    between atoms: C_1  and  O_2
REMARK    2  A    between atoms: O_2  and  C_3
REMARK    3  A    between atoms: C_8  and  C_9
REMARK    4  A    between atoms: C_9  and  N_10
REMARK    5  A    between atoms: C_11  and  C_12
REMARK    6  A    between atoms: C_13  and  C_14
REMARK    7  A    between atoms: N_16  and  C_17
REMARK    8  A    between atoms: C_17  and  C_18
REMARK                            x       y       z     vdW  Elec       q    Type
REMARK                         _______ _______ _______ _____ _____    ______ ____
ROOT
ATOM      1  N   UNL     1       1.205   9.129  19.715  0.00  0.00    +0.000 N 
ATOM      2  C   UNL     1       1.988   8.227  18.991  0.00  0.00    +0.000 A 
ATOM      3  C   UNL     1       2.497   8.545  17.619  0.00  0.00    +0.000 C 
ATOM      4  C   UNL     1       2.204   7.076  19.660  0.00  0.00    +0.000 A 
ATOM      5  S   UNL     1       1.388   7.049  21.200  0.00  0.00    +0.000 S 
ATOM      6  C   UNL     1       0.758   8.670  20.948  0.00  0.00    +0.000 A 
ATOM      7  O   UNL     1       0.065   9.248  21.763  0.00  0.00    +0.000 OA
ENDROOT
BRANCH   4   8
ATOM      8  C   UNL     1       3.047   5.907  19.242  0.00  0.00    +0.000 C 
ATOM      9  O   UNL     1       4.073   5.600  19.838  0.00  0.00    +0.000 OA
ATOM     10  N   UNL     1       2.554   5.210  18.163  0.00  0.00    +0.000 N 
ATOM     11  H   UNL     1       1.716   5.558  17.710  0.00  0.00    +0.000 HD
BRANCH  10  12
ATOM     12  C   UNL     1       3.197   4.051  17.580  0.00  0.00    +0.000 C 
BRANCH  12  13
ATOM     13  C   UNL     1       4.389   4.412  16.717  0.00  0.00    +0.000 A 
ATOM     14  C   UNL     1       5.199   3.391  16.183  0.00  0.00    +0.000 A 
ATOM     15  C   UNL     1       6.263   3.696  15.333  0.00  0.00    +0.000 A 
ATOM     16  C   UNL     1       6.524   5.018  15.004  0.00  0.00    +0.000 A 
ATOM     17  F   UNL     1       7.539   5.310  14.179  0.00  0.00    +0.000 F 
ATOM     18  C   UNL     1       5.733   6.045  15.509  0.00  0.00    +0.000 A 
ATOM     19  C   UNL     1       4.664   5.742  16.356  0.00  0.00    +0.000 A 
ENDBRANCH  12  13
ENDBRANCH  10  12
ENDBRANCH   4   8
BRANCH   1  20
ATOM     20  C   UNL     1       0.909  10.506  19.339  0.00  0.00    +0.000 C 
BRANCH  20  26
ATOM     21  C   UNL     1      -2.300  10.351  17.224  0.00  0.00    +0.000 A 
ATOM     22  C   UNL     1      -3.127  11.234  17.912  0.00  0.00    +0.000 A 
ATOM     23  C   UNL     1      -2.636  11.924  19.018  0.00  0.00    +0.000 A 
ATOM     24  C   UNL     1      -1.322  11.718  19.450  0.00  0.00    +0.000 A 
ATOM     25 BR   UNL     1      -0.730  12.770  20.922  0.00  0.00    +0.000 Br
ATOM     26  C   UNL     1      -0.486  10.781  18.813  0.00  0.00    +0.000 A 
ATOM     27  C   UNL     1      -1.003  10.106  17.691  0.00  0.00    +0.000 A 
BRANCH  21  29
ATOM     28  C   UNL     1      -3.005  10.452  14.983  0.00  0.00    +0.000 C 
ATOM     29  O   UNL     1      -2.672   9.648  16.111  0.00  0.00    +0.000 OA
ENDBRANCH  21  29
ENDBRANCH  20  26
ENDBRANCH   1  20
TORSDOF 6
ENDMDL
MODEL 3
REMARK VINA RESULT:      -7.3      1.067      1.172
REMARK  Name = 
REMARK  8 active torsions:
REMARK  status: ('A' for Active; 'I' for Inactive)
REMARK    1  A    between atoms: C_1  and  O_2
REMARK    2  A    between atoms: O_2  and  C_3
REMARK    3  A    between atoms: C_8  and  C_9
REMARK    4  A    between atoms: C_9  and  N_10
REMARK    5  A    between atoms: C_11  and  C_12
REMARK    6  A    between atoms: C_13  and  C_14
REMARK    7  A    between atoms: N_16  and  C_17
REMARK    8  A    between atoms: C_17  and  C_18
REMARK                            x       y       z     vdW  Elec       q    Type
REMARK                         _______ _______ _______ _____ _____    ______ ____
ROOT
ATOM      1  N   UNL     1       0.786   9.544  19.710  0.00  0.00    +0.000 N 
ATOM      2  C   UNL     1       1.507   8.525  19.083  0.00  0.00    +0.000 A 
ATOM      3  C   UNL     1       1.890   8.601  17.637  0.00  0.00    +0.000 C 
ATOM      4  C   UNL     1       1.787   7.502  19.915  0.00  0.00    +0.000 A 
ATOM      5  S   UNL     1       1.111   7.743  21.503  0.00  0.00    +0.000 S 
ATOM      6  C   UNL     1       0.452   9.304  21.037  0.00  0.00    +0.000 A 
ATOM      7  O   UNL     1      -0.169  10.018  21.800  0.00  0.00    +0.000 OA
ENDROOT
BRANCH   4   8
ATOM      8  C   UNL     1       2.596   6.270  19.628  0.00  0.00    +0.000 C 
ATOM      9  O   UNL     1       2.073   5.176  19.454  0.00  0.00    +0.000 OA
ATOM     10  N   UNL     1       3.953   6.489  19.555  0.00  0.00    +0.000 N 
ATOM     11  H   UNL     1       4.299   7.421  19.748  0.00  0.00    +0.000 HD
BRANCH  10  12
ATOM     12  C   UNL     1       4.930   5.453  19.293  0.00  0.00    +0.000 C 
BRANCH  12  13
ATOM     13  C   UNL     1       5.186   5.245  17.814  0.00  0.00    +0.000 A 
ATOM     14  C   UNL     1       5.368   3.942  17.313  0.00  0.00    +0.000 A 
ATOM     15  C   UNL     1       5.540   3.720  15.946  0.00  0.00    +0.000 A 
ATOM     16  C   UNL     1       5.527   4.794  15.068  0.00  0.00    +0.000 A 
ATOM     17  F   UNL     1       5.681   4.582  13.754  0.00  0.00    +0.000 F 
ATOM     18  C   UNL     1       5.338   6.091  15.535  0.00  0.00    +0.000 A 
ATOM     19  C   UNL     1       5.160   6.315  16.903  0.00  0.00    +0.000 A 
ENDBRANCH  12  13
ENDBRANCH  10  12
ENDBRANCH   4   8
BRANCH   1  20
ATOM     20  C   UNL     1       0.450  10.841  19.134  0.00  0.00    +0.000 C 
BRANCH  20  26
ATOM     21  C   UNL     1      -2.634  10.325  16.895  0.00  0.00    +0.000 A 
ATOM     22  C   UNL     1      -3.557  11.177  17.495  0.00  0.00    +0.000 A 
ATOM     23  C   UNL     1      -3.171  11.961  18.579  0.00  0.00    +0.000 A 
ATOM     24  C   UNL     1      -1.867  11.881  19.079  0.00  0.00    +0.000 A 
ATOM     25 BR   UNL     1      -1.427  13.053  20.512  0.00  0.00    +0.000 Br
ATOM     26  C   UNL     1      -0.935  10.978  18.533  0.00  0.00    +0.000 A 
ATOM     27  C   UNL     1      -1.346  10.206  17.430  0.00  0.00    +0.000 A 
BRANCH  21  29
ATOM     28  C   UNL     1      -3.356  10.241  14.658  0.00  0.00    +0.000 C 
ATOM     29  O   UNL     1      -2.900   9.536  15.809  0.00  0.00    +0.000 OA
ENDBRANCH  21  29
ENDBRANCH  20  26
ENDBRANCH   1  20
TORSDOF 6
ENDMDL
MODEL 4
REMARK VINA RESULT:      -7.3      4.028      8.965
REMARK  Name = 
REMARK  8 active torsions:
REMARK  status: ('A' for Active; 'I' for Inactive)
REMARK    1  A    between atoms: C_1  and  O_2
REMARK    2  A    between atoms: O_2  and  C_3
REMARK    3  A    between atoms: C_8  and  C_9
REMARK    4  A    between atoms: C_9  and  N_10
REMARK    5  A    between atoms: C_11  and  C_12
REMARK    6  A    between atoms: C_13  and  C_14
REMARK    7  A    between atoms: N_16  and  C_17
REMARK    8  A    between atoms: C_17  and  C_18
REMARK                            x       y       z     vdW  Elec       q    Type
REMARK                         _______ _______ _______ _____ _____    ______ ____
ROOT
ATOM      1  N   UNL     1       2.395   6.870  19.021  0.00  0.00    +0.000 N 
ATOM      2  C   UNL     1       2.040   8.203  18.799  0.00  0.00    +0.000 A 
ATOM      3  C   UNL     1       2.362   8.904  17.515  0.00  0.00    +0.000 C 
ATOM      4  C   UNL     1       1.407   8.753  19.855  0.00  0.00    +0.000 A 
ATOM      5  S   UNL     1       1.281   7.645  21.194  0.00  0.00    +0.000 S 
ATOM      6  C   UNL     1       2.083   6.376  20.282  0.00  0.00    +0.000 A 
ATOM      7  O   UNL     1       2.286   5.263  20.728  0.00  0.00    +0.000 OA
ENDROOT
BRANCH   4   8
ATOM      8  C   UNL     1       0.818  10.129  19.967  0.00  0.00    +0.000 C 
ATOM      9  O   UNL     1       1.115  10.890  20.880  0.00  0.00    +0.000 OA
ATOM     10  N   UNL     1      -0.052  10.457  18.952  0.00  0.00    +0.000 N 
ATOM     11  H   UNL     1      -0.267   9.750  18.258  0.00  0.00    +0.000 HD
BRANCH  10  12
ATOM     12  C   UNL     1      -0.744  11.724  18.852  0.00  0.00    +0.000 C 
BRANCH  12  13
ATOM     13  C   UNL     1      -2.215  11.567  18.521  0.00  0.00    +0.000 A 
ATOM     14  C   UNL     1      -2.606  10.724  17.463  0.00  0.00    +0.000 A 
ATOM     15  C   UNL     1      -3.957  10.513  17.181  0.00  0.00    +0.000 A 
ATOM     16  C   UNL     1      -4.926  11.135  17.954  0.00  0.00    +0.000 A 
ATOM     17  F   UNL     1      -6.223  10.924  17.691  0.00  0.00    +0.000 F 
ATOM     18  C   UNL     1      -4.567  11.965  19.011  0.00  0.00    +0.000 A 
ATOM     19  C   UNL     1      -3.216  12.173  19.298  0.00  0.00    +0.000 A 
ENDBRANCH  12  13
ENDBRANCH  10  12
ENDBRANCH   4   8
BRANCH   1  20
ATOM     20  C   UNL     1       2.959   5.955  18.037  0.00  0.00    +0.000 C 
BRANCH  20  26
ATOM     21  C   UNL     1       6.658   6.840  17.464  0.00  0.00    +0.000 A 
ATOM     22  C   UNL     1       7.295   5.719  17.987  0.00  0.00    +0.000 A 
ATOM     23  C   UNL     1       6.537   4.653  18.467  0.00  0.00    +0.000 A 
ATOM     24  C   UNL     1       5.140   4.716  18.444  0.00  0.00    +0.000 A 
ATOM     25 BR   UNL     1       4.205   3.173  19.052  0.00  0.00    +0.000 Br
ATOM     26  C   UNL     1       4.472   5.866  17.982  0.00  0.00    +0.000 A 
ATOM     27  C   UNL     1       5.261   6.923  17.491  0.00  0.00    +0.000 A 
BRANCH  21  29
ATOM     28  C   UNL     1       8.026   8.705  17.892  0.00  0.00    +0.000 C 
ATOM     29  O   UNL     1       7.306   7.926  16.941  0.00  0.00    +0.000 OA
ENDBRANCH  21  29
ENDBRANCH  20  26
ENDBRANCH   1  20
TORSDOF 6
ENDMDL
MODEL 5
REMARK VINA RESULT:      -7.2      4.083      9.098
REMARK  Name = 
REMARK  8 active torsions:
REMARK  status: ('A' for Active; 'I' for Inactive)
REMARK    1  A    between atoms: C_1  and  O_2
REMARK    2  A    between atoms: O_2  and  C_3
REMARK    3  A    between atoms: C_8  and  C_9
REMARK    4  A    between atoms: C_9  and  N_10
REMARK    5  A    between atoms: C_11  and  C_12
REMARK    6  A    between atoms: C_13  and  C_14
REMARK    7  A    between atoms: N_16  and  C_17
REMARK    8  A    between atoms: C_17  and  C_18
REMARK                            x       y       z     vdW  Elec       q    Type
REMARK                         _______ _______ _______ _____ _____    ______ ____
ROOT
ATOM      1  N   UNL     1       2.127   7.116  19.096  0.00  0.00    +0.000 N 
ATOM      2  C   UNL     1       1.818   8.452  18.830  0.00  0.00    +0.000 A 
ATOM      3  C   UNL     1       2.098   9.078  17.499  0.00  0.00    +0.000 C 
ATOM      4  C   UNL     1       1.272   9.078  19.892  0.00  0.00    +0.000 A 
ATOM      5  S   UNL     1       1.173   8.039  21.288  0.00  0.00    +0.000 S 
ATOM      6  C   UNL     1       1.866   6.694  20.394  0.00  0.00    +0.000 A 
ATOM      7  O   UNL     1       2.045   5.594  20.881  0.00  0.00    +0.000 OA
ENDROOT
BRANCH   4   8
ATOM      8  C   UNL     1       0.751  10.484  19.970  0.00  0.00    +0.000 C 
ATOM      9  O   UNL     1       1.413  11.396  20.450  0.00  0.00    +0.000 OA
ATOM     10  N   UNL     1      -0.508  10.651  19.438  0.00  0.00    +0.000 N 
ATOM     11  H   UNL     1      -0.996   9.832  19.096  0.00  0.00    +0.000 HD
BRANCH  10  12
ATOM     12  C   UNL     1      -1.215  11.914  19.406  0.00  0.00    +0.000 C 
BRANCH  12  13
ATOM     13  C   UNL     1      -2.623  11.786  18.860  0.00  0.00    +0.000 A 
ATOM     14  C   UNL     1      -3.709  12.285  19.605  0.00  0.00    +0.000 A 
ATOM     15  C   UNL     1      -5.007  12.237  19.094  0.00  0.00    +0.000 A 
ATOM     16  C   UNL     1      -5.231  11.697  17.837  0.00  0.00    +0.000 A 
ATOM     17  F   UNL     1      -6.476  11.660  17.342  0.00  0.00    +0.000 F 
ATOM     18  C   UNL     1      -4.176  11.206  17.075  0.00  0.00    +0.000 A 
ATOM     19  C   UNL     1      -2.875  11.258  17.582  0.00  0.00    +0.000 A 
ENDBRANCH  12  13
ENDBRANCH  10  12
ENDBRANCH   4   8
BRANCH   1  20
ATOM     20  C   UNL     1       2.593   6.131  18.128  0.00  0.00    +0.000 C 
BRANCH  20  26
ATOM     21  C   UNL     1       6.329   6.737  17.444  0.00  0.00    +0.000 A 
ATOM     22  C   UNL     1       6.897   5.577  17.963  0.00  0.00    +0.000 A 
ATOM     23  C   UNL     1       6.077   4.574  18.476  0.00  0.00    +0.000 A 
ATOM     24  C   UNL     1       4.688   4.739  18.490  0.00  0.00    +0.000 A 
ATOM     25 BR   UNL     1       3.660   3.275  19.141  0.00  0.00    +0.000 Br
ATOM     26  C   UNL     1       4.093   5.931  18.033  0.00  0.00    +0.000 A 
ATOM     27  C   UNL     1       4.943   6.922  17.508  0.00  0.00    +0.000 A 
BRANCH  21  29
ATOM     28  C   UNL     1       7.956   8.403  17.779  0.00  0.00    +0.000 C 
ATOM     29  O   UNL     1       7.040   7.767  16.891  0.00  0.00    +0.000 OA
ENDBRANCH  21  29
ENDBRANCH  20  26
ENDBRANCH   1  20
TORSDOF 6
ENDMDL
MODEL 6
REMARK VINA RESULT:      -7.1      3.590      4.753
REMARK  Name = 
REMARK  8 active torsions:
REMARK  status: ('A' for Active; 'I' for Inactive)
REMARK    1  A    between atoms: C_1  and  O_2
REMARK    2  A    between atoms: O_2  and  C_3
REMARK    3  A    between atoms: C_8  and  C_9
REMARK    4  A    between atoms: C_9  and  N_10
REMARK    5  A    between atoms: C_11  and  C_12
REMARK    6  A    between atoms: C_13  and  C_14
REMARK    7  A    between atoms: N_16  and  C_17
REMARK    8  A    between atoms: C_17  and  C_18
REMARK                            x       y       z     vdW  Elec       q    Type
REMARK                         _______ _______ _______ _____ _____    ______ ____
ROOT
ATOM      1  N   UNL     1      -0.731  11.655  21.025  0.00  0.00    +0.000 N 
ATOM      2  C   UNL     1      -0.182  11.059  19.888  0.00  0.00    +0.000 A 
ATOM      3  C   UNL     1      -0.450  11.584  18.511  0.00  0.00    +0.000 C 
ATOM      4  C   UNL     1       0.580   9.986  20.183  0.00  0.00    +0.000 A 
ATOM      5  S   UNL     1       0.594   9.640  21.891  0.00  0.00    +0.000 S 
ATOM      6  C   UNL     1      -0.441  11.020  22.227  0.00  0.00    +0.000 A 
ATOM      7  O   UNL     1      -0.796  11.328  23.348  0.00  0.00    +0.000 OA
ENDROOT
BRANCH   4   8
ATOM      8  C   UNL     1       1.384   9.135  19.243  0.00  0.00    +0.000 C 
ATOM      9  O   UNL     1       1.555   9.447  18.071  0.00  0.00    +0.000 OA
ATOM     10  N   UNL     1       1.921   8.006  19.819  0.00  0.00    +0.000 N 
ATOM     11  H   UNL     1       1.695   7.810  20.787  0.00  0.00    +0.000 HD
BRANCH  10  12
ATOM     12  C   UNL     1       2.727   7.036  19.109  0.00  0.00    +0.000 C 
BRANCH  12  13
ATOM     13  C   UNL     1       2.098   5.657  19.081  0.00  0.00    +0.000 A 
ATOM     14  C   UNL     1       2.131   4.899  17.895  0.00  0.00    +0.000 A 
ATOM     15  C   UNL     1       1.617   3.601  17.863  0.00  0.00    +0.000 A 
ATOM     16  C   UNL     1       1.073   3.049  19.013  0.00  0.00    +0.000 A 
ATOM     17  F   UNL     1       0.589   1.800  18.986  0.00  0.00    +0.000 F 
ATOM     18  C   UNL     1       1.037   3.772  20.201  0.00  0.00    +0.000 A 
ATOM     19  C   UNL     1       1.556   5.069  20.236  0.00  0.00    +0.000 A 
ENDBRANCH  12  13
ENDBRANCH  10  12
ENDBRANCH   4   8
BRANCH   1  20
ATOM     20  C   UNL     1      -1.479  12.906  21.065  0.00  0.00    +0.000 C 
BRANCH  20  26
ATOM     21  C   UNL     1      -5.043  12.273  19.763  0.00  0.00    +0.000 A 
ATOM     22  C   UNL     1      -5.800  12.495  20.910  0.00  0.00    +0.000 A 
ATOM     23  C   UNL     1      -5.173  12.907  22.084  0.00  0.00    +0.000 A 
ATOM     24  C   UNL     1      -3.785  13.078  22.119  0.00  0.00    +0.000 A 
ATOM     25 BR   UNL     1      -3.043  13.718  23.750  0.00  0.00    +0.000 Br
ATOM     26  C   UNL     1      -2.990  12.795  20.992  0.00  0.00    +0.000 A 
ATOM     27  C   UNL     1      -3.649  12.393  19.815  0.00  0.00    +0.000 A 
BRANCH  21  29
ATOM     28  C   UNL     1      -6.427  10.766  18.604  0.00  0.00    +0.000 C 
ATOM     29  O   UNL     1      -5.561  11.897  18.554  0.00  0.00    +0.000 OA
ENDBRANCH  21  29
ENDBRANCH  20  26
ENDBRANCH   1  20
TORSDOF 6
ENDMDL
MODEL 7
REMARK VINA RESULT:      -7.1      3.577      5.373
REMARK  Name = 
REMARK  8 active torsions:
REMARK  status: ('A' for Active; 'I' for Inactive)
REMARK    1  A    between atoms: C_1  and  O_2
REMARK    2  A    between atoms: O_2  and  C_3
REMARK    3  A    between atoms: C_8  and  C_9
REMARK    4  A    between atoms: C_9  and  N_10
REMARK    5  A    between atoms: C_11  and  C_12
REMARK    6  A    between atoms: C_13  and  C_14
REMARK    7  A    between atoms: N_16  and  C_17
REMARK    8  A    between atoms: C_17  and  C_18
REMARK                            x       y       z     vdW  Elec       q    Type
REMARK                         _______ _______ _______ _____ _____    ______ ____
ROOT
ATOM      1  N   UNL     1      -0.695  12.055  18.688  0.00  0.00    +0.000 N 
ATOM      2  C   UNL     1       0.534  11.394  18.763  0.00  0.00    +0.000 A 
ATOM      3  C   UNL     1       1.765  12.068  19.285  0.00  0.00    +0.000 C 
ATOM      4  C   UNL     1       0.467  10.125  18.310  0.00  0.00    +0.000 A 
ATOM      5  S   UNL     1      -1.121   9.723  17.715  0.00  0.00    +0.000 S 
ATOM      6  C   UNL     1      -1.731  11.319  18.127  0.00  0.00    +0.000 A 
ATOM      7  O   UNL     1      -2.884  11.657  17.943  0.00  0.00    +0.000 OA
ENDROOT
BRANCH   4   8
ATOM      8  C   UNL     1       1.554   9.089  18.296  0.00  0.00    +0.000 C 
ATOM      9  O   UNL     1       2.320   8.966  17.348  0.00  0.00    +0.000 OA
ATOM     10  N   UNL     1       1.621   8.324  19.438  0.00  0.00    +0.000 N 
ATOM     11  H   UNL     1       0.922   8.473  20.156  0.00  0.00    +0.000 HD
BRANCH  10  12
ATOM     12  C   UNL     1       2.583   7.263  19.649  0.00  0.00    +0.000 C 
BRANCH  12  13
ATOM     13  C   UNL     1       2.004   5.885  19.395  0.00  0.00    +0.000 A 
ATOM     14  C   UNL     1       2.082   5.322  18.106  0.00  0.00    +0.000 A 
ATOM     15  C   UNL     1       1.615   4.030  17.863  0.00  0.00    +0.000 A 
ATOM     16  C   UNL     1       1.072   3.288  18.902  0.00  0.00    +0.000 A 
ATOM     17  F   UNL     1       0.632   2.043  18.672  0.00  0.00    +0.000 F 
ATOM     18  C   UNL     1       0.992   3.816  20.186  0.00  0.00    +0.000 A 
ATOM     19  C   UNL     1       1.464   5.108  20.433  0.00  0.00    +0.000 A 
ENDBRANCH  12  13
ENDBRANCH  10  12
ENDBRANCH   4   8
BRANCH   1  20
ATOM     20  C   UNL     1      -0.994  13.377  19.224  0.00  0.00    +0.000 C 
BRANCH  20  26
ATOM     21  C   UNL     1      -2.406  12.765  22.749  0.00  0.00    +0.000 A 
ATOM     22  C   UNL     1      -1.576  13.570  23.523  0.00  0.00    +0.000 A 
ATOM     23  C   UNL     1      -0.604  14.356  22.907  0.00  0.00    +0.000 A 
ATOM     24  C   UNL     1      -0.447  14.322  21.518  0.00  0.00    +0.000 A 
ATOM     25 BR   UNL     1       0.858  15.493  20.776  0.00  0.00    +0.000 Br
ATOM     26  C   UNL     1      -1.228  13.465  20.719  0.00  0.00    +0.000 A 
ATOM     27  C   UNL     1      -2.211  12.692  21.365  0.00  0.00    +0.000 A 
BRANCH  21  29
ATOM     28  C   UNL     1      -4.085  12.525  24.378  0.00  0.00    +0.000 C 
ATOM     29  O   UNL     1      -3.409  11.980  23.249  0.00  0.00    +0.000 OA
ENDBRANCH  21  29
ENDBRANCH  20  26
ENDBRANCH   1  20
TORSDOF 6
ENDMDL
MODEL 8
REMARK VINA RESULT:      -7.0      4.484      9.279
REMARK  Name = 
REMARK  8 active torsions:
REMARK  status: ('A' for Active; 'I' for Inactive)
REMARK    1  A    between atoms: C_1  and  O_2
REMARK    2  A    between atoms: O_2  and  C_3
REMARK    3  A    between atoms: C_8  and  C_9
REMARK    4  A    between atoms: C_9  and  N_10
REMARK    5  A    between atoms: C_11  and  C_12
REMARK    6  A    between atoms: C_13  and  C_14
REMARK    7  A    between atoms: N_16  and  C_17
REMARK    8  A    between atoms: C_17  and  C_18
REMARK                            x       y       z     vdW  Elec       q    Type
REMARK                         _______ _______ _______ _____ _____    ______ ____
ROOT
ATOM      1  N   UNL     1       2.323   6.961  19.059  0.00  0.00    +0.000 N 
ATOM      2  C   UNL     1       1.970   8.273  18.733  0.00  0.00    +0.000 A 
ATOM      3  C   UNL     1       2.304   8.876  17.404  0.00  0.00    +0.000 C 
ATOM      4  C   UNL     1       1.327   8.901  19.739  0.00  0.00    +0.000 A 
ATOM      5  S   UNL     1       1.187   7.897  21.157  0.00  0.00    +0.000 S 
ATOM      6  C   UNL     1       1.999   6.563  20.350  0.00  0.00    +0.000 A 
ATOM      7  O   UNL     1       2.198   5.488  20.881  0.00  0.00    +0.000 OA
ENDROOT
BRANCH   4   8
ATOM      8  C   UNL     1       0.736  10.281  19.741  0.00  0.00    +0.000 C 
ATOM      9  O   UNL     1      -0.018  10.665  18.855  0.00  0.00    +0.000 OA
ATOM     10  N   UNL     1       1.094  11.049  20.825  0.00  0.00    +0.000 N 
ATOM     11  H   UNL     1       1.752  10.660  21.491  0.00  0.00    +0.000 HD
BRANCH  10  12
ATOM     12  C   UNL     1       0.651  12.410  21.039  0.00  0.00    +0.000 C 
BRANCH  12  13
ATOM     13  C   UNL     1      -0.758  12.491  21.593  0.00  0.00    +0.000 A 
ATOM     14  C   UNL     1      -1.769  13.119  20.841  0.00  0.00    +0.000 A 
ATOM     15  C   UNL     1      -3.086  13.148  21.301  0.00  0.00    +0.000 A 
ATOM     16  C   UNL     1      -3.406  12.548  22.510  0.00  0.00    +0.000 A 
ATOM     17  F   UNL     1      -4.672  12.566  22.947  0.00  0.00    +0.000 F 
ATOM     18  C   UNL     1      -2.429  11.911  23.268  0.00  0.00    +0.000 A 
ATOM     19  C   UNL     1      -1.110  11.876  22.806  0.00  0.00    +0.000 A 
ENDBRANCH  12  13
ENDBRANCH  10  12
ENDBRANCH   4   8
BRANCH   1  20
ATOM     20  C   UNL     1       2.897   5.975  18.153  0.00  0.00    +0.000 C 
BRANCH  20  26
ATOM     21  C   UNL     1       6.589   6.863  17.543  0.00  0.00    +0.000 A 
ATOM     22  C   UNL     1       7.235   5.775  18.123  0.00  0.00    +0.000 A 
ATOM     23  C   UNL     1       6.485   4.728  18.654  0.00  0.00    +0.000 A 
ATOM     24  C   UNL     1       5.088   4.777  18.625  0.00  0.00    +0.000 A 
ATOM     25 BR   UNL     1       4.165   3.259  19.308  0.00  0.00    +0.000 Br
ATOM     26  C   UNL     1       4.411   5.897  18.106  0.00  0.00    +0.000 A 
ATOM     27  C   UNL     1       5.191   6.935  17.564  0.00  0.00    +0.000 A 
BRANCH  21  29
ATOM     28  C   UNL     1       8.066   8.668  17.851  0.00  0.00    +0.000 C 
ATOM     29  O   UNL     1       7.229   7.927  16.967  0.00  0.00    +0.000 OA
ENDBRANCH  21  29
ENDBRANCH  20  26
ENDBRANCH   1  20
TORSDOF 6
ENDMDL
MODEL 9
REMARK VINA RESULT:      -7.0      3.217      4.073
REMARK  Name = 
REMARK  8 active torsions:
REMARK  status: ('A' for Active; 'I' for Inactive)
REMARK    1  A    between atoms: C_1  and  O_2
REMARK    2  A    between atoms: O_2  and  C_3
REMARK    3  A    between atoms: C_8  and  C_9
REMARK    4  A    between atoms: C_9  and  N_10
REMARK    5  A    between atoms: C_11  and  C_12
REMARK    6  A    between atoms: C_13  and  C_14
REMARK    7  A    between atoms: N_16  and  C_17
REMARK    8  A    between atoms: C_17  and  C_18
REMARK                            x       y       z     vdW  Elec       q    Type
REMARK                         _______ _______ _______ _____ _____    ______ ____
ROOT
ATOM      1  N   UNL     1       0.266  10.918  20.870  0.00  0.00    +0.000 N 
ATOM      2  C   UNL     1       0.835  10.177  19.831  0.00  0.00    +0.000 A 
ATOM      3  C   UNL     1       0.904  10.702  18.430  0.00  0.00    +0.000 C 
ATOM      4  C   UNL     1       1.281   8.972  20.239  0.00  0.00    +0.000 A 
ATOM      5  S   UNL     1       0.956   8.689  21.928  0.00  0.00    +0.000 S 
ATOM      6  C   UNL     1       0.219  10.275  22.100  0.00  0.00    +0.000 A 
ATOM      7  O   UNL     1      -0.224  10.691  23.153  0.00  0.00    +0.000 OA
ENDROOT
BRANCH   4   8
ATOM      8  C   UNL     1       2.007   7.933  19.435  0.00  0.00    +0.000 C 
ATOM      9  O   UNL     1       2.047   7.971  18.211  0.00  0.00    +0.000 OA
ATOM     10  N   UNL     1       2.632   6.967  20.190  0.00  0.00    +0.000 N 
ATOM     11  H   UNL     1       2.514   6.995  21.196  0.00  0.00    +0.000 HD
BRANCH  10  12
ATOM     12  C   UNL     1       3.387   5.864  19.635  0.00  0.00    +0.000 C 
BRANCH  12  13
ATOM     13  C   UNL     1       2.520   4.665  19.305  0.00  0.00    +0.000 A 
ATOM     14  C   UNL     1       2.789   3.906  18.149  0.00  0.00    +0.000 A 
ATOM     15  C   UNL     1       2.046   2.761  17.859  0.00  0.00    +0.000 A 
ATOM     16  C   UNL     1       1.035   2.361  18.720  0.00  0.00    +0.000 A 
ATOM     17  F   UNL     1       0.329   1.255  18.447  0.00  0.00    +0.000 F 
ATOM     18  C   UNL     1       0.755   3.085  19.873  0.00  0.00    +0.000 A 
ATOM     19  C   UNL     1       1.502   4.229  20.169  0.00  0.00    +0.000 A 
ENDBRANCH  12  13
ENDBRANCH  10  12
ENDBRANCH   4   8
BRANCH   1  20
ATOM     20  C   UNL     1      -0.179  12.304  20.794  0.00  0.00    +0.000 C 
BRANCH  20  26
ATOM     21  C   UNL     1      -3.755  12.266  19.378  0.00  0.00    +0.000 A 
ATOM     22  C   UNL     1      -4.467  12.872  20.408  0.00  0.00    +0.000 A 
ATOM     23  C   UNL     1      -3.791  13.348  21.530  0.00  0.00    +0.000 A 
ATOM     24  C   UNL     1      -2.404  13.200  21.632  0.00  0.00    +0.000 A 
ATOM     25 BR   UNL     1      -1.575  13.956  23.170  0.00  0.00    +0.000 Br
ATOM     26  C   UNL     1      -1.670  12.530  20.635  0.00  0.00    +0.000 A 
ATOM     27  C   UNL     1      -2.374  12.071  19.507  0.00  0.00    +0.000 A 
BRANCH  21  29
ATOM     28  C   UNL     1      -5.656  11.330  18.358  0.00  0.00    +0.000 C 
ATOM     29  O   UNL     1      -4.315  11.792  18.223  0.00  0.00    +0.000 OA
ENDBRANCH  21  29
ENDBRANCH  20  26
ENDBRANCH   1  20
TORSDOF 6
ENDMDL
