MODEL 1
REMARK VINA RESULT:      -8.2      0.000      0.000
REMARK  Name = 
REMARK  4 active torsions:
REMARK  status: ('A' for Active; 'I' for Inactive)
REMARK    1  A    between atoms: C_7  and  C_8
REMARK    2  A    between atoms: C_12  and  C_13
REMARK    3  A    between atoms: C_16  and  O_17
REMARK    4  A    between atoms: O_17  and  C_18
REMARK                            x       y       z     vdW  Elec       q    Type
REMARK                         _______ _______ _______ _____ _____    ______ ____
ROOT
ATOM      1  C   UNL     1       4.387   4.950  19.324  0.00  0.00    +0.000 A 
ATOM      2  C   UNL     1       3.613   3.948  19.893  0.00  0.00    +0.000 A 
ATOM      3  N   UNL     1       2.349   4.131  20.328  0.00  0.00    +0.000 NA
ATOM      4  C   UNL     1       1.832   5.377  20.182  0.00  0.00    +0.000 A 
ATOM      5  C   UNL     1       2.506   6.473  19.633  0.00  0.00    +0.000 A 
ATOM      6  C   UNL     1       3.818   6.221  19.200  0.00  0.00    +0.000 A 
ENDROOT
BRANCH   1  13
ATOM      7  N   UNL     1       6.546   4.778  13.869  0.00  0.00    +0.000 NA
ATOM      8  C   UNL     1       6.583   4.696  15.146  0.00  0.00    +0.000 C 
ATOM      9  N   UNL     1       7.700   4.435  15.855  0.00  0.00    +0.000 N 
ATOM     10  C   UNL     1       7.567   4.399  17.217  0.00  0.00    +0.000 C 
ATOM     11  O   UNL     1       8.483   4.187  17.996  0.00  0.00    +0.000 OA
ATOM     12  C   UNL     1       6.152   4.662  17.598  0.00  0.00    +0.000 C 
ATOM     13  C   UNL     1       5.757   4.694  18.875  0.00  0.00    +0.000 C 
ATOM     14  S   UNL     1       5.204   4.907  16.178  0.00  0.00    +0.000 S 
ATOM     15  H   UNL     1       7.471   4.621  13.471  0.00  0.00    +0.000 HD
ATOM     16  H   UNL     1       8.603   4.282  15.444  0.00  0.00    +0.000 HD
ENDBRANCH   1  13
BRANCH   5  17
ATOM     17  C   UNL     1       1.887   7.813  19.528  0.00  0.00    +0.000 A 
ATOM     18  C   UNL     1       1.922   8.550  18.333  0.00  0.00    +0.000 A 
ATOM     19  C   UNL     1       1.305   9.802  18.232  0.00  0.00    +0.000 A 
ATOM     20  C   UNL     1       0.616  10.347  19.314  0.00  0.00    +0.000 A 
ATOM     21  C   UNL     1       0.615   9.661  20.523  0.00  0.00    +0.000 A 
ATOM     22  C   UNL     1       1.232   8.406  20.622  0.00  0.00    +0.000 A 
BRANCH  20  23
ATOM     23  O   UNL     1       0.057  11.566  19.088  0.00  0.00    +0.000 OA
BRANCH  23  24
ATOM     24  C   UNL     1      -1.314  11.649  18.721  0.00  0.00    +0.000 C 
ATOM     25  F   UNL     1      -1.901  10.459  18.468  0.00  0.00    +0.000 F 
ATOM     26  F   UNL     1      -1.999  12.266  19.707  0.00  0.00    +0.000 F 
ATOM     27  F   UNL     1      -1.414  12.404  17.604  0.00  0.00    +0.000 F 
ENDBRANCH  23  24
ENDBRANCH  20  23
ENDBRANCH   5  17
TORSDOF 4
ENDMDL
MODEL 2
REMARK VINA RESULT:      -8.0      5.311      8.593
REMARK  Name = 
REMARK  4 active torsions:
REMARK  status: ('A' for Active; 'I' for Inactive)
REMARK    1  A    between atoms: C_7  and  C_8
REMARK    2  A    between atoms: C_12  and  C_13
REMARK    3  A    between atoms: C_16  and  O_17
REMARK    4  A    between atoms: O_17  and  C_18
REMARK                            x       y       z     vdW  Elec       q    Type
REMARK                         _______ _______ _______ _____ _____    ______ ____
ROOT
ATOM      1  C   UNL     1       1.622   9.201  19.340  0.00  0.00    +0.000 A 
ATOM      2  C   UNL     1       1.097   8.607  20.479  0.00  0.00    +0.000 A 
ATOM      3  N   UNL     1       1.309   7.318  20.819  0.00  0.00    +0.000 NA
ATOM      4  C   UNL     1       2.088   6.590  19.980  0.00  0.00    +0.000 A 
ATOM      5  C   UNL     1       2.670   7.065  18.800  0.00  0.00    +0.000 A 
ATOM      6  C   UNL     1       2.412   8.413  18.498  0.00  0.00    +0.000 A 
ENDROOT
BRANCH   1  13
ATOM      7  N   UNL     1      -3.232  11.649  17.128  0.00  0.00    +0.000 NA
ATOM      8  C   UNL     1      -2.032  11.624  17.570  0.00  0.00    +0.000 C 
ATOM      9  N   UNL     1      -1.248  12.713  17.695  0.00  0.00    +0.000 N 
ATOM     10  C   UNL     1       0.007  12.511  18.203  0.00  0.00    +0.000 C 
ATOM     11  O   UNL     1       0.830  13.395  18.387  0.00  0.00    +0.000 OA
ATOM     12  C   UNL     1       0.210  11.066  18.500  0.00  0.00    +0.000 C 
ATOM     13  C   UNL     1       1.353  10.604  19.018  0.00  0.00    +0.000 C 
ATOM     14  S   UNL     1      -1.212  10.182  18.086  0.00  0.00    +0.000 S 
ATOM     15  H   UNL     1      -3.507  12.601  16.887  0.00  0.00    +0.000 HD
ATOM     16  H   UNL     1      -1.537  13.643  17.451  0.00  0.00    +0.000 HD
ENDBRANCH   1  13
BRANCH   5  17
ATOM     17  C   UNL     1       3.488   6.205  17.917  0.00  0.00    +0.000 A 
ATOM     18  C   UNL     1       4.633   6.693  17.267  0.00  0.00    +0.000 A 
ATOM     19  C   UNL     1       5.422   5.864  16.461  0.00  0.00    +0.000 A 
ATOM     20  C   UNL     1       5.104   4.517  16.297  0.00  0.00    +0.000 A 
ATOM     21  C   UNL     1       3.944   4.025  16.885  0.00  0.00    +0.000 A 
ATOM     22  C   UNL     1       3.157   4.856  17.694  0.00  0.00    +0.000 A 
BRANCH  20  23
ATOM     23  O   UNL     1       5.949   3.817  15.493  0.00  0.00    +0.000 OA
BRANCH  23  24
ATOM     24  C   UNL     1       5.991   4.109  14.103  0.00  0.00    +0.000 C 
ATOM     25  F   UNL     1       6.326   3.062  13.318  0.00  0.00    +0.000 F 
ATOM     26  F   UNL     1       4.784   4.570  13.712  0.00  0.00    +0.000 F 
ATOM     27  F   UNL     1       6.902   5.087  13.896  0.00  0.00    +0.000 F 
ENDBRANCH  23  24
ENDBRANCH  20  23
ENDBRANCH   5  17
TORSDOF 4
ENDMDL
MODEL 3
REMARK VINA RESULT:      -8.0      2.946      4.002
REMARK  Name = 
REMARK  4 active torsions:
REMARK  status: ('A' for Active; 'I' for Inactive)
REMARK    1  A    between atoms: C_7  and  C_8
REMARK    2  A    between atoms: C_12  and  C_13
REMARK    3  A    between atoms: C_16  and  O_17
REMARK    4  A    between atoms: O_17  and  C_18
REMARK                            x       y       z     vdW  Elec       q    Type
REMARK                         _______ _______ _______ _____ _____    ______ ____
ROOT
ATOM      1  C   UNL     1       2.379   7.048  19.099  0.00  0.00    +0.000 A 
ATOM      2  C   UNL     1       2.581   7.607  17.844  0.00  0.00    +0.000 A 
ATOM      3  N   UNL     1       2.197   8.857  17.509  0.00  0.00    +0.000 NA
ATOM      4  C   UNL     1       1.586   9.584  18.478  0.00  0.00    +0.000 A 
ATOM      5  C   UNL     1       1.317   9.138  19.776  0.00  0.00    +0.000 A 
ATOM      6  C   UNL     1       1.739   7.829  20.065  0.00  0.00    +0.000 A 
ENDROOT
BRANCH   1  13
ATOM      7  N   UNL     1       7.476   4.402  17.886  0.00  0.00    +0.000 NA
ATOM      8  C   UNL     1       6.285   4.493  18.345  0.00  0.00    +0.000 C 
ATOM      9  N   UNL     1       5.639   3.493  18.978  0.00  0.00    +0.000 N 
ATOM     10  C   UNL     1       4.372   3.764  19.421  0.00  0.00    +0.000 C 
ATOM     11  O   UNL     1       3.663   2.970  20.020  0.00  0.00    +0.000 OA
ATOM     12  C   UNL     1       3.999   5.163  19.071  0.00  0.00    +0.000 C 
ATOM     13  C   UNL     1       2.813   5.684  19.404  0.00  0.00    +0.000 C 
ATOM     14  S   UNL     1       5.301   5.919  18.230  0.00  0.00    +0.000 S 
ATOM     15  H   UNL     1       7.861   3.475  18.067  0.00  0.00    +0.000 HD
ATOM     16  H   UNL     1       6.035   2.586  19.146  0.00  0.00    +0.000 HD
ENDBRANCH   1  13
BRANCH   5  17
ATOM     17  C   UNL     1       0.622   9.979  20.775  0.00  0.00    +0.000 A 
ATOM     18  C   UNL     1       0.556  11.375  20.646  0.00  0.00    +0.000 A 
ATOM     19  C   UNL     1      -0.132  12.161  21.578  0.00  0.00    +0.000 A 
ATOM     20  C   UNL     1      -0.795  11.574  22.655  0.00  0.00    +0.000 A 
ATOM     21  C   UNL     1      -0.697  10.199  22.833  0.00  0.00    +0.000 A 
ATOM     22  C   UNL     1      -0.009   9.413  21.898  0.00  0.00    +0.000 A 
BRANCH  20  23
ATOM     23  O   UNL     1      -1.430  12.443  23.486  0.00  0.00    +0.000 OA
BRANCH  23  24
ATOM     24  C   UNL     1      -2.844  12.568  23.417  0.00  0.00    +0.000 C 
ATOM     25  F   UNL     1      -3.523  11.739  24.239  0.00  0.00    +0.000 F 
ATOM     26  F   UNL     1      -3.190  13.840  23.709  0.00  0.00    +0.000 F 
ATOM     27  F   UNL     1      -3.238  12.305  22.150  0.00  0.00    +0.000 F 
ENDBRANCH  23  24
ENDBRANCH  20  23
ENDBRANCH   5  17
TORSDOF 4
ENDMDL
MODEL 4
REMARK VINA RESULT:      -8.0      2.307      3.102
REMARK  Name = 
REMARK  4 active torsions:
REMARK  status: ('A' for Active; 'I' for Inactive)
REMARK    1  A    between atoms: C_7  and  C_8
REMARK    2  A    between atoms: C_12  and  C_13
REMARK    3  A    between atoms: C_16  and  O_17
REMARK    4  A    between atoms: O_17  and  C_18
REMARK                            x       y       z     vdW  Elec       q    Type
REMARK                         _______ _______ _______ _____ _____    ______ ____
ROOT
ATOM      1  C   UNL     1       2.955   6.302  18.710  0.00  0.00    +0.000 A 
ATOM      2  C   UNL     1       2.703   5.085  19.330  0.00  0.00    +0.000 A 
ATOM      3  N   UNL     1       1.940   4.951  20.436  0.00  0.00    +0.000 NA
ATOM      4  C   UNL     1       1.401   6.088  20.943  0.00  0.00    +0.000 A 
ATOM      5  C   UNL     1       1.583   7.372  20.420  0.00  0.00    +0.000 A 
ATOM      6  C   UNL     1       2.387   7.449  19.270  0.00  0.00    +0.000 A 
ENDROOT
BRANCH   1  13
ATOM      7  N   UNL     1       8.316   4.107  17.763  0.00  0.00    +0.000 NA
ATOM      8  C   UNL     1       7.249   4.753  17.477  0.00  0.00    +0.000 C 
ATOM      9  N   UNL     1       7.020   5.351  16.291  0.00  0.00    +0.000 N 
ATOM     10  C   UNL     1       5.816   5.988  16.146  0.00  0.00    +0.000 C 
ATOM     11  O   UNL     1       5.456   6.565  15.132  0.00  0.00    +0.000 OA
ATOM     12  C   UNL     1       5.021   5.863  17.399  0.00  0.00    +0.000 C 
ATOM     13  C   UNL     1       3.796   6.388  17.515  0.00  0.00    +0.000 C 
ATOM     14  S   UNL     1       5.916   4.967  18.570  0.00  0.00    +0.000 S 
ATOM     15  H   UNL     1       8.959   4.109  16.972  0.00  0.00    +0.000 HD
ATOM     16  H   UNL     1       7.668   5.343  15.524  0.00  0.00    +0.000 HD
ENDBRANCH   1  13
BRANCH   5  17
ATOM     17  C   UNL     1       0.983   8.573  21.042  0.00  0.00    +0.000 A 
ATOM     18  C   UNL     1       0.430   8.537  22.332  0.00  0.00    +0.000 A 
ATOM     19  C   UNL     1      -0.105   9.686  22.927  0.00  0.00    +0.000 A 
ATOM     20  C   UNL     1      -0.084  10.910  22.260  0.00  0.00    +0.000 A 
ATOM     21  C   UNL     1       0.407  10.958  20.961  0.00  0.00    +0.000 A 
ATOM     22  C   UNL     1       0.945   9.807  20.367  0.00  0.00    +0.000 A 
BRANCH  20  23
ATOM     23  O   UNL     1      -0.630  11.951  22.945  0.00  0.00    +0.000 OA
BRANCH  23  24
ATOM     24  C   UNL     1      -2.004  12.266  22.758  0.00  0.00    +0.000 C 
ATOM     25  F   UNL     1      -2.454  12.093  21.497  0.00  0.00    +0.000 F 
ATOM     26  F   UNL     1      -2.748  11.505  23.589  0.00  0.00    +0.000 F 
ATOM     27  F   UNL     1      -2.196  13.562  23.090  0.00  0.00    +0.000 F 
ENDBRANCH  23  24
ENDBRANCH  20  23
ENDBRANCH   5  17
TORSDOF 4
ENDMDL
MODEL 5
REMARK VINA RESULT:      -7.9      5.301      8.878
REMARK  Name = 
REMARK  4 active torsions:
REMARK  status: ('A' for Active; 'I' for Inactive)
REMARK    1  A    between atoms: C_7  and  C_8
REMARK    2  A    between atoms: C_12  and  C_13
REMARK    3  A    between atoms: C_16  and  O_17
REMARK    4  A    between atoms: O_17  and  C_18
REMARK                            x       y       z     vdW  Elec       q    Type
REMARK                         _______ _______ _______ _____ _____    ______ ____
ROOT
ATOM      1  C   UNL     1       2.282   7.568  18.956  0.00  0.00    +0.000 A 
ATOM      2  C   UNL     1       2.133   6.758  20.074  0.00  0.00    +0.000 A 
ATOM      3  N   UNL     1       2.716   5.547  20.207  0.00  0.00    +0.000 NA
ATOM      4  C   UNL     1       3.490   5.130  19.173  0.00  0.00    +0.000 A 
ATOM      5  C   UNL     1       3.716   5.845  17.992  0.00  0.00    +0.000 A 
ATOM      6  C   UNL     1       3.082   7.096  17.911  0.00  0.00    +0.000 A 
ENDROOT
BRANCH   1  13
ATOM      7  N   UNL     1      -0.386  10.690  23.149  0.00  0.00    +0.000 NA
ATOM      8  C   UNL     1       0.026  10.432  21.965  0.00  0.00    +0.000 C 
ATOM      9  N   UNL     1      -0.146  11.251  20.908  0.00  0.00    +0.000 N 
ATOM     10  C   UNL     1       0.373  10.829  19.714  0.00  0.00    +0.000 C 
ATOM     11  O   UNL     1       0.310  11.460  18.670  0.00  0.00    +0.000 OA
ATOM     12  C   UNL     1       1.023   9.500  19.882  0.00  0.00    +0.000 C 
ATOM     13  C   UNL     1       1.620   8.870  18.865  0.00  0.00    +0.000 C 
ATOM     14  S   UNL     1       0.875   8.984  21.521  0.00  0.00    +0.000 S 
ATOM     15  H   UNL     1      -0.856  11.594  23.177  0.00  0.00    +0.000 HD
ATOM     16  H   UNL     1      -0.612  12.139  20.957  0.00  0.00    +0.000 HD
ENDBRANCH   1  13
BRANCH   5  17
ATOM     17  C   UNL     1       4.553   5.315  16.894  0.00  0.00    +0.000 A 
ATOM     18  C   UNL     1       4.805   3.941  16.755  0.00  0.00    +0.000 A 
ATOM     19  C   UNL     1       5.571   3.444  15.694  0.00  0.00    +0.000 A 
ATOM     20  C   UNL     1       6.089   4.303  14.725  0.00  0.00    +0.000 A 
ATOM     21  C   UNL     1       5.900   5.672  14.873  0.00  0.00    +0.000 A 
ATOM     22  C   UNL     1       5.131   6.167  15.935  0.00  0.00    +0.000 A 
BRANCH  20  23
ATOM     23  O   UNL     1       6.811   3.698  13.744  0.00  0.00    +0.000 OA
BRANCH  23  24
ATOM     24  C   UNL     1       6.235   3.532  12.455  0.00  0.00    +0.000 C 
ATOM     25  F   UNL     1       6.432   2.317  11.902  0.00  0.00    +0.000 F 
ATOM     26  F   UNL     1       4.906   3.759  12.534  0.00  0.00    +0.000 F 
ATOM     27  F   UNL     1       6.769   4.455  11.624  0.00  0.00    +0.000 F 
ENDBRANCH  23  24
ENDBRANCH  20  23
ENDBRANCH   5  17
TORSDOF 4
ENDMDL
MODEL 6
REMARK VINA RESULT:      -7.9      5.371      8.692
REMARK  Name = 
REMARK  4 active torsions:
REMARK  status: ('A' for Active; 'I' for Inactive)
REMARK    1  A    between atoms: C_7  and  C_8
REMARK    2  A    between atoms: C_12  and  C_13
REMARK    3  A    between atoms: C_16  and  O_17
REMARK    4  A    between atoms: O_17  and  C_18
REMARK                            x       y       z     vdW  Elec       q    Type
REMARK                         _______ _______ _______ _____ _____    ______ ____
ROOT
ATOM      1  C   UNL     1       1.674   9.242  19.230  0.00  0.00    +0.000 A 
ATOM      2  C   UNL     1       1.134   8.631  20.352  0.00  0.00    +0.000 A 
ATOM      3  N   UNL     1       1.356   7.342  20.685  0.00  0.00    +0.000 NA
ATOM      4  C   UNL     1       2.163   6.632  19.856  0.00  0.00    +0.000 A 
ATOM      5  C   UNL     1       2.763   7.126  18.693  0.00  0.00    +0.000 A 
ATOM      6  C   UNL     1       2.493   8.473  18.398  0.00  0.00    +0.000 A 
ENDROOT
BRANCH   1  13
ATOM      7  N   UNL     1      -3.295  11.699  17.299  0.00  0.00    +0.000 NA
ATOM      8  C   UNL     1      -2.070  11.671  17.668  0.00  0.00    +0.000 C 
ATOM      9  N   UNL     1      -1.275  12.757  17.737  0.00  0.00    +0.000 N 
ATOM     10  C   UNL     1       0.008  12.553  18.169  0.00  0.00    +0.000 C 
ATOM     11  O   UNL     1       0.845  13.433  18.296  0.00  0.00    +0.000 OA
ATOM     12  C   UNL     1       0.222  11.109  18.464  0.00  0.00    +0.000 C 
ATOM     13  C   UNL     1       1.392  10.644  18.915  0.00  0.00    +0.000 C 
ATOM     14  S   UNL     1      -1.227  10.229  18.144  0.00  0.00    +0.000 S 
ATOM     15  H   UNL     1      -3.579  12.650  17.069  0.00  0.00    +0.000 HD
ATOM     16  H   UNL     1      -1.574  13.687  17.504  0.00  0.00    +0.000 HD
ENDBRANCH   1  13
BRANCH   5  17
ATOM     17  C   UNL     1       3.612   6.285  17.821  0.00  0.00    +0.000 A 
ATOM     18  C   UNL     1       3.441   4.893  17.745  0.00  0.00    +0.000 A 
ATOM     19  C   UNL     1       4.226   4.109  16.892  0.00  0.00    +0.000 A 
ATOM     20  C   UNL     1       5.191   4.693  16.073  0.00  0.00    +0.000 A 
ATOM     21  C   UNL     1       5.417   6.061  16.173  0.00  0.00    +0.000 A 
ATOM     22  C   UNL     1       4.628   6.845  17.026  0.00  0.00    +0.000 A 
BRANCH  20  23
ATOM     23  O   UNL     1       5.884   3.825  15.288  0.00  0.00    +0.000 OA
BRANCH  23  24
ATOM     24  C   UNL     1       5.942   4.047  13.885  0.00  0.00    +0.000 C 
ATOM     25  F   UNL     1       4.768   4.405  13.323  0.00  0.00    +0.000 F 
ATOM     26  F   UNL     1       6.854   5.010  13.629  0.00  0.00    +0.000 F 
ATOM     27  F   UNL     1       6.356   2.907  13.287  0.00  0.00    +0.000 F 
ENDBRANCH  23  24
ENDBRANCH  20  23
ENDBRANCH   5  17
TORSDOF 4
ENDMDL
MODEL 7
REMARK VINA RESULT:      -7.9      1.256      1.406
REMARK  Name = 
REMARK  4 active torsions:
REMARK  status: ('A' for Active; 'I' for Inactive)
REMARK    1  A    between atoms: C_7  and  C_8
REMARK    2  A    between atoms: C_12  and  C_13
REMARK    3  A    between atoms: C_16  and  O_17
REMARK    4  A    between atoms: O_17  and  C_18
REMARK                            x       y       z     vdW  Elec       q    Type
REMARK                         _______ _______ _______ _____ _____    ______ ____
ROOT
ATOM      1  C   UNL     1       4.384   4.897  19.303  0.00  0.00    +0.000 A 
ATOM      2  C   UNL     1       3.600   3.870  19.810  0.00  0.00    +0.000 A 
ATOM      3  N   UNL     1       2.331   4.036  20.239  0.00  0.00    +0.000 NA
ATOM      4  C   UNL     1       1.821   5.291  20.152  0.00  0.00    +0.000 A 
ATOM      5  C   UNL     1       2.506   6.411  19.669  0.00  0.00    +0.000 A 
ATOM      6  C   UNL     1       3.823   6.175  19.238  0.00  0.00    +0.000 A 
ENDROOT
BRANCH   1  13
ATOM      7  N   UNL     1       6.563   4.783  13.854  0.00  0.00    +0.000 NA
ATOM      8  C   UNL     1       6.597   4.692  15.130  0.00  0.00    +0.000 C 
ATOM      9  N   UNL     1       7.714   4.439  15.841  0.00  0.00    +0.000 N 
ATOM     10  C   UNL     1       7.577   4.392  17.203  0.00  0.00    +0.000 C 
ATOM     11  O   UNL     1       8.493   4.185  17.984  0.00  0.00    +0.000 OA
ATOM     12  C   UNL     1       6.158   4.638  17.581  0.00  0.00    +0.000 C 
ATOM     13  C   UNL     1       5.758   4.658  18.857  0.00  0.00    +0.000 C 
ATOM     14  S   UNL     1       5.212   4.883  16.159  0.00  0.00    +0.000 S 
ATOM     15  H   UNL     1       7.491   4.638  13.458  0.00  0.00    +0.000 HD
ATOM     16  H   UNL     1       8.620   4.298  15.432  0.00  0.00    +0.000 HD
ENDBRANCH   1  13
BRANCH   5  17
ATOM     17  C   UNL     1       1.895   7.757  19.627  0.00  0.00    +0.000 A 
ATOM     18  C   UNL     1       1.891   8.529  18.455  0.00  0.00    +0.000 A 
ATOM     19  C   UNL     1       1.280   9.788  18.414  0.00  0.00    +0.000 A 
ATOM     20  C   UNL     1       0.636  10.305  19.537  0.00  0.00    +0.000 A 
ATOM     21  C   UNL     1       0.675   9.583  20.724  0.00  0.00    +0.000 A 
ATOM     22  C   UNL     1       1.285   8.321  20.762  0.00  0.00    +0.000 A 
BRANCH  20  23
ATOM     23  O   UNL     1       0.078  11.534  19.369  0.00  0.00    +0.000 OA
BRANCH  23  24
ATOM     24  C   UNL     1       0.916  12.682  19.343  0.00  0.00    +0.000 C 
ATOM     25  F   UNL     1       1.416  12.987  18.127  0.00  0.00    +0.000 F 
ATOM     26  F   UNL     1       0.221  13.745  19.802  0.00  0.00    +0.000 F 
ATOM     27  F   UNL     1       1.959  12.472  20.177  0.00  0.00    +0.000 F 
ENDBRANCH  23  24
ENDBRANCH  20  23
ENDBRANCH   5  17
TORSDOF 4
ENDMDL
MODEL 8
REMARK VINA RESULT:      -7.9      2.949      4.120
REMARK  Name = 
REMARK  4 active torsions:
REMARK  status: ('A' for Active; 'I' for Inactive)
REMARK    1  A    between atoms: C_7  and  C_8
REMARK    2  A    between atoms: C_12  and  C_13
REMARK    3  A    between atoms: C_16  and  O_17
REMARK    4  A    between atoms: O_17  and  C_18
REMARK                            x       y       z     vdW  Elec       q    Type
REMARK                         _______ _______ _______ _____ _____    ______ ____
ROOT
ATOM      1  C   UNL     1       2.369   7.150  19.115  0.00  0.00    +0.000 A 
ATOM      2  C   UNL     1       2.643   7.699  17.870  0.00  0.00    +0.000 A 
ATOM      3  N   UNL     1       2.272   8.943  17.501  0.00  0.00    +0.000 NA
ATOM      4  C   UNL     1       1.598   9.675  18.424  0.00  0.00    +0.000 A 
ATOM      5  C   UNL     1       1.254   9.237  19.708  0.00  0.00    +0.000 A 
ATOM      6  C   UNL     1       1.665   7.935  20.034  0.00  0.00    +0.000 A 
ENDROOT
BRANCH   1  13
ATOM      7  N   UNL     1       7.386   4.380  17.848  0.00  0.00    +0.000 NA
ATOM      8  C   UNL     1       6.211   4.507  18.339  0.00  0.00    +0.000 C 
ATOM      9  N   UNL     1       5.571   3.542  19.029  0.00  0.00    +0.000 N 
ATOM     10  C   UNL     1       4.323   3.850  19.500  0.00  0.00    +0.000 C 
ATOM     11  O   UNL     1       3.622   3.090  20.150  0.00  0.00    +0.000 OA
ATOM     12  C   UNL     1       3.959   5.240  19.110  0.00  0.00    +0.000 C 
ATOM     13  C   UNL     1       2.792   5.791  19.459  0.00  0.00    +0.000 C 
ATOM     14  S   UNL     1       5.246   5.943  18.201  0.00  0.00    +0.000 S 
ATOM     15  H   UNL     1       7.763   3.455  18.052  0.00  0.00    +0.000 HD
ATOM     16  H   UNL     1       5.960   2.636  19.219  0.00  0.00    +0.000 HD
ENDBRANCH   1  13
BRANCH   5  17
ATOM     17  C   UNL     1       0.493  10.082  20.655  0.00  0.00    +0.000 A 
ATOM     18  C   UNL     1      -0.029   9.562  21.850  0.00  0.00    +0.000 A 
ATOM     19  C   UNL     1      -0.719  10.375  22.758  0.00  0.00    +0.000 A 
ATOM     20  C   UNL     1      -0.888  11.736  22.510  0.00  0.00    +0.000 A 
ATOM     21  C   UNL     1      -0.428  12.261  21.308  0.00  0.00    +0.000 A 
ATOM     22  C   UNL     1       0.264  11.446  20.401  0.00  0.00    +0.000 A 
BRANCH  20  23
ATOM     23  O   UNL     1      -1.570  12.418  23.469  0.00  0.00    +0.000 OA
BRANCH  23  24
ATOM     24  C   UNL     1      -2.977  12.577  23.344  0.00  0.00    +0.000 C 
ATOM     25  F   UNL     1      -3.479  12.225  22.141  0.00  0.00    +0.000 F 
ATOM     26  F   UNL     1      -3.591  11.844  24.298  0.00  0.00    +0.000 F 
ATOM     27  F   UNL     1      -3.283  13.878  23.553  0.00  0.00    +0.000 F 
ENDBRANCH  23  24
ENDBRANCH  20  23
ENDBRANCH   5  17
TORSDOF 4
ENDMDL
MODEL 9
REMARK VINA RESULT:      -7.8      5.316      8.887
REMARK  Name = 
REMARK  4 active torsions:
REMARK  status: ('A' for Active; 'I' for Inactive)
REMARK    1  A    between atoms: C_7  and  C_8
REMARK    2  A    between atoms: C_12  and  C_13
REMARK    3  A    between atoms: C_16  and  O_17
REMARK    4  A    between atoms: O_17  and  C_18
REMARK                            x       y       z     vdW  Elec       q    Type
REMARK                         _______ _______ _______ _____ _____    ______ ____
ROOT
ATOM      1  C   UNL     1       2.272   7.550  18.988  0.00  0.00    +0.000 A 
ATOM      2  C   UNL     1       2.128   6.738  20.104  0.00  0.00    +0.000 A 
ATOM      3  N   UNL     1       2.698   5.521  20.226  0.00  0.00    +0.000 NA
ATOM      4  C   UNL     1       3.455   5.098  19.181  0.00  0.00    +0.000 A 
ATOM      5  C   UNL     1       3.674   5.815  18.000  0.00  0.00    +0.000 A 
ATOM      6  C   UNL     1       3.053   7.073  17.931  0.00  0.00    +0.000 A 
ENDROOT
BRANCH   1  13
ATOM      7  N   UNL     1      -0.409  10.635  23.201  0.00  0.00    +0.000 NA
ATOM      8  C   UNL     1       0.012  10.391  22.017  0.00  0.00    +0.000 C 
ATOM      9  N   UNL     1      -0.140  11.228  20.971  0.00  0.00    +0.000 N 
ATOM     10  C   UNL     1       0.386  10.818  19.776  0.00  0.00    +0.000 C 
ATOM     11  O   UNL     1       0.340  11.466  18.741  0.00  0.00    +0.000 OA
ATOM     12  C   UNL     1       1.022   9.481  19.931  0.00  0.00    +0.000 C 
ATOM     13  C   UNL     1       1.624   8.860  18.910  0.00  0.00    +0.000 C 
ATOM     14  S   UNL     1       0.852   8.941  21.560  0.00  0.00    +0.000 S 
ATOM     15  H   UNL     1      -0.870  11.543  23.238  0.00  0.00    +0.000 HD
ATOM     16  H   UNL     1      -0.599  12.119  21.028  0.00  0.00    +0.000 HD
ENDBRANCH   1  13
BRANCH   5  17
ATOM     17  C   UNL     1       4.492   5.280  16.889  0.00  0.00    +0.000 A 
ATOM     18  C   UNL     1       5.133   6.128  15.971  0.00  0.00    +0.000 A 
ATOM     19  C   UNL     1       5.932   5.616  14.942  0.00  0.00    +0.000 A 
ATOM     20  C   UNL     1       6.134   4.242  14.813  0.00  0.00    +0.000 A 
ATOM     21  C   UNL     1       5.465   3.382  15.676  0.00  0.00    +0.000 A 
ATOM     22  C   UNL     1       4.666   3.897  16.706  0.00  0.00    +0.000 A 
BRANCH  20  23
ATOM     23  O   UNL     1       6.933   3.871  13.777  0.00  0.00    +0.000 OA
BRANCH  23  24
ATOM     24  C   UNL     1       6.355   3.625  12.502  0.00  0.00    +0.000 C 
ATOM     25  F   UNL     1       5.015   3.783  12.452  0.00  0.00    +0.000 F 
ATOM     26  F   UNL     1       6.920   4.451  11.595  0.00  0.00    +0.000 F 
ATOM     27  F   UNL     1       6.634   2.352  12.142  0.00  0.00    +0.000 F 
ENDBRANCH  23  24
ENDBRANCH  20  23
ENDBRANCH   5  17
TORSDOF 4
ENDMDL
