MODEL 1
REMARK VINA RESULT:      -6.7      0.000      0.000
REMARK  Name = 
REMARK  4 active torsions:
REMARK  status: ('A' for Active; 'I' for Inactive)
REMARK    1  A    between atoms: N_2  and  C_4
REMARK    2  A    between atoms: C_5  and  O_6
REMARK    3  A    between atoms: C_7  and  O_8
REMARK    4  A    between atoms: N_13  and  O_14
REMARK                            x       y       z     vdW  Elec       q    Type
REMARK                         _______ _______ _______ _____ _____    ______ ____
ROOT
ATOM      1  C   UNL     1       4.386   4.393  17.718  0.00  0.00    +0.000 A 
ATOM      2  C   UNL     1       5.327   4.387  16.679  0.00  0.00    +0.000 A 
ATOM      3  C   UNL     1       5.556   5.558  15.971  0.00  0.00    +0.000 A 
ATOM      4  C   UNL     1       4.880   6.727  16.281  0.00  0.00    +0.000 A 
ATOM      5  C   UNL     1       3.942   6.746  17.329  0.00  0.00    +0.000 A 
ATOM      6  C   UNL     1       3.699   5.571  18.083  0.00  0.00    +0.000 A 
ATOM      7  C   UNL     1       2.750   5.661  19.243  0.00  0.00    +0.000 C 
ATOM      8  N   UNL     1       2.332   4.578  19.822  0.00  0.00    +0.000 NA
ATOM      9  C   UNL     1       2.346   7.059  19.692  0.00  0.00    +0.000 C 
ATOM     10  C   UNL     1       2.016   7.898  18.474  0.00  0.00    +0.000 C 
ATOM     11  C   UNL     1       3.259   8.063  17.620  0.00  0.00    +0.000 C 
ENDROOT
BRANCH   1  13
ATOM     12  O   UNL     1       4.907   2.886  19.347  0.00  0.00    +0.000 OA
ATOM     13  N   UNL     1       4.162   3.133  18.386  0.00  0.00    +0.000 N 
ATOM     14  O   UNL     1       3.407   2.320  17.836  0.00  0.00    +0.000 OA
ENDBRANCH   1  13
BRANCH   2  15
ATOM     15  O   UNL     1       6.075   3.303  16.285  0.00  0.00    +0.000 OA
ATOM     16  H   UNL     1       6.590   2.945  17.038  0.00  0.00    +0.000 HD
ENDBRANCH   2  15
BRANCH   3  17
ATOM     17  O   UNL     1       6.467   5.581  14.953  0.00  0.00    +0.000 OA
ATOM     18  H   UNL     1       6.562   4.648  14.672  0.00  0.00    +0.000 HD
ENDBRANCH   3  17
BRANCH   8  19
ATOM     19  O   UNL     1       1.436   4.830  20.861  0.00  0.00    +0.000 OA
ATOM     20  H   UNL     1       1.415   3.975  21.331  0.00  0.00    +0.000 HD
ENDBRANCH   8  19
TORSDOF 4
ENDMDL
MODEL 2
REMARK VINA RESULT:      -6.6      2.361      3.765
REMARK  Name = 
REMARK  4 active torsions:
REMARK  status: ('A' for Active; 'I' for Inactive)
REMARK    1  A    between atoms: N_2  and  C_4
REMARK    2  A    between atoms: C_5  and  O_6
REMARK    3  A    between atoms: C_7  and  O_8
REMARK    4  A    between atoms: N_13  and  O_14
REMARK                            x       y       z     vdW  Elec       q    Type
REMARK                         _______ _______ _______ _____ _____    ______ ____
ROOT
ATOM      1  C   UNL     1       4.531   5.148  18.505  0.00  0.00    +0.000 A 
ATOM      2  C   UNL     1       4.223   6.402  17.961  0.00  0.00    +0.000 A 
ATOM      3  C   UNL     1       2.978   6.959  18.213  0.00  0.00    +0.000 A 
ATOM      4  C   UNL     1       2.045   6.300  18.999  0.00  0.00    +0.000 A 
ATOM      5  C   UNL     1       2.349   5.046  19.559  0.00  0.00    +0.000 A 
ATOM      6  C   UNL     1       3.620   4.460  19.334  0.00  0.00    +0.000 A 
ATOM      7  C   UNL     1       3.926   3.159  20.019  0.00  0.00    +0.000 C 
ATOM      8  N   UNL     1       4.978   2.481  19.677  0.00  0.00    +0.000 NA
ATOM      9  C   UNL     1       2.968   2.718  21.117  0.00  0.00    +0.000 C 
ATOM     10  C   UNL     1       1.542   2.921  20.646  0.00  0.00    +0.000 C 
ATOM     11  C   UNL     1       1.288   4.400  20.419  0.00  0.00    +0.000 C 
ENDROOT
BRANCH   1  13
ATOM     12  O   UNL     1       6.753   4.888  18.942  0.00  0.00    +0.000 OA
ATOM     13  N   UNL     1       5.826   4.604  18.169  0.00  0.00    +0.000 N 
ATOM     14  O   UNL     1       5.957   4.087  17.051  0.00  0.00    +0.000 OA
ENDBRANCH   1  13
BRANCH   2  15
ATOM     15  O   UNL     1       5.063   7.164  17.183  0.00  0.00    +0.000 OA
ATOM     16  H   UNL     1       5.987   7.097  17.503  0.00  0.00    +0.000 HD
ENDBRANCH   2  15
BRANCH   3  17
ATOM     17  O   UNL     1       2.650   8.180  17.695  0.00  0.00    +0.000 OA
ATOM     18  H   UNL     1       3.315   8.800  18.059  0.00  0.00    +0.000 HD
ENDBRANCH   3  17
BRANCH   8  19
ATOM     19  O   UNL     1       5.106   1.286  20.384  0.00  0.00    +0.000 OA
ATOM     20  H   UNL     1       4.743   1.521  21.259  0.00  0.00    +0.000 HD
ENDBRANCH   8  19
TORSDOF 4
ENDMDL
MODEL 3
REMARK VINA RESULT:      -6.3      2.206      3.738
REMARK  Name = 
REMARK  4 active torsions:
REMARK  status: ('A' for Active; 'I' for Inactive)
REMARK    1  A    between atoms: N_2  and  C_4
REMARK    2  A    between atoms: C_5  and  O_6
REMARK    3  A    between atoms: C_7  and  O_8
REMARK    4  A    between atoms: N_13  and  O_14
REMARK                            x       y       z     vdW  Elec       q    Type
REMARK                         _______ _______ _______ _____ _____    ______ ____
ROOT
ATOM      1  C   UNL     1       4.058   4.984  17.654  0.00  0.00    +0.000 A 
ATOM      2  C   UNL     1       4.001   6.375  17.492  0.00  0.00    +0.000 A 
ATOM      3  C   UNL     1       3.024   7.092  18.165  0.00  0.00    +0.000 A 
ATOM      4  C   UNL     1       2.114   6.458  18.997  0.00  0.00    +0.000 A 
ATOM      5  C   UNL     1       2.170   5.064  19.175  0.00  0.00    +0.000 A 
ATOM      6  C   UNL     1       3.169   4.305  18.515  0.00  0.00    +0.000 A 
ATOM      7  C   UNL     1       3.238   2.832  18.800  0.00  0.00    +0.000 C 
ATOM      8  N   UNL     1       3.984   2.067  18.065  0.00  0.00    +0.000 NA
ATOM      9  C   UNL     1       2.423   2.322  19.980  0.00  0.00    +0.000 C 
ATOM     10  C   UNL     1       1.042   2.945  19.939  0.00  0.00    +0.000 C 
ATOM     11  C   UNL     1       1.157   4.448  20.112  0.00  0.00    +0.000 C 
ENDROOT
BRANCH   1  13
ATOM     12  O   UNL     1       6.197   4.237  17.407  0.00  0.00    +0.000 OA
ATOM     13  N   UNL     1       5.070   4.291  16.892  0.00  0.00    +0.000 N 
ATOM     14  O   UNL     1       4.802   3.995  15.720  0.00  0.00    +0.000 OA
ENDBRANCH   1  13
BRANCH   2  15
ATOM     15  O   UNL     1       4.852   7.124  16.713  0.00  0.00    +0.000 OA
ATOM     16  H   UNL     1       5.082   7.965  17.161  0.00  0.00    +0.000 HD
ENDBRANCH   2  15
BRANCH   3  17
ATOM     17  O   UNL     1       2.945   8.449  18.025  0.00  0.00    +0.000 OA
ATOM     18  H   UNL     1       3.491   8.814  18.751  0.00  0.00    +0.000 HD
ENDBRANCH   3  17
BRANCH   8  19
ATOM     19  O   UNL     1       3.917   0.725  18.439  0.00  0.00    +0.000 OA
ATOM     20  H   UNL     1       4.393   0.281  17.711  0.00  0.00    +0.000 HD
ENDBRANCH   8  19
TORSDOF 4
ENDMDL
MODEL 4
REMARK VINA RESULT:      -6.1      1.333      1.672
REMARK  Name = 
REMARK  4 active torsions:
REMARK  status: ('A' for Active; 'I' for Inactive)
REMARK    1  A    between atoms: N_2  and  C_4
REMARK    2  A    between atoms: C_5  and  O_6
REMARK    3  A    between atoms: C_7  and  O_8
REMARK    4  A    between atoms: N_13  and  O_14
REMARK                            x       y       z     vdW  Elec       q    Type
REMARK                         _______ _______ _______ _____ _____    ______ ____
ROOT
ATOM      1  C   UNL     1       4.040   3.614  18.485  0.00  0.00    +0.000 A 
ATOM      2  C   UNL     1       4.752   3.987  17.337  0.00  0.00    +0.000 A 
ATOM      3  C   UNL     1       4.684   5.302  16.899  0.00  0.00    +0.000 A 
ATOM      4  C   UNL     1       3.933   6.246  17.582  0.00  0.00    +0.000 A 
ATOM      5  C   UNL     1       3.223   5.883  18.741  0.00  0.00    +0.000 A 
ATOM      6  C   UNL     1       3.289   4.552  19.224  0.00  0.00    +0.000 A 
ATOM      7  C   UNL     1       2.580   4.233  20.509  0.00  0.00    +0.000 C 
ATOM      8  N   UNL     1       2.428   2.998  20.873  0.00  0.00    +0.000 NA
ATOM      9  C   UNL     1       2.091   5.415  21.335  0.00  0.00    +0.000 C 
ATOM     10  C   UNL     1       1.423   6.422  20.420  0.00  0.00    +0.000 C 
ATOM     11  C   UNL     1       2.444   6.973  19.441  0.00  0.00    +0.000 C 
ENDROOT
BRANCH   1  13
ATOM     12  O   UNL     1       4.999   1.929  19.683  0.00  0.00    +0.000 OA
ATOM     13  N   UNL     1       4.117   2.222  18.862  0.00  0.00    +0.000 N 
ATOM     14  O   UNL     1       3.458   1.411  18.198  0.00  0.00    +0.000 OA
ENDBRANCH   1  13
BRANCH   2  15
ATOM     15  O   UNL     1       5.545   3.155  16.582  0.00  0.00    +0.000 OA
ATOM     16  H   UNL     1       6.493   3.299  16.787  0.00  0.00    +0.000 HD
ENDBRANCH   2  15
BRANCH   3  17
ATOM     17  O   UNL     1       5.368   5.694  15.783  0.00  0.00    +0.000 OA
ATOM     18  H   UNL     1       6.009   4.975  15.609  0.00  0.00    +0.000 HD
ENDBRANCH   3  17
BRANCH   8  19
ATOM     19  O   UNL     1       1.727   2.869  22.072  0.00  0.00    +0.000 OA
ATOM     20  H   UNL     1       1.336   1.978  21.990  0.00  0.00    +0.000 HD
ENDBRANCH   8  19
TORSDOF 4
ENDMDL
MODEL 5
REMARK VINA RESULT:      -6.1      2.094      4.085
REMARK  Name = 
REMARK  4 active torsions:
REMARK  status: ('A' for Active; 'I' for Inactive)
REMARK    1  A    between atoms: N_2  and  C_4
REMARK    2  A    between atoms: C_5  and  O_6
REMARK    3  A    between atoms: C_7  and  O_8
REMARK    4  A    between atoms: N_13  and  O_14
REMARK                            x       y       z     vdW  Elec       q    Type
REMARK                         _______ _______ _______ _____ _____    ______ ____
ROOT
ATOM      1  C   UNL     1       4.208   4.113  19.134  0.00  0.00    +0.000 A 
ATOM      2  C   UNL     1       4.059   3.044  20.030  0.00  0.00    +0.000 A 
ATOM      3  C   UNL     1       3.118   3.142  21.044  0.00  0.00    +0.000 A 
ATOM      4  C   UNL     1       2.323   4.270  21.177  0.00  0.00    +0.000 A 
ATOM      5  C   UNL     1       2.458   5.343  20.278  0.00  0.00    +0.000 A 
ATOM      6  C   UNL     1       3.398   5.265  19.219  0.00  0.00    +0.000 A 
ATOM      7  C   UNL     1       3.449   6.400  18.238  0.00  0.00    +0.000 C 
ATOM      8  N   UNL     1       4.428   6.477  17.390  0.00  0.00    +0.000 NA
ATOM      9  C   UNL     1       2.304   7.402  18.287  0.00  0.00    +0.000 C 
ATOM     10  C   UNL     1       2.017   7.762  19.731  0.00  0.00    +0.000 C 
ATOM     11  C   UNL     1       1.543   6.529  20.477  0.00  0.00    +0.000 C 
ENDROOT
BRANCH   1  13
ATOM     12  O   UNL     1       4.892   3.403  17.079  0.00  0.00    +0.000 OA
ATOM     13  N   UNL     1       5.235   3.967  18.129  0.00  0.00    +0.000 N 
ATOM     14  O   UNL     1       6.401   4.216  18.462  0.00  0.00    +0.000 OA
ENDBRANCH   1  13
BRANCH   2  15
ATOM     15  O   UNL     1       4.769   1.867  19.995  0.00  0.00    +0.000 OA
ATOM     16  H   UNL     1       4.507   1.327  19.220  0.00  0.00    +0.000 HD
ENDBRANCH   2  15
BRANCH   3  17
ATOM     17  O   UNL     1       2.950   2.116  21.931  0.00  0.00    +0.000 OA
ATOM     18  H   UNL     1       2.043   1.784  21.771  0.00  0.00    +0.000 HD
ENDBRANCH   3  17
BRANCH   8  19
ATOM     19  O   UNL     1       4.345   7.601  16.568  0.00  0.00    +0.000 OA
ATOM     20  H   UNL     1       4.315   7.206  15.676  0.00  0.00    +0.000 HD
ENDBRANCH   8  19
TORSDOF 4
ENDMDL
MODEL 6
REMARK VINA RESULT:      -6.1      1.255      4.218
REMARK  Name = 
REMARK  4 active torsions:
REMARK  status: ('A' for Active; 'I' for Inactive)
REMARK    1  A    between atoms: N_2  and  C_4
REMARK    2  A    between atoms: C_5  and  O_6
REMARK    3  A    between atoms: C_7  and  O_8
REMARK    4  A    between atoms: N_13  and  O_14
REMARK                            x       y       z     vdW  Elec       q    Type
REMARK                         _______ _______ _______ _____ _____    ______ ____
ROOT
ATOM      1  C   UNL     1       3.566   3.981  19.049  0.00  0.00    +0.000 A 
ATOM      2  C   UNL     1       2.724   4.415  20.082  0.00  0.00    +0.000 A 
ATOM      3  C   UNL     1       2.372   5.755  20.147  0.00  0.00    +0.000 A 
ATOM      4  C   UNL     1       2.832   6.663  19.206  0.00  0.00    +0.000 A 
ATOM      5  C   UNL     1       3.668   6.235  18.159  0.00  0.00    +0.000 A 
ATOM      6  C   UNL     1       4.030   4.869  18.055  0.00  0.00    +0.000 A 
ATOM      7  C   UNL     1       4.858   4.447  16.876  0.00  0.00    +0.000 C 
ATOM      8  N   UNL     1       5.392   3.265  16.851  0.00  0.00    +0.000 NA
ATOM      9  C   UNL     1       5.003   5.454  15.743  0.00  0.00    +0.000 C 
ATOM     10  C   UNL     1       5.294   6.823  16.326  0.00  0.00    +0.000 C 
ATOM     11  C   UNL     1       4.113   7.280  17.161  0.00  0.00    +0.000 C 
ENDROOT
BRANCH   1  13
ATOM     12  O   UNL     1       3.150   1.813  18.484  0.00  0.00    +0.000 OA
ATOM     13  N   UNL     1       3.929   2.584  19.063  0.00  0.00    +0.000 N 
ATOM     14  O   UNL     1       4.853   2.240  19.813  0.00  0.00    +0.000 OA
ENDBRANCH   1  13
BRANCH   2  15
ATOM     15  O   UNL     1       2.187   3.616  21.064  0.00  0.00    +0.000 OA
ATOM     16  H   UNL     1       2.072   4.120  21.897  0.00  0.00    +0.000 HD
ENDBRANCH   2  15
BRANCH   3  17
ATOM     17  O   UNL     1       1.553   6.206  21.143  0.00  0.00    +0.000 OA
ATOM     18  H   UNL     1       1.951   5.875  21.974  0.00  0.00    +0.000 HD
ENDBRANCH   3  17
BRANCH   8  19
ATOM     19  O   UNL     1       6.152   3.038  15.704  0.00  0.00    +0.000 OA
ATOM     20  H   UNL     1       5.553   3.338  14.994  0.00  0.00    +0.000 HD
ENDBRANCH   8  19
TORSDOF 4
ENDMDL
MODEL 7
REMARK VINA RESULT:      -6.0      2.078      4.378
REMARK  Name = 
REMARK  4 active torsions:
REMARK  status: ('A' for Active; 'I' for Inactive)
REMARK    1  A    between atoms: N_2  and  C_4
REMARK    2  A    between atoms: C_5  and  O_6
REMARK    3  A    between atoms: C_7  and  O_8
REMARK    4  A    between atoms: N_13  and  O_14
REMARK                            x       y       z     vdW  Elec       q    Type
REMARK                         _______ _______ _______ _____ _____    ______ ____
ROOT
ATOM      1  C   UNL     1       2.379   4.978  19.763  0.00  0.00    +0.000 A 
ATOM      2  C   UNL     1       1.905   6.267  20.048  0.00  0.00    +0.000 A 
ATOM      3  C   UNL     1       2.331   7.329  19.266  0.00  0.00    +0.000 A 
ATOM      4  C   UNL     1       3.206   7.135  18.207  0.00  0.00    +0.000 A 
ATOM      5  C   UNL     1       3.678   5.844  17.907  0.00  0.00    +0.000 A 
ATOM      6  C   UNL     1       3.246   4.735  18.677  0.00  0.00    +0.000 A 
ATOM      7  C   UNL     1       3.714   3.368  18.267  0.00  0.00    +0.000 C 
ATOM      8  N   UNL     1       3.527   2.358  19.059  0.00  0.00    +0.000 NA
ATOM      9  C   UNL     1       4.376   3.250  16.901  0.00  0.00    +0.000 C 
ATOM     10  C   UNL     1       5.359   4.389  16.723  0.00  0.00    +0.000 C 
ATOM     11  C   UNL     1       4.612   5.710  16.727  0.00  0.00    +0.000 C 
ENDROOT
BRANCH   1  13
ATOM     12  O   UNL     1       0.853   3.388  20.345  0.00  0.00    +0.000 OA
ATOM     13  N   UNL     1       1.932   3.923  20.642  0.00  0.00    +0.000 N 
ATOM     14  O   UNL     1       2.533   3.778  21.715  0.00  0.00    +0.000 OA
ENDBRANCH   1  13
BRANCH   2  15
ATOM     15  O   UNL     1       1.025   6.590  21.054  0.00  0.00    +0.000 OA
ATOM     16  H   UNL     1       1.497   6.702  21.905  0.00  0.00    +0.000 HD
ENDBRANCH   2  15
BRANCH   3  17
ATOM     17  O   UNL     1       1.886   8.596  19.520  0.00  0.00    +0.000 OA
ATOM     18  H   UNL     1       1.059   8.479  20.031  0.00  0.00    +0.000 HD
ENDBRANCH   3  17
BRANCH   8  19
ATOM     19  O   UNL     1       4.042   1.167  18.547  0.00  0.00    +0.000 OA
ATOM     20  H   UNL     1       3.785   1.215  17.607  0.00  0.00    +0.000 HD
ENDBRANCH   8  19
TORSDOF 4
ENDMDL
MODEL 8
REMARK VINA RESULT:      -5.8      1.391      1.869
REMARK  Name = 
REMARK  4 active torsions:
REMARK  status: ('A' for Active; 'I' for Inactive)
REMARK    1  A    between atoms: N_2  and  C_4
REMARK    2  A    between atoms: C_5  and  O_6
REMARK    3  A    between atoms: C_7  and  O_8
REMARK    4  A    between atoms: N_13  and  O_14
REMARK                            x       y       z     vdW  Elec       q    Type
REMARK                         _______ _______ _______ _____ _____    ______ ____
ROOT
ATOM      1  C   UNL     1       3.241   3.819  18.792  0.00  0.00    +0.000 A 
ATOM      2  C   UNL     1       4.077   3.065  17.956  0.00  0.00    +0.000 A 
ATOM      3  C   UNL     1       4.775   3.707  16.945  0.00  0.00    +0.000 A 
ATOM      4  C   UNL     1       4.665   5.076  16.755  0.00  0.00    +0.000 A 
ATOM      5  C   UNL     1       3.838   5.843  17.595  0.00  0.00    +0.000 A 
ATOM      6  C   UNL     1       3.126   5.218  18.650  0.00  0.00    +0.000 A 
ATOM      7  C   UNL     1       2.320   6.091  19.568  0.00  0.00    +0.000 C 
ATOM      8  N   UNL     1       1.486   5.552  20.404  0.00  0.00    +0.000 NA
ATOM      9  C   UNL     1       2.555   7.592  19.472  0.00  0.00    +0.000 C 
ATOM     10  C   UNL     1       2.601   7.997  18.013  0.00  0.00    +0.000 C 
ATOM     11  C   UNL     1       3.785   7.331  17.338  0.00  0.00    +0.000 C 
ENDROOT
BRANCH   1  13
ATOM     12  O   UNL     1       3.119   2.848  20.850  0.00  0.00    +0.000 OA
ATOM     13  N   UNL     1       2.509   3.085  19.797  0.00  0.00    +0.000 N 
ATOM     14  O   UNL     1       1.431   2.575  19.462  0.00  0.00    +0.000 OA
ENDBRANCH   1  13
BRANCH   2  15
ATOM     15  O   UNL     1       4.287   1.709  18.050  0.00  0.00    +0.000 OA
ATOM     16  H   UNL     1       3.819   1.235  17.331  0.00  0.00    +0.000 HD
ENDBRANCH   2  15
BRANCH   3  17
ATOM     17  O   UNL     1       5.597   2.997  16.115  0.00  0.00    +0.000 OA
ATOM     18  H   UNL     1       5.443   2.057  16.344  0.00  0.00    +0.000 HD
ENDBRANCH   3  17
BRANCH   8  19
ATOM     19  O   UNL     1       0.796   6.496  21.164  0.00  0.00    +0.000 OA
ATOM     20  H   UNL     1       0.226   5.936  21.725  0.00  0.00    +0.000 HD
ENDBRANCH   8  19
TORSDOF 4
ENDMDL
MODEL 9
REMARK VINA RESULT:      -5.7      1.583      4.288
REMARK  Name = 
REMARK  4 active torsions:
REMARK  status: ('A' for Active; 'I' for Inactive)
REMARK    1  A    between atoms: N_2  and  C_4
REMARK    2  A    between atoms: C_5  and  O_6
REMARK    3  A    between atoms: C_7  and  O_8
REMARK    4  A    between atoms: N_13  and  O_14
REMARK                            x       y       z     vdW  Elec       q    Type
REMARK                         _______ _______ _______ _____ _____    ______ ____
ROOT
ATOM      1  C   UNL     1       3.537   3.388  19.297  0.00  0.00    +0.000 A 
ATOM      2  C   UNL     1       2.296   3.280  19.939  0.00  0.00    +0.000 A 
ATOM      3  C   UNL     1       1.425   4.358  19.907  0.00  0.00    +0.000 A 
ATOM      4  C   UNL     1       1.760   5.530  19.246  0.00  0.00    +0.000 A 
ATOM      5  C   UNL     1       2.998   5.644  18.590  0.00  0.00    +0.000 A 
ATOM      6  C   UNL     1       3.902   4.553  18.589  0.00  0.00    +0.000 A 
ATOM      7  C   UNL     1       5.177   4.694  17.807  0.00  0.00    +0.000 C 
ATOM      8  N   UNL     1       6.123   3.819  17.952  0.00  0.00    +0.000 NA
ATOM      9  C   UNL     1       5.269   5.876  16.852  0.00  0.00    +0.000 C 
ATOM     10  C   UNL     1       4.753   7.121  17.547  0.00  0.00    +0.000 C 
ATOM     11  C   UNL     1       3.282   6.946  17.876  0.00  0.00    +0.000 C 
ENDROOT
BRANCH   1  13
ATOM     12  O   UNL     1       4.198   1.316  18.613  0.00  0.00    +0.000 OA
ATOM     13  N   UNL     1       4.416   2.246  19.404  0.00  0.00    +0.000 N 
ATOM     14  O   UNL     1       5.163   2.190  20.390  0.00  0.00    +0.000 OA
ENDBRANCH   1  13
BRANCH   2  15
ATOM     15  O   UNL     1       1.838   2.170  20.610  0.00  0.00    +0.000 OA
ATOM     16  H   UNL     1       1.105   2.410  21.216  0.00  0.00    +0.000 HD
ENDBRANCH   2  15
BRANCH   3  17
ATOM     17  O   UNL     1       0.208   4.281  20.524  0.00  0.00    +0.000 OA
ATOM     18  H   UNL     1      -0.164   3.418  20.250  0.00  0.00    +0.000 HD
ENDBRANCH   3  17
BRANCH   8  19
ATOM     19  O   UNL     1       7.249   4.107  17.180  0.00  0.00    +0.000 OA
ATOM     20  H   UNL     1       7.364   3.286  16.665  0.00  0.00    +0.000 HD
ENDBRANCH   8  19
TORSDOF 4
ENDMDL
