MODEL 1
REMARK VINA RESULT:      -7.8      0.000      0.000
REMARK  Name = 
REMARK  13 active torsions:
REMARK  status: ('A' for Active; 'I' for Inactive)
REMARK    1  A    between atoms: C_1  and  O_2
REMARK    2  A    between atoms: O_2  and  C_3
REMARK    3  A    between atoms: C_6  and  C_7
REMARK    4  A    between atoms: N_9  and  C_10
REMARK    5  A    between atoms: C_10  and  C_11
REMARK    6  A    between atoms: C_11  and  C_12
REMARK    7  A    between atoms: C_15  and  O_16
REMARK    8  A    between atoms: O_16  and  C_17
REMARK    9  A    between atoms: C_18  and  O_19
REMARK   10  A    between atoms: O_19  and  C_20
REMARK   11  A    between atoms: C_23  and  C_24
REMARK   12  A    between atoms: C_24  and  N_25
REMARK   13  A    between atoms: C_26  and  C_28
REMARK                            x       y       z     vdW  Elec       q    Type
REMARK                         _______ _______ _______ _____ _____    ______ ____
ROOT
ATOM      1  C   UNL     1       0.623  10.331  19.982  0.00  0.00    +0.000 C 
ATOM      2  C   UNL     1       1.104  11.537  20.816  0.00  0.00    +0.000 C 
ATOM      3  N   UNL     1       0.255  11.577  22.027  0.00  0.00    +0.000 NA
ATOM      4  C   UNL     1      -0.129  10.176  22.284  0.00  0.00    +0.000 C 
ATOM      5  C   UNL     1       0.348   9.310  21.107  0.00  0.00    +0.000 C 
ENDROOT
BRANCH   1   9
ATOM      6  C   UNL     1      -2.638  11.192  17.219  0.00  0.00    +0.000 A 
ATOM      7  C   UNL     1      -2.596   9.997  17.934  0.00  0.00    +0.000 A 
ATOM      8  C   UNL     1      -1.579   9.756  18.864  0.00  0.00    +0.000 A 
ATOM      9  C   UNL     1      -0.556  10.698  19.077  0.00  0.00    +0.000 A 
ATOM     10  C   UNL     1      -0.639  11.911  18.377  0.00  0.00    +0.000 A 
ATOM     11  C   UNL     1      -1.659  12.152  17.451  0.00  0.00    +0.000 A 
BRANCH   6  13
ATOM     12  C   UNL     1      -3.433  10.620  15.069  0.00  0.00    +0.000 C 
ATOM     13  O   UNL     1      -3.644  11.302  16.300  0.00  0.00    +0.000 OA
ENDBRANCH   6  13
ENDBRANCH   1   9
BRANCH   3  14
ATOM     14  C   UNL     1      -0.919  12.453  21.832  0.00  0.00    +0.000 C 
BRANCH  14  15
ATOM     15  C   UNL     1      -2.136  12.051  22.682  0.00  0.00    +0.000 C 
BRANCH  15  16
ATOM     16  C   UNL     1      -3.433  12.484  22.032  0.00  0.00    +0.000 A 
ATOM     17  C   UNL     1      -3.555  12.560  20.647  0.00  0.00    +0.000 A 
ATOM     18  C   UNL     1      -4.755  12.990  20.079  0.00  0.00    +0.000 A 
ATOM     19  C   UNL     1      -5.843  13.368  20.883  0.00  0.00    +0.000 A 
ATOM     20  C   UNL     1      -5.719  13.317  22.281  0.00  0.00    +0.000 A 
ATOM     21  C   UNL     1      -4.510  12.866  22.839  0.00  0.00    +0.000 A 
BRANCH  19  22
ATOM     22  O   UNL     1      -6.925  13.754  20.128  0.00  0.00    +0.000 OA
ATOM     23  C   UNL     1      -7.224  13.032  18.946  0.00  0.00    +0.000 C 
ENDBRANCH  19  22
BRANCH  20  24
ATOM     24  O   UNL     1      -6.776  13.716  23.053  0.00  0.00    +0.000 OA
ATOM     25  C   UNL     1      -7.690  12.722  23.500  0.00  0.00    +0.000 C 
ENDBRANCH  20  24
ENDBRANCH  15  16
ENDBRANCH  14  15
ENDBRANCH   3  14
BRANCH   5  26
ATOM     26  C   UNL     1       1.600   8.496  21.464  0.00  0.00    +0.000 C 
BRANCH  26  27
ATOM     27  N   UNL     1       1.427   7.089  21.153  0.00  0.00    +0.000 N 
ATOM     28  C   UNL     1       2.127   6.454  20.154  0.00  0.00    +0.000 C 
ATOM     29  O   UNL     1       2.986   7.018  19.483  0.00  0.00    +0.000 OA
ATOM     30  H   UNL     1       0.671   6.593  21.615  0.00  0.00    +0.000 HD
BRANCH  28  31
ATOM     31  C   UNL     1       1.794   5.025  19.892  0.00  0.00    +0.000 A 
ATOM     32  C   UNL     1       1.677   4.156  20.987  0.00  0.00    +0.000 A 
ATOM     33  C   UNL     1       1.376   2.805  20.792  0.00  0.00    +0.000 A 
ATOM     34  C   UNL     1       1.190   2.309  19.502  0.00  0.00    +0.000 A 
ATOM     35  C   UNL     1       1.298   3.165  18.408  0.00  0.00    +0.000 A 
ATOM     36  C   UNL     1       1.597   4.512  18.607  0.00  0.00    +0.000 A 
ATOM     37  F   UNL     1       1.696   5.296  17.522  0.00  0.00    +0.000 F 
ENDBRANCH  28  31
ENDBRANCH  26  27
ENDBRANCH   5  26
TORSDOF 10
ENDMDL
MODEL 2
REMARK VINA RESULT:      -7.7      0.749      1.702
REMARK  Name = 
REMARK  13 active torsions:
REMARK  status: ('A' for Active; 'I' for Inactive)
REMARK    1  A    between atoms: C_1  and  O_2
REMARK    2  A    between atoms: O_2  and  C_3
REMARK    3  A    between atoms: C_6  and  C_7
REMARK    4  A    between atoms: N_9  and  C_10
REMARK    5  A    between atoms: C_10  and  C_11
REMARK    6  A    between atoms: C_11  and  C_12
REMARK    7  A    between atoms: C_15  and  O_16
REMARK    8  A    between atoms: O_16  and  C_17
REMARK    9  A    between atoms: C_18  and  O_19
REMARK   10  A    between atoms: O_19  and  C_20
REMARK   11  A    between atoms: C_23  and  C_24
REMARK   12  A    between atoms: C_24  and  N_25
REMARK   13  A    between atoms: C_26  and  C_28
REMARK                            x       y       z     vdW  Elec       q    Type
REMARK                         _______ _______ _______ _____ _____    ______ ____
ROOT
ATOM      1  C   UNL     1       0.588  10.227  19.866  0.00  0.00    +0.000 C 
ATOM      2  C   UNL     1       0.990  11.385  20.804  0.00  0.00    +0.000 C 
ATOM      3  N   UNL     1       0.126  11.277  22.000  0.00  0.00    +0.000 NA
ATOM      4  C   UNL     1      -0.181   9.841  22.135  0.00  0.00    +0.000 C 
ATOM      5  C   UNL     1       0.358   9.103  20.899  0.00  0.00    +0.000 C 
ENDROOT
BRANCH   1   9
ATOM      6  C   UNL     1      -2.665  11.163  17.119  0.00  0.00    +0.000 A 
ATOM      7  C   UNL     1      -2.483   9.870  17.605  0.00  0.00    +0.000 A 
ATOM      8  C   UNL     1      -1.474   9.593  18.534  0.00  0.00    +0.000 A 
ATOM      9  C   UNL     1      -0.600  10.602  18.975  0.00  0.00    +0.000 A 
ATOM     10  C   UNL     1      -0.826  11.904  18.504  0.00  0.00    +0.000 A 
ATOM     11  C   UNL     1      -1.837  12.180  17.579  0.00  0.00    +0.000 A 
BRANCH   6  13
ATOM     12  C   UNL     1      -3.582  10.416  15.074  0.00  0.00    +0.000 C 
ATOM     13  O   UNL     1      -3.646  11.311  16.177  0.00  0.00    +0.000 OA
ENDBRANCH   6  13
ENDBRANCH   1   9
BRANCH   3  14
ATOM     14  C   UNL     1      -1.093  12.100  21.859  0.00  0.00    +0.000 C 
BRANCH  14  15
ATOM     15  C   UNL     1      -1.637  12.631  23.196  0.00  0.00    +0.000 C 
BRANCH  15  16
ATOM     16  C   UNL     1      -3.149  12.714  23.184  0.00  0.00    +0.000 A 
ATOM     17  C   UNL     1      -3.885  12.632  24.364  0.00  0.00    +0.000 A 
ATOM     18  C   UNL     1      -5.278  12.684  24.316  0.00  0.00    +0.000 A 
ATOM     19  C   UNL     1      -5.958  12.800  23.093  0.00  0.00    +0.000 A 
ATOM     20  C   UNL     1      -5.223  12.860  21.897  0.00  0.00    +0.000 A 
ATOM     21  C   UNL     1      -3.819  12.822  21.961  0.00  0.00    +0.000 A 
BRANCH  19  22
ATOM     22  O   UNL     1      -7.321  12.838  23.267  0.00  0.00    +0.000 OA
ATOM     23  C   UNL     1      -7.913  14.031  23.752  0.00  0.00    +0.000 C 
ENDBRANCH  19  22
BRANCH  20  24
ATOM     24  O   UNL     1      -5.899  12.943  20.709  0.00  0.00    +0.000 OA
ATOM     25  C   UNL     1      -5.782  14.144  19.957  0.00  0.00    +0.000 C 
ENDBRANCH  20  24
ENDBRANCH  15  16
ENDBRANCH  14  15
ENDBRANCH   3  14
BRANCH   5  26
ATOM     26  C   UNL     1       1.649   8.333  21.208  0.00  0.00    +0.000 C 
BRANCH  26  27
ATOM     27  N   UNL     1       1.495   6.912  20.962  0.00  0.00    +0.000 N 
ATOM     28  C   UNL     1       2.265   6.223  20.054  0.00  0.00    +0.000 C 
ATOM     29  O   UNL     1       3.175   6.749  19.422  0.00  0.00    +0.000 OA
ATOM     30  H   UNL     1       0.704   6.442  21.391  0.00  0.00    +0.000 HD
BRANCH  28  31
ATOM     31  C   UNL     1       1.946   4.782  19.846  0.00  0.00    +0.000 A 
ATOM     32  C   UNL     1       1.988   3.923  20.954  0.00  0.00    +0.000 A 
ATOM     33  C   UNL     1       1.707   2.561  20.807  0.00  0.00    +0.000 A 
ATOM     34  C   UNL     1       1.381   2.045  19.553  0.00  0.00    +0.000 A 
ATOM     35  C   UNL     1       1.331   2.892  18.447  0.00  0.00    +0.000 A 
ATOM     36  C   UNL     1       1.612   4.249  18.598  0.00  0.00    +0.000 A 
ATOM     37  F   UNL     1       1.556   5.024  17.503  0.00  0.00    +0.000 F 
ENDBRANCH  28  31
ENDBRANCH  26  27
ENDBRANCH   5  26
TORSDOF 10
ENDMDL
MODEL 3
REMARK VINA RESULT:      -7.5      5.171      8.613
REMARK  Name = 
REMARK  13 active torsions:
REMARK  status: ('A' for Active; 'I' for Inactive)
REMARK    1  A    between atoms: C_1  and  O_2
REMARK    2  A    between atoms: O_2  and  C_3
REMARK    3  A    between atoms: C_6  and  C_7
REMARK    4  A    between atoms: N_9  and  C_10
REMARK    5  A    between atoms: C_10  and  C_11
REMARK    6  A    between atoms: C_11  and  C_12
REMARK    7  A    between atoms: C_15  and  O_16
REMARK    8  A    between atoms: O_16  and  C_17
REMARK    9  A    between atoms: C_18  and  O_19
REMARK   10  A    between atoms: O_19  and  C_20
REMARK   11  A    between atoms: C_23  and  C_24
REMARK   12  A    between atoms: C_24  and  N_25
REMARK   13  A    between atoms: C_26  and  C_28
REMARK                            x       y       z     vdW  Elec       q    Type
REMARK                         _______ _______ _______ _____ _____    ______ ____
ROOT
ATOM      1  C   UNL     1       5.059   4.921  16.546  0.00  0.00    +0.000 C 
ATOM      2  C   UNL     1       4.546   6.296  16.067  0.00  0.00    +0.000 C 
ATOM      3  N   UNL     1       5.038   7.292  17.044  0.00  0.00    +0.000 NA
ATOM      4  C   UNL     1       6.300   6.738  17.569  0.00  0.00    +0.000 C 
ATOM      5  C   UNL     1       6.472   5.308  17.032  0.00  0.00    +0.000 C 
ENDROOT
BRANCH   1   9
ATOM      6  C   UNL     1       2.473   2.877  19.399  0.00  0.00    +0.000 A 
ATOM      7  C   UNL     1       3.853   2.928  19.586  0.00  0.00    +0.000 A 
ATOM      8  C   UNL     1       4.668   3.639  18.698  0.00  0.00    +0.000 A 
ATOM      9  C   UNL     1       4.120   4.291  17.578  0.00  0.00    +0.000 A 
ATOM     10  C   UNL     1       2.726   4.261  17.431  0.00  0.00    +0.000 A 
ATOM     11  C   UNL     1       1.912   3.554  18.322  0.00  0.00    +0.000 A 
BRANCH   6  13
ATOM     12  C   UNL     1       1.362   2.780  21.482  0.00  0.00    +0.000 C 
ATOM     13  O   UNL     1       1.779   2.113  20.296  0.00  0.00    +0.000 OA
ENDBRANCH   6  13
ENDBRANCH   1   9
BRANCH   3  14
ATOM     14  C   UNL     1       4.044   7.534  18.111  0.00  0.00    +0.000 C 
BRANCH  14  15
ATOM     15  C   UNL     1       2.665   7.964  17.584  0.00  0.00    +0.000 C 
BRANCH  15  16
ATOM     16  C   UNL     1       1.824   8.587  18.678  0.00  0.00    +0.000 A 
ATOM     17  C   UNL     1       1.840   8.082  19.976  0.00  0.00    +0.000 A 
ATOM     18  C   UNL     1       1.033   8.661  20.955  0.00  0.00    +0.000 A 
ATOM     19  C   UNL     1       0.183   9.738  20.651  0.00  0.00    +0.000 A 
ATOM     20  C   UNL     1       0.144  10.236  19.338  0.00  0.00    +0.000 A 
ATOM     21  C   UNL     1       0.975   9.654  18.366  0.00  0.00    +0.000 A 
BRANCH  19  22
ATOM     22  O   UNL     1      -0.521  10.160  21.754  0.00  0.00    +0.000 OA
ATOM     23  C   UNL     1      -0.327   9.486  22.985  0.00  0.00    +0.000 C 
ENDBRANCH  19  22
BRANCH  20  24
ATOM     24  O   UNL     1      -0.710  11.267  19.048  0.00  0.00    +0.000 OA
ATOM     25  C   UNL     1      -0.251  12.595  19.262  0.00  0.00    +0.000 C 
ENDBRANCH  20  24
ENDBRANCH  15  16
ENDBRANCH  14  15
ENDBRANCH   3  14
BRANCH   5  26
ATOM     26  C   UNL     1       7.508   5.241  15.901  0.00  0.00    +0.000 C 
BRANCH  26  27
ATOM     27  N   UNL     1       7.109   4.306  14.867  0.00  0.00    +0.000 N 
ATOM     28  C   UNL     1       7.254   4.569  13.525  0.00  0.00    +0.000 C 
ATOM     29  O   UNL     1       7.778   5.595  13.103  0.00  0.00    +0.000 OA
ATOM     30  H   UNL     1       6.592   3.479  15.153  0.00  0.00    +0.000 HD
BRANCH  28  31
ATOM     31  C   UNL     1       6.730   3.550  12.572  0.00  0.00    +0.000 A 
ATOM     32  C   UNL     1       7.651   2.780  11.846  0.00  0.00    +0.000 A 
ATOM     33  C   UNL     1       7.208   1.820  10.932  0.00  0.00    +0.000 A 
ATOM     34  C   UNL     1       5.842   1.619  10.733  0.00  0.00    +0.000 A 
ATOM     35  C   UNL     1       4.919   2.375  11.454  0.00  0.00    +0.000 A 
ATOM     36  C   UNL     1       5.365   3.331  12.365  0.00  0.00    +0.000 A 
ATOM     37  F   UNL     1       4.439   4.038  13.031  0.00  0.00    +0.000 F 
ENDBRANCH  28  31
ENDBRANCH  26  27
ENDBRANCH   5  26
TORSDOF 10
ENDMDL
MODEL 4
REMARK VINA RESULT:      -7.5      5.128      8.579
REMARK  Name = 
REMARK  13 active torsions:
REMARK  status: ('A' for Active; 'I' for Inactive)
REMARK    1  A    between atoms: C_1  and  O_2
REMARK    2  A    between atoms: O_2  and  C_3
REMARK    3  A    between atoms: C_6  and  C_7
REMARK    4  A    between atoms: N_9  and  C_10
REMARK    5  A    between atoms: C_10  and  C_11
REMARK    6  A    between atoms: C_11  and  C_12
REMARK    7  A    between atoms: C_15  and  O_16
REMARK    8  A    between atoms: O_16  and  C_17
REMARK    9  A    between atoms: C_18  and  O_19
REMARK   10  A    between atoms: O_19  and  C_20
REMARK   11  A    between atoms: C_23  and  C_24
REMARK   12  A    between atoms: C_24  and  N_25
REMARK   13  A    between atoms: C_26  and  C_28
REMARK                            x       y       z     vdW  Elec       q    Type
REMARK                         _______ _______ _______ _____ _____    ______ ____
ROOT
ATOM      1  C   UNL     1       4.970   4.615  16.661  0.00  0.00    +0.000 C 
ATOM      2  C   UNL     1       4.398   5.988  16.251  0.00  0.00    +0.000 C 
ATOM      3  N   UNL     1       4.847   6.954  17.277  0.00  0.00    +0.000 NA
ATOM      4  C   UNL     1       6.134   6.430  17.773  0.00  0.00    +0.000 C 
ATOM      5  C   UNL     1       6.366   5.038  17.166  0.00  0.00    +0.000 C 
ENDROOT
BRANCH   1   9
ATOM      6  C   UNL     1       2.260   2.806  19.558  0.00  0.00    +0.000 A 
ATOM      7  C   UNL     1       1.807   3.211  18.304  0.00  0.00    +0.000 A 
ATOM      8  C   UNL     1       2.697   3.734  17.359  0.00  0.00    +0.000 A 
ATOM      9  C   UNL     1       4.061   3.894  17.661  0.00  0.00    +0.000 A 
ATOM     10  C   UNL     1       4.503   3.443  18.913  0.00  0.00    +0.000 A 
ATOM     11  C   UNL     1       3.613   2.917  19.856  0.00  0.00    +0.000 A 
BRANCH   6  13
ATOM     12  C   UNL     1       1.561   2.577  21.803  0.00  0.00    +0.000 C 
ATOM     13  O   UNL     1       1.298   2.359  20.422  0.00  0.00    +0.000 OA
ENDBRANCH   6  13
ENDBRANCH   1   9
BRANCH   3  14
ATOM     14  C   UNL     1       3.847   7.099  18.355  0.00  0.00    +0.000 C 
BRANCH  14  15
ATOM     15  C   UNL     1       2.433   7.425  17.844  0.00  0.00    +0.000 C 
BRANCH  15  16
ATOM     16  C   UNL     1       1.818   8.575  18.614  0.00  0.00    +0.000 A 
ATOM     17  C   UNL     1       1.524   9.785  17.990  0.00  0.00    +0.000 A 
ATOM     18  C   UNL     1       0.983  10.834  18.733  0.00  0.00    +0.000 A 
ATOM     19  C   UNL     1       0.746  10.700  20.111  0.00  0.00    +0.000 A 
ATOM     20  C   UNL     1       1.062   9.491  20.751  0.00  0.00    +0.000 A 
ATOM     21  C   UNL     1       1.591   8.436  19.987  0.00  0.00    +0.000 A 
BRANCH  19  22
ATOM     22  O   UNL     1       0.209  11.845  20.651  0.00  0.00    +0.000 OA
ATOM     23  C   UNL     1      -1.181  12.080  20.505  0.00  0.00    +0.000 C 
ENDBRANCH  19  22
BRANCH  20  24
ATOM     24  O   UNL     1       0.853   9.383  22.100  0.00  0.00    +0.000 OA
ATOM     25  C   UNL     1      -0.442   9.003  22.548  0.00  0.00    +0.000 C 
ENDBRANCH  20  24
ENDBRANCH  15  16
ENDBRANCH  14  15
ENDBRANCH   3  14
BRANCH   5  26
ATOM     26  C   UNL     1       7.402   5.072  16.033  0.00  0.00    +0.000 C 
BRANCH  26  27
ATOM     27  N   UNL     1       7.036   4.179  14.950  0.00  0.00    +0.000 N 
ATOM     28  C   UNL     1       7.196   4.509  13.624  0.00  0.00    +0.000 C 
ATOM     29  O   UNL     1       7.706   5.564  13.260  0.00  0.00    +0.000 OA
ATOM     30  H   UNL     1       6.532   3.331  15.187  0.00  0.00    +0.000 HD
BRANCH  28  31
ATOM     31  C   UNL     1       6.707   3.528  12.615  0.00  0.00    +0.000 A 
ATOM     32  C   UNL     1       7.653   2.796  11.883  0.00  0.00    +0.000 A 
ATOM     33  C   UNL     1       7.242   1.871  10.918  0.00  0.00    +0.000 A 
ATOM     34  C   UNL     1       5.884   1.669  10.674  0.00  0.00    +0.000 A 
ATOM     35  C   UNL     1       4.936   2.388  11.400  0.00  0.00    +0.000 A 
ATOM     36  C   UNL     1       5.350   3.308  12.362  0.00  0.00    +0.000 A 
ATOM     37  F   UNL     1       4.400   3.980  13.032  0.00  0.00    +0.000 F 
ENDBRANCH  28  31
ENDBRANCH  26  27
ENDBRANCH   5  26
TORSDOF 10
ENDMDL
MODEL 5
REMARK VINA RESULT:      -7.5      5.080      8.615
REMARK  Name = 
REMARK  13 active torsions:
REMARK  status: ('A' for Active; 'I' for Inactive)
REMARK    1  A    between atoms: C_1  and  O_2
REMARK    2  A    between atoms: O_2  and  C_3
REMARK    3  A    between atoms: C_6  and  C_7
REMARK    4  A    between atoms: N_9  and  C_10
REMARK    5  A    between atoms: C_10  and  C_11
REMARK    6  A    between atoms: C_11  and  C_12
REMARK    7  A    between atoms: C_15  and  O_16
REMARK    8  A    between atoms: O_16  and  C_17
REMARK    9  A    between atoms: C_18  and  O_19
REMARK   10  A    between atoms: O_19  and  C_20
REMARK   11  A    between atoms: C_23  and  C_24
REMARK   12  A    between atoms: C_24  and  N_25
REMARK   13  A    between atoms: C_26  and  C_28
REMARK                            x       y       z     vdW  Elec       q    Type
REMARK                         _______ _______ _______ _____ _____    ______ ____
ROOT
ATOM      1  C   UNL     1       4.817   4.437  16.679  0.00  0.00    +0.000 C 
ATOM      2  C   UNL     1       4.491   5.874  16.223  0.00  0.00    +0.000 C 
ATOM      3  N   UNL     1       5.118   6.781  17.209  0.00  0.00    +0.000 NA
ATOM      4  C   UNL     1       6.298   6.055  17.716  0.00  0.00    +0.000 C 
ATOM      5  C   UNL     1       6.273   4.623  17.159  0.00  0.00    +0.000 C 
ENDROOT
BRANCH   1   9
ATOM      6  C   UNL     1       1.909   3.238  19.698  0.00  0.00    +0.000 A 
ATOM      7  C   UNL     1       1.511   3.893  18.534  0.00  0.00    +0.000 A 
ATOM      8  C   UNL     1       2.444   4.218  17.543  0.00  0.00    +0.000 A 
ATOM      9  C   UNL     1       3.809   3.923  17.710  0.00  0.00    +0.000 A 
ATOM     10  C   UNL     1       4.182   3.229  18.870  0.00  0.00    +0.000 A 
ATOM     11  C   UNL     1       3.248   2.900  19.858  0.00  0.00    +0.000 A 
BRANCH   6  13
ATOM     12  C   UNL     1       1.372   2.634  21.918  0.00  0.00    +0.000 C 
ATOM     13  O   UNL     1       0.926   3.015  20.621  0.00  0.00    +0.000 OA
ENDBRANCH   6  13
ENDBRANCH   1   9
BRANCH   3  14
ATOM     14  C   UNL     1       4.173   7.139  18.288  0.00  0.00    +0.000 C 
BRANCH  14  15
ATOM     15  C   UNL     1       2.957   7.945  17.800  0.00  0.00    +0.000 C 
BRANCH  15  16
ATOM     16  C   UNL     1       2.043   8.317  18.949  0.00  0.00    +0.000 A 
ATOM     17  C   UNL     1       1.962   7.525  20.092  0.00  0.00    +0.000 A 
ATOM     18  C   UNL     1       1.090   7.881  21.121  0.00  0.00    +0.000 A 
ATOM     19  C   UNL     1       0.272   9.018  21.018  0.00  0.00    +0.000 A 
ATOM     20  C   UNL     1       0.332   9.808  19.858  0.00  0.00    +0.000 A 
ATOM     21  C   UNL     1       1.227   9.447  18.836  0.00  0.00    +0.000 A 
BRANCH  19  22
ATOM     22  O   UNL     1      -0.507   9.190  22.137  0.00  0.00    +0.000 OA
ATOM     23  C   UNL     1      -0.452  10.431  22.821  0.00  0.00    +0.000 C 
ENDBRANCH  19  22
BRANCH  20  24
ATOM     24  O   UNL     1      -0.491  10.898  19.757  0.00  0.00    +0.000 OA
ATOM     25  C   UNL     1      -1.602  10.817  18.874  0.00  0.00    +0.000 C 
ENDBRANCH  20  24
ENDBRANCH  15  16
ENDBRANCH  14  15
ENDBRANCH   3  14
BRANCH   5  26
ATOM     26  C   UNL     1       7.283   4.434  16.019  0.00  0.00    +0.000 C 
BRANCH  26  27
ATOM     27  N   UNL     1       6.685   3.758  14.883  0.00  0.00    +0.000 N 
ATOM     28  C   UNL     1       6.785   4.230  13.595  0.00  0.00    +0.000 C 
ATOM     29  O   UNL     1       7.430   5.233  13.304  0.00  0.00    +0.000 OA
ATOM     30  H   UNL     1       6.070   2.973  15.072  0.00  0.00    +0.000 HD
BRANCH  28  31
ATOM     31  C   UNL     1       6.057   3.477  12.536  0.00  0.00    +0.000 A 
ATOM     32  C   UNL     1       4.687   3.725  12.362  0.00  0.00    +0.000 A 
ATOM     33  C   UNL     1       3.958   3.036  11.389  0.00  0.00    +0.000 A 
ATOM     34  C   UNL     1       4.590   2.092  10.579  0.00  0.00    +0.000 A 
ATOM     35  C   UNL     1       5.951   1.842  10.740  0.00  0.00    +0.000 A 
ATOM     36  C   UNL     1       6.674   2.532  11.711  0.00  0.00    +0.000 A 
ATOM     37  F   UNL     1       7.982   2.254  11.831  0.00  0.00    +0.000 F 
ENDBRANCH  28  31
ENDBRANCH  26  27
ENDBRANCH   5  26
TORSDOF 10
ENDMDL
MODEL 6
REMARK VINA RESULT:      -7.4      1.199      1.943
REMARK  Name = 
REMARK  13 active torsions:
REMARK  status: ('A' for Active; 'I' for Inactive)
REMARK    1  A    between atoms: C_1  and  O_2
REMARK    2  A    between atoms: O_2  and  C_3
REMARK    3  A    between atoms: C_6  and  C_7
REMARK    4  A    between atoms: N_9  and  C_10
REMARK    5  A    between atoms: C_10  and  C_11
REMARK    6  A    between atoms: C_11  and  C_12
REMARK    7  A    between atoms: C_15  and  O_16
REMARK    8  A    between atoms: O_16  and  C_17
REMARK    9  A    between atoms: C_18  and  O_19
REMARK   10  A    between atoms: O_19  and  C_20
REMARK   11  A    between atoms: C_23  and  C_24
REMARK   12  A    between atoms: C_24  and  N_25
REMARK   13  A    between atoms: C_26  and  C_28
REMARK                            x       y       z     vdW  Elec       q    Type
REMARK                         _______ _______ _______ _____ _____    ______ ____
ROOT
ATOM      1  C   UNL     1       0.624  10.274  20.036  0.00  0.00    +0.000 C 
ATOM      2  C   UNL     1       0.978  11.392  21.039  0.00  0.00    +0.000 C 
ATOM      3  N   UNL     1       0.076  11.219  22.198  0.00  0.00    +0.000 NA
ATOM      4  C   UNL     1      -0.216   9.774  22.257  0.00  0.00    +0.000 C 
ATOM      5  C   UNL     1       0.375   9.101  21.008  0.00  0.00    +0.000 C 
ENDROOT
BRANCH   1   9
ATOM      6  C   UNL     1      -2.565  11.263  17.233  0.00  0.00    +0.000 A 
ATOM      7  C   UNL     1      -2.465   9.989  17.789  0.00  0.00    +0.000 A 
ATOM      8  C   UNL     1      -1.475   9.700  18.735  0.00  0.00    +0.000 A 
ATOM      9  C   UNL     1      -0.538  10.674  19.122  0.00  0.00    +0.000 A 
ATOM     10  C   UNL     1      -0.682  11.960  18.581  0.00  0.00    +0.000 A 
ATOM     11  C   UNL     1      -1.674  12.249  17.639  0.00  0.00    +0.000 A 
BRANCH   6  13
ATOM     12  C   UNL     1      -3.435  10.566  15.150  0.00  0.00    +0.000 C 
ATOM     13  O   UNL     1      -3.535  11.422  16.282  0.00  0.00    +0.000 OA
ENDBRANCH   6  13
ENDBRANCH   1   9
BRANCH   3  14
ATOM     14  C   UNL     1      -1.150  12.033  22.052  0.00  0.00    +0.000 C 
BRANCH  14  15
ATOM     15  C   UNL     1      -2.249  11.680  23.070  0.00  0.00    +0.000 C 
BRANCH  15  16
ATOM     16  C   UNL     1      -3.196  12.841  23.285  0.00  0.00    +0.000 A 
ATOM     17  C   UNL     1      -2.870  13.890  24.142  0.00  0.00    +0.000 A 
ATOM     18  C   UNL     1      -3.777  14.931  24.340  0.00  0.00    +0.000 A 
ATOM     19  C   UNL     1      -5.029  14.933  23.703  0.00  0.00    +0.000 A 
ATOM     20  C   UNL     1      -5.374  13.867  22.856  0.00  0.00    +0.000 A 
ATOM     21  C   UNL     1      -4.444  12.832  22.653  0.00  0.00    +0.000 A 
BRANCH  19  22
ATOM     22  O   UNL     1      -5.766  16.046  24.029  0.00  0.00    +0.000 OA
ATOM     23  C   UNL     1      -5.095  17.175  24.563  0.00  0.00    +0.000 C 
ENDBRANCH  19  22
BRANCH  20  24
ATOM     24  O   UNL     1      -6.609  13.866  22.264  0.00  0.00    +0.000 OA
ATOM     25  C   UNL     1      -6.766  13.148  21.047  0.00  0.00    +0.000 C 
ENDBRANCH  20  24
ENDBRANCH  15  16
ENDBRANCH  14  15
ENDBRANCH   3  14
BRANCH   5  26
ATOM     26  C   UNL     1       1.666   8.334  21.327  0.00  0.00    +0.000 C 
BRANCH  26  27
ATOM     27  N   UNL     1       1.511   6.910  21.094  0.00  0.00    +0.000 N 
ATOM     28  C   UNL     1       2.112   6.255  20.044  0.00  0.00    +0.000 C 
ATOM     29  O   UNL     1       2.865   6.818  19.255  0.00  0.00    +0.000 OA
ATOM     30  H   UNL     1       0.834   6.410  21.661  0.00  0.00    +0.000 HD
BRANCH  28  31
ATOM     31  C   UNL     1       1.805   4.807  19.880  0.00  0.00    +0.000 A 
ATOM     32  C   UNL     1       1.807   3.991  21.022  0.00  0.00    +0.000 A 
ATOM     33  C   UNL     1       1.535   2.624  20.917  0.00  0.00    +0.000 A 
ATOM     34  C   UNL     1       1.258   2.058  19.673  0.00  0.00    +0.000 A 
ATOM     35  C   UNL     1       1.247   2.861  18.534  0.00  0.00    +0.000 A 
ATOM     36  C   UNL     1       1.518   4.224  18.643  0.00  0.00    +0.000 A 
ATOM     37  F   UNL     1       1.501   4.955  17.517  0.00  0.00    +0.000 F 
ENDBRANCH  28  31
ENDBRANCH  26  27
ENDBRANCH   5  26
TORSDOF 10
ENDMDL
MODEL 7
REMARK VINA RESULT:      -7.4      1.263      2.310
REMARK  Name = 
REMARK  13 active torsions:
REMARK  status: ('A' for Active; 'I' for Inactive)
REMARK    1  A    between atoms: C_1  and  O_2
REMARK    2  A    between atoms: O_2  and  C_3
REMARK    3  A    between atoms: C_6  and  C_7
REMARK    4  A    between atoms: N_9  and  C_10
REMARK    5  A    between atoms: C_10  and  C_11
REMARK    6  A    between atoms: C_11  and  C_12
REMARK    7  A    between atoms: C_15  and  O_16
REMARK    8  A    between atoms: O_16  and  C_17
REMARK    9  A    between atoms: C_18  and  O_19
REMARK   10  A    between atoms: O_19  and  C_20
REMARK   11  A    between atoms: C_23  and  C_24
REMARK   12  A    between atoms: C_24  and  N_25
REMARK   13  A    between atoms: C_26  and  C_28
REMARK                            x       y       z     vdW  Elec       q    Type
REMARK                         _______ _______ _______ _____ _____    ______ ____
ROOT
ATOM      1  C   UNL     1       0.670  10.096  20.021  0.00  0.00    +0.000 C 
ATOM      2  C   UNL     1       0.915  11.233  21.035  0.00  0.00    +0.000 C 
ATOM      3  N   UNL     1      -0.054  11.033  22.134  0.00  0.00    +0.000 NA
ATOM      4  C   UNL     1      -0.294   9.579  22.187  0.00  0.00    +0.000 C 
ATOM      5  C   UNL     1       0.402   8.920  20.985  0.00  0.00    +0.000 C 
ENDROOT
BRANCH   1   9
ATOM      6  C   UNL     1      -2.609  11.258  17.394  0.00  0.00    +0.000 A 
ATOM      7  C   UNL     1      -1.573  12.143  17.686  0.00  0.00    +0.000 A 
ATOM      8  C   UNL     1      -0.494  11.740  18.480  0.00  0.00    +0.000 A 
ATOM      9  C   UNL     1      -0.444  10.446  19.030  0.00  0.00    +0.000 A 
ATOM     10  C   UNL     1      -1.476   9.560  18.691  0.00  0.00    +0.000 A 
ATOM     11  C   UNL     1      -2.552   9.962  17.893  0.00  0.00    +0.000 A 
BRANCH   6  13
ATOM     12  C   UNL     1      -4.945  11.391  17.065  0.00  0.00    +0.000 C 
ATOM     13  O   UNL     1      -3.638  11.771  16.652  0.00  0.00    +0.000 OA
ENDBRANCH   6  13
ENDBRANCH   1   9
BRANCH   3  14
ATOM     14  C   UNL     1      -1.298  11.799  21.901  0.00  0.00    +0.000 C 
BRANCH  14  15
ATOM     15  C   UNL     1      -1.655  12.758  23.049  0.00  0.00    +0.000 C 
BRANCH  15  16
ATOM     16  C   UNL     1      -3.151  12.817  23.275  0.00  0.00    +0.000 A 
ATOM     17  C   UNL     1      -3.718  12.381  24.470  0.00  0.00    +0.000 A 
ATOM     18  C   UNL     1      -5.102  12.423  24.636  0.00  0.00    +0.000 A 
ATOM     19  C   UNL     1      -5.942  12.883  23.608  0.00  0.00    +0.000 A 
ATOM     20  C   UNL     1      -5.379  13.302  22.392  0.00  0.00    +0.000 A 
ATOM     21  C   UNL     1      -3.981  13.269  22.245  0.00  0.00    +0.000 A 
BRANCH  19  22
ATOM     22  O   UNL     1      -7.267  12.847  23.977  0.00  0.00    +0.000 OA
ATOM     23  C   UNL     1      -7.916  14.063  24.303  0.00  0.00    +0.000 C 
ENDBRANCH  19  22
BRANCH  20  24
ATOM     24  O   UNL     1      -6.211  13.720  21.388  0.00  0.00    +0.000 OA
ATOM     25  C   UNL     1      -5.692  14.629  20.425  0.00  0.00    +0.000 C 
ENDBRANCH  20  24
ENDBRANCH  15  16
ENDBRANCH  14  15
ENDBRANCH   3  14
BRANCH   5  26
ATOM     26  C   UNL     1       1.697   8.205  21.394  0.00  0.00    +0.000 C 
BRANCH  26  27
ATOM     27  N   UNL     1       1.655   6.794  21.061  0.00  0.00    +0.000 N 
ATOM     28  C   UNL     1       2.226   6.278  19.921  0.00  0.00    +0.000 C 
ATOM     29  O   UNL     1       2.858   6.966  19.126  0.00  0.00    +0.000 OA
ATOM     30  H   UNL     1       1.073   6.191  21.635  0.00  0.00    +0.000 HD
BRANCH  28  31
ATOM     31  C   UNL     1       2.040   4.822  19.666  0.00  0.00    +0.000 A 
ATOM     32  C   UNL     1       1.822   4.398  18.346  0.00  0.00    +0.000 A 
ATOM     33  C   UNL     1       1.632   3.044  18.058  0.00  0.00    +0.000 A 
ATOM     34  C   UNL     1       1.656   2.099  19.083  0.00  0.00    +0.000 A 
ATOM     35  C   UNL     1       1.877   2.509  20.397  0.00  0.00    +0.000 A 
ATOM     36  C   UNL     1       2.067   3.860  20.680  0.00  0.00    +0.000 A 
ATOM     37  F   UNL     1       2.272   4.207  21.961  0.00  0.00    +0.000 F 
ENDBRANCH  28  31
ENDBRANCH  26  27
ENDBRANCH   5  26
TORSDOF 10
ENDMDL
MODEL 8
REMARK VINA RESULT:      -7.4      1.383      1.980
REMARK  Name = 
REMARK  13 active torsions:
REMARK  status: ('A' for Active; 'I' for Inactive)
REMARK    1  A    between atoms: C_1  and  O_2
REMARK    2  A    between atoms: O_2  and  C_3
REMARK    3  A    between atoms: C_6  and  C_7
REMARK    4  A    between atoms: N_9  and  C_10
REMARK    5  A    between atoms: C_10  and  C_11
REMARK    6  A    between atoms: C_11  and  C_12
REMARK    7  A    between atoms: C_15  and  O_16
REMARK    8  A    between atoms: O_16  and  C_17
REMARK    9  A    between atoms: C_18  and  O_19
REMARK   10  A    between atoms: O_19  and  C_20
REMARK   11  A    between atoms: C_23  and  C_24
REMARK   12  A    between atoms: C_24  and  N_25
REMARK   13  A    between atoms: C_26  and  C_28
REMARK                            x       y       z     vdW  Elec       q    Type
REMARK                         _______ _______ _______ _____ _____    ______ ____
ROOT
ATOM      1  C   UNL     1       0.596  10.255  19.917  0.00  0.00    +0.000 C 
ATOM      2  C   UNL     1       1.042  11.415  20.831  0.00  0.00    +0.000 C 
ATOM      3  N   UNL     1       0.219  11.326  22.057  0.00  0.00    +0.000 NA
ATOM      4  C   UNL     1      -0.098   9.894  22.213  0.00  0.00    +0.000 C 
ATOM      5  C   UNL     1       0.390   9.141  20.965  0.00  0.00    +0.000 C 
ENDROOT
BRANCH   1   9
ATOM      6  C   UNL     1      -2.755  11.180  17.286  0.00  0.00    +0.000 A 
ATOM      7  C   UNL     1      -2.634   9.928  17.885  0.00  0.00    +0.000 A 
ATOM      8  C   UNL     1      -1.589   9.661  18.776  0.00  0.00    +0.000 A 
ATOM      9  C   UNL     1      -0.617  10.636  19.064  0.00  0.00    +0.000 A 
ATOM     10  C   UNL     1      -0.780  11.902  18.482  0.00  0.00    +0.000 A 
ATOM     11  C   UNL     1      -1.828  12.169  17.595  0.00  0.00    +0.000 A 
BRANCH   6  13
ATOM     12  C   UNL     1      -4.975  11.895  16.909  0.00  0.00    +0.000 C 
ATOM     13  O   UNL     1      -3.782  11.316  16.393  0.00  0.00    +0.000 OA
ENDBRANCH   6  13
ENDBRANCH   1   9
BRANCH   3  14
ATOM     14  C   UNL     1      -0.996  12.161  21.951  0.00  0.00    +0.000 C 
BRANCH  14  15
ATOM     15  C   UNL     1      -1.153  13.168  23.103  0.00  0.00    +0.000 C 
BRANCH  15  16
ATOM     16  C   UNL     1      -2.609  13.503  23.350  0.00  0.00    +0.000 A 
ATOM     17  C   UNL     1      -3.577  12.505  23.419  0.00  0.00    +0.000 A 
ATOM     18  C   UNL     1      -4.914  12.849  23.620  0.00  0.00    +0.000 A 
ATOM     19  C   UNL     1      -5.308  14.192  23.735  0.00  0.00    +0.000 A 
ATOM     20  C   UNL     1      -4.340  15.205  23.643  0.00  0.00    +0.000 A 
ATOM     21  C   UNL     1      -2.994  14.844  23.457  0.00  0.00    +0.000 A 
BRANCH  19  22
ATOM     22  O   UNL     1      -6.663  14.312  23.932  0.00  0.00    +0.000 OA
ATOM     23  C   UNL     1      -7.446  13.133  24.018  0.00  0.00    +0.000 C 
ENDBRANCH  19  22
BRANCH  20  24
ATOM     24  O   UNL     1      -4.741  16.512  23.728  0.00  0.00    +0.000 OA
ATOM     25  C   UNL     1      -4.773  17.119  25.014  0.00  0.00    +0.000 C 
ENDBRANCH  20  24
ENDBRANCH  15  16
ENDBRANCH  14  15
ENDBRANCH   3  14
BRANCH   5  26
ATOM     26  C   UNL     1       1.683   8.359  21.236  0.00  0.00    +0.000 C 
BRANCH  26  27
ATOM     27  N   UNL     1       1.506   6.938  21.003  0.00  0.00    +0.000 N 
ATOM     28  C   UNL     1       2.214   6.243  20.052  0.00  0.00    +0.000 C 
ATOM     29  O   UNL     1       3.085   6.763  19.362  0.00  0.00    +0.000 OA
ATOM     30  H   UNL     1       0.740   6.474  21.483  0.00  0.00    +0.000 HD
BRANCH  28  31
ATOM     31  C   UNL     1       1.875   4.804  19.868  0.00  0.00    +0.000 A 
ATOM     32  C   UNL     1       1.909   3.962  20.989  0.00  0.00    +0.000 A 
ATOM     33  C   UNL     1       1.608   2.602  20.865  0.00  0.00    +0.000 A 
ATOM     34  C   UNL     1       1.272   2.070  19.621  0.00  0.00    +0.000 A 
ATOM     35  C   UNL     1       1.230   2.899  18.501  0.00  0.00    +0.000 A 
ATOM     36  C   UNL     1       1.529   4.255  18.630  0.00  0.00    +0.000 A 
ATOM     37  F   UNL     1       1.480   5.012  17.523  0.00  0.00    +0.000 F 
ENDBRANCH  28  31
ENDBRANCH  26  27
ENDBRANCH   5  26
TORSDOF 10
ENDMDL
MODEL 9
REMARK VINA RESULT:      -7.3      1.236      1.617
REMARK  Name = 
REMARK  13 active torsions:
REMARK  status: ('A' for Active; 'I' for Inactive)
REMARK    1  A    between atoms: C_1  and  O_2
REMARK    2  A    between atoms: O_2  and  C_3
REMARK    3  A    between atoms: C_6  and  C_7
REMARK    4  A    between atoms: N_9  and  C_10
REMARK    5  A    between atoms: C_10  and  C_11
REMARK    6  A    between atoms: C_11  and  C_12
REMARK    7  A    between atoms: C_15  and  O_16
REMARK    8  A    between atoms: O_16  and  C_17
REMARK    9  A    between atoms: C_18  and  O_19
REMARK   10  A    between atoms: O_19  and  C_20
REMARK   11  A    between atoms: C_23  and  C_24
REMARK   12  A    between atoms: C_24  and  N_25
REMARK   13  A    between atoms: C_26  and  C_28
REMARK                            x       y       z     vdW  Elec       q    Type
REMARK                         _______ _______ _______ _____ _____    ______ ____
ROOT
ATOM      1  C   UNL     1       0.564  10.132  19.848  0.00  0.00    +0.000 C 
ATOM      2  C   UNL     1       1.267  11.355  20.474  0.00  0.00    +0.000 C 
ATOM      3  N   UNL     1       0.521  11.684  21.708  0.00  0.00    +0.000 NA
ATOM      4  C   UNL     1      -0.035  10.403  22.184  0.00  0.00    +0.000 C 
ATOM      5  C   UNL     1       0.230   9.325  21.121  0.00  0.00    +0.000 C 
ENDROOT
BRANCH   1   9
ATOM      6  C   UNL     1      -2.709  11.114  17.139  0.00  0.00    +0.000 A 
ATOM      7  C   UNL     1      -2.715   9.932  17.878  0.00  0.00    +0.000 A 
ATOM      8  C   UNL     1      -1.691   9.655  18.790  0.00  0.00    +0.000 A 
ATOM      9  C   UNL     1      -0.615  10.545  18.961  0.00  0.00    +0.000 A 
ATOM     10  C   UNL     1      -0.648  11.746  18.238  0.00  0.00    +0.000 A 
ATOM     11  C   UNL     1      -1.675  12.024  17.330  0.00  0.00    +0.000 A 
BRANCH   6  13
ATOM     12  C   UNL     1      -3.481  10.745  14.937  0.00  0.00    +0.000 C 
ATOM     13  O   UNL     1      -3.729  11.259  16.241  0.00  0.00    +0.000 OA
ENDBRANCH   6  13
ENDBRANCH   1   9
BRANCH   3  14
ATOM     14  C   UNL     1      -0.530  12.690  21.450  0.00  0.00    +0.000 C 
BRANCH  14  15
ATOM     15  C   UNL     1      -1.600  12.761  22.553  0.00  0.00    +0.000 C 
BRANCH  15  16
ATOM     16  C   UNL     1      -2.996  12.652  21.977  0.00  0.00    +0.000 A 
ATOM     17  C   UNL     1      -3.214  12.686  20.602  0.00  0.00    +0.000 A 
ATOM     18  C   UNL     1      -4.515  12.611  20.105  0.00  0.00    +0.000 A 
ATOM     19  C   UNL     1      -5.618  12.521  20.970  0.00  0.00    +0.000 A 
ATOM     20  C   UNL     1      -5.407  12.510  22.358  0.00  0.00    +0.000 A 
ATOM     21  C   UNL     1      -4.090  12.570  22.845  0.00  0.00    +0.000 A 
BRANCH  19  22
ATOM     22  O   UNL     1      -6.805  12.454  20.279  0.00  0.00    +0.000 OA
ATOM     23  C   UNL     1      -7.380  11.181  20.034  0.00  0.00    +0.000 C 
ENDBRANCH  19  22
BRANCH  20  24
ATOM     24  O   UNL     1      -6.492  12.451  23.191  0.00  0.00    +0.000 OA
ATOM     25  C   UNL     1      -7.043  13.676  23.658  0.00  0.00    +0.000 C 
ENDBRANCH  20  24
ENDBRANCH  15  16
ENDBRANCH  14  15
ENDBRANCH   3  14
BRANCH   5  26
ATOM     26  C   UNL     1       1.378   8.390  21.526  0.00  0.00    +0.000 C 
BRANCH  26  27
ATOM     27  N   UNL     1       1.904   7.664  20.385  0.00  0.00    +0.000 N 
ATOM     28  C   UNL     1       1.953   6.291  20.331  0.00  0.00    +0.000 C 
ATOM     29  O   UNL     1       1.510   5.576  21.225  0.00  0.00    +0.000 OA
ATOM     30  H   UNL     1       2.361   8.201  19.655  0.00  0.00    +0.000 HD
BRANCH  28  31
ATOM     31  C   UNL     1       2.589   5.680  19.131  0.00  0.00    +0.000 A 
ATOM     32  C   UNL     1       3.777   6.245  18.644  0.00  0.00    +0.000 A 
ATOM     33  C   UNL     1       4.406   5.713  17.515  0.00  0.00    +0.000 A 
ATOM     34  C   UNL     1       3.854   4.613  16.859  0.00  0.00    +0.000 A 
ATOM     35  C   UNL     1       2.677   4.040  17.338  0.00  0.00    +0.000 A 
ATOM     36  C   UNL     1       2.054   4.573  18.465  0.00  0.00    +0.000 A 
ATOM     37  F   UNL     1       0.920   3.991  18.885  0.00  0.00    +0.000 F 
ENDBRANCH  28  31
ENDBRANCH  26  27
ENDBRANCH   5  26
TORSDOF 10
ENDMDL
