MODEL 1
REMARK VINA RESULT:      -8.9      0.000      0.000
REMARK  Name = 
REMARK  8 active torsions:
REMARK  status: ('A' for Active; 'I' for Inactive)
REMARK    1  A    between atoms: C_1  and  O_2
REMARK    2  A    between atoms: O_2  and  C_3
REMARK    3  A    between atoms: C_8  and  O_9
REMARK    4  A    between atoms: O_9  and  C_10
REMARK    5  A    between atoms: C_13  and  S_14
REMARK    6  A    between atoms: S_14  and  C_17
REMARK    7  A    between atoms: C_17  and  C_18
REMARK    8  A    between atoms: N_20  and  O_21
REMARK                            x       y       z     vdW  Elec       q    Type
REMARK                         _______ _______ _______ _____ _____    ______ ____
ROOT
ATOM      1  S   UNL     1       2.289   4.150  19.655  0.00  0.00    +0.000 S 
ATOM      2  O   UNL     1       2.433   3.871  21.077  0.00  0.00    +0.000 OA
ATOM      3  O   UNL     1       1.209   3.519  18.914  0.00  0.00    +0.000 OA
ENDROOT
BRANCH   1   4
ATOM      4  C   UNL     1       3.831   3.744  18.829  0.00  0.00    +0.000 C 
ATOM      5  C   UNL     1       4.946   4.688  19.298  0.00  0.00    +0.000 C 
ATOM      6  C   UNL     1       5.914   4.810  18.129  0.00  0.00    +0.000 C 
ATOM      7  C   UNL     1       5.088   4.619  16.841  0.00  0.00    +0.000 C 
ATOM      8  C   UNL     1       5.816   3.690  15.843  0.00  0.00    +0.000 C 
ATOM      9  C   UNL     1       7.076   4.337  15.261  0.00  0.00    +0.000 C 
ATOM     10  N   UNL     1       6.776   5.603  14.592  0.00  0.00    +0.000 NA
ATOM     11  C   UNL     1       6.119   6.546  15.495  0.00  0.00    +0.000 C 
ATOM     12  C   UNL     1       4.842   5.964  16.113  0.00  0.00    +0.000 C 
ATOM     13  C   UNL     1       3.746   3.993  17.306  0.00  0.00    +0.000 C 
ATOM     14  H   UNL     1       6.165   5.423  13.794  0.00  0.00    +0.000 HD
BRANCH   4  15
ATOM     15  C   UNL     1       4.171   2.298  19.172  0.00  0.00    +0.000 C 
ATOM     16  O   UNL     1       3.684   1.327  18.586  0.00  0.00    +0.000 OA
ATOM     17  N   UNL     1       5.110   2.099  20.170  0.00  0.00    +0.000 N 
ATOM     18  H   UNL     1       5.248   2.781  20.921  0.00  0.00    +0.000 HD
BRANCH  17  19
ATOM     19  O   UNL     1       5.336   0.750  20.521  0.00  0.00    +0.000 OA
ATOM     20  H   UNL     1       6.082   0.804  21.158  0.00  0.00    +0.000 HD
ENDBRANCH  17  19
ENDBRANCH   4  15
ENDBRANCH   1   4
BRANCH   1  24
ATOM     21  C   UNL     1       1.738   8.684  19.265  0.00  0.00    +0.000 A 
ATOM     22  C   UNL     1       2.056   7.907  18.145  0.00  0.00    +0.000 A 
ATOM     23  C   UNL     1       2.216   6.523  18.252  0.00  0.00    +0.000 A 
ATOM     24  C   UNL     1       2.079   5.916  19.500  0.00  0.00    +0.000 A 
ATOM     25  C   UNL     1       1.719   6.676  20.618  0.00  0.00    +0.000 A 
ATOM     26  C   UNL     1       1.583   8.066  20.505  0.00  0.00    +0.000 A 
BRANCH  21  27
ATOM     27  O   UNL     1       1.658  10.036  19.013  0.00  0.00    +0.000 OA
BRANCH  27  33
ATOM     28  C   UNL     1       0.276  11.711  20.200  0.00  0.00    +0.000 A 
ATOM     29  C   UNL     1      -1.015  12.229  20.370  0.00  0.00    +0.000 A 
ATOM     30  C   UNL     1      -2.073  11.828  19.549  0.00  0.00    +0.000 A 
ATOM     31  C   UNL     1      -1.848  10.898  18.544  0.00  0.00    +0.000 A 
ATOM     32  C   UNL     1      -0.576  10.358  18.369  0.00  0.00    +0.000 A 
ATOM     33  C   UNL     1       0.501  10.760  19.184  0.00  0.00    +0.000 A 
BRANCH  28  35
ATOM     34  C   UNL     1       2.051  13.199  20.657  0.00  0.00    +0.000 C 
ATOM     35  O   UNL     1       1.319  12.033  21.030  0.00  0.00    +0.000 OA
ENDBRANCH  28  35
ENDBRANCH  27  33
ENDBRANCH  21  27
ENDBRANCH   1  24
TORSDOF 7
ENDMDL
MODEL 2
REMARK VINA RESULT:      -8.8      0.708      1.197
REMARK  Name = 
REMARK  8 active torsions:
REMARK  status: ('A' for Active; 'I' for Inactive)
REMARK    1  A    between atoms: C_1  and  O_2
REMARK    2  A    between atoms: O_2  and  C_3
REMARK    3  A    between atoms: C_8  and  O_9
REMARK    4  A    between atoms: O_9  and  C_10
REMARK    5  A    between atoms: C_13  and  S_14
REMARK    6  A    between atoms: S_14  and  C_17
REMARK    7  A    between atoms: C_17  and  C_18
REMARK    8  A    between atoms: N_20  and  O_21
REMARK                            x       y       z     vdW  Elec       q    Type
REMARK                         _______ _______ _______ _____ _____    ______ ____
ROOT
ATOM      1  S   UNL     1       2.232   4.005  19.611  0.00  0.00    +0.000 S 
ATOM      2  O   UNL     1       2.325   3.636  21.016  0.00  0.00    +0.000 OA
ATOM      3  O   UNL     1       1.177   3.427  18.793  0.00  0.00    +0.000 OA
ENDROOT
BRANCH   1   4
ATOM      4  C   UNL     1       3.802   3.646  18.815  0.00  0.00    +0.000 C 
ATOM      5  C   UNL     1       4.878   4.623  19.306  0.00  0.00    +0.000 C 
ATOM      6  C   UNL     1       5.865   4.775  18.157  0.00  0.00    +0.000 C 
ATOM      7  C   UNL     1       5.070   4.561  16.853  0.00  0.00    +0.000 C 
ATOM      8  C   UNL     1       5.845   3.655  15.868  0.00  0.00    +0.000 C 
ATOM      9  C   UNL     1       7.096   4.340  15.311  0.00  0.00    +0.000 C 
ATOM     10  N   UNL     1       6.772   5.597  14.637  0.00  0.00    +0.000 NA
ATOM     11  C   UNL     1       6.069   6.519  15.528  0.00  0.00    +0.000 C 
ATOM     12  C   UNL     1       4.798   5.898  16.120  0.00  0.00    +0.000 C 
ATOM     13  C   UNL     1       3.739   3.894  17.290  0.00  0.00    +0.000 C 
ATOM     14  H   UNL     1       6.183   5.400  13.827  0.00  0.00    +0.000 HD
BRANCH   4  15
ATOM     15  C   UNL     1       4.177   2.211  19.164  0.00  0.00    +0.000 C 
ATOM     16  O   UNL     1       3.717   1.225  18.580  0.00  0.00    +0.000 OA
ATOM     17  N   UNL     1       5.119   2.040  20.164  0.00  0.00    +0.000 N 
ATOM     18  H   UNL     1       5.238   2.728  20.913  0.00  0.00    +0.000 HD
BRANCH  17  19
ATOM     19  O   UNL     1       5.379   0.698  20.520  0.00  0.00    +0.000 OA
ATOM     20  H   UNL     1       4.487   0.284  20.510  0.00  0.00    +0.000 HD
ENDBRANCH  17  19
ENDBRANCH   4  15
ENDBRANCH   1   4
BRANCH   1  24
ATOM     21  C   UNL     1       1.726   8.559  19.478  0.00  0.00    +0.000 A 
ATOM     22  C   UNL     1       1.480   7.850  20.660  0.00  0.00    +0.000 A 
ATOM     23  C   UNL     1       1.641   6.463  20.713  0.00  0.00    +0.000 A 
ATOM     24  C   UNL     1       2.030   5.779  19.562  0.00  0.00    +0.000 A 
ATOM     25  C   UNL     1       2.321   6.481  18.388  0.00  0.00    +0.000 A 
ATOM     26  C   UNL     1       2.135   7.869  18.338  0.00  0.00    +0.000 A 
BRANCH  21  27
ATOM     27  O   UNL     1       1.482   9.912  19.568  0.00  0.00    +0.000 OA
BRANCH  27  33
ATOM     28  C   UNL     1      -0.499  11.304  20.082  0.00  0.00    +0.000 A 
ATOM     29  C   UNL     1      -1.800  11.647  19.691  0.00  0.00    +0.000 A 
ATOM     30  C   UNL     1      -2.340  11.191  18.485  0.00  0.00    +0.000 A 
ATOM     31  C   UNL     1      -1.579  10.383  17.653  0.00  0.00    +0.000 A 
ATOM     32  C   UNL     1      -0.289  10.016  18.031  0.00  0.00    +0.000 A 
ATOM     33  C   UNL     1       0.270  10.475  19.240  0.00  0.00    +0.000 A 
BRANCH  28  35
ATOM     34  C   UNL     1      -0.650  11.180  22.435  0.00  0.00    +0.000 C 
ATOM     35  O   UNL     1       0.036  11.679  21.288  0.00  0.00    +0.000 OA
ENDBRANCH  28  35
ENDBRANCH  27  33
ENDBRANCH  21  27
ENDBRANCH   1  24
TORSDOF 7
ENDMDL
MODEL 3
REMARK VINA RESULT:      -8.6      0.731      1.858
REMARK  Name = 
REMARK  8 active torsions:
REMARK  status: ('A' for Active; 'I' for Inactive)
REMARK    1  A    between atoms: C_1  and  O_2
REMARK    2  A    between atoms: O_2  and  C_3
REMARK    3  A    between atoms: C_8  and  O_9
REMARK    4  A    between atoms: O_9  and  C_10
REMARK    5  A    between atoms: C_13  and  S_14
REMARK    6  A    between atoms: S_14  and  C_17
REMARK    7  A    between atoms: C_17  and  C_18
REMARK    8  A    between atoms: N_20  and  O_21
REMARK                            x       y       z     vdW  Elec       q    Type
REMARK                         _______ _______ _______ _____ _____    ______ ____
ROOT
ATOM      1  S   UNL     1       2.272   4.198  19.626  0.00  0.00    +0.000 S 
ATOM      2  O   UNL     1       2.405   3.915  21.048  0.00  0.00    +0.000 OA
ATOM      3  O   UNL     1       1.191   3.578  18.877  0.00  0.00    +0.000 OA
ENDROOT
BRANCH   1   4
ATOM      4  C   UNL     1       3.816   3.782  18.808  0.00  0.00    +0.000 C 
ATOM      5  C   UNL     1       4.931   4.727  19.274  0.00  0.00    +0.000 C 
ATOM      6  C   UNL     1       5.903   4.839  18.107  0.00  0.00    +0.000 C 
ATOM      7  C   UNL     1       5.081   4.640  16.818  0.00  0.00    +0.000 C 
ATOM      8  C   UNL     1       5.810   3.702  15.829  0.00  0.00    +0.000 C 
ATOM      9  C   UNL     1       7.073   4.342  15.246  0.00  0.00    +0.000 C 
ATOM     10  N   UNL     1       6.778   5.604  14.567  0.00  0.00    +0.000 NA
ATOM     11  C   UNL     1       6.120   6.555  15.461  0.00  0.00    +0.000 C 
ATOM     12  C   UNL     1       4.840   5.980  16.079  0.00  0.00    +0.000 C 
ATOM     13  C   UNL     1       3.736   4.021  17.283  0.00  0.00    +0.000 C 
ATOM     14  H   UNL     1       6.170   5.419  13.768  0.00  0.00    +0.000 HD
BRANCH   4  15
ATOM     15  C   UNL     1       4.151   2.338  19.162  0.00  0.00    +0.000 C 
ATOM     16  O   UNL     1       3.644   1.364  18.599  0.00  0.00    +0.000 OA
ATOM     17  N   UNL     1       5.109   2.144  20.143  0.00  0.00    +0.000 N 
ATOM     18  H   UNL     1       5.268   2.835  20.882  0.00  0.00    +0.000 HD
BRANCH  17  19
ATOM     19  O   UNL     1       5.331   0.798  20.507  0.00  0.00    +0.000 OA
ATOM     20  H   UNL     1       6.239   0.621  20.176  0.00  0.00    +0.000 HD
ENDBRANCH  17  19
ENDBRANCH   4  15
ENDBRANCH   1   4
BRANCH   1  24
ATOM     21  C   UNL     1       1.781   8.738  19.231  0.00  0.00    +0.000 A 
ATOM     22  C   UNL     1       1.647   8.114  20.477  0.00  0.00    +0.000 A 
ATOM     23  C   UNL     1       1.804   6.733  20.609  0.00  0.00    +0.000 A 
ATOM     24  C   UNL     1       2.076   5.967  19.475  0.00  0.00    +0.000 A 
ATOM     25  C   UNL     1       2.256   6.584  18.234  0.00  0.00    +0.000 A 
ATOM     26  C   UNL     1       2.073   7.968  18.107  0.00  0.00    +0.000 A 
BRANCH  21  27
ATOM     27  O   UNL     1       1.553  10.097  19.250  0.00  0.00    +0.000 OA
BRANCH  27  33
ATOM     28  C   UNL     1      -0.811  10.773  18.968  0.00  0.00    +0.000 A 
ATOM     29  C   UNL     1      -1.864  11.531  19.496  0.00  0.00    +0.000 A 
ATOM     30  C   UNL     1      -1.757  12.156  20.741  0.00  0.00    +0.000 A 
ATOM     31  C   UNL     1      -0.586  12.028  21.475  0.00  0.00    +0.000 A 
ATOM     32  C   UNL     1       0.480  11.293  20.961  0.00  0.00    +0.000 A 
ATOM     33  C   UNL     1       0.382  10.651  19.710  0.00  0.00    +0.000 A 
BRANCH  28  35
ATOM     34  C   UNL     1      -2.170   9.926  17.233  0.00  0.00    +0.000 C 
ATOM     35  O   UNL     1      -0.859  10.203  17.721  0.00  0.00    +0.000 OA
ENDBRANCH  28  35
ENDBRANCH  27  33
ENDBRANCH  21  27
ENDBRANCH   1  24
TORSDOF 7
ENDMDL
MODEL 4
REMARK VINA RESULT:      -8.6      0.869      1.214
REMARK  Name = 
REMARK  8 active torsions:
REMARK  status: ('A' for Active; 'I' for Inactive)
REMARK    1  A    between atoms: C_1  and  O_2
REMARK    2  A    between atoms: O_2  and  C_3
REMARK    3  A    between atoms: C_8  and  O_9
REMARK    4  A    between atoms: O_9  and  C_10
REMARK    5  A    between atoms: C_13  and  S_14
REMARK    6  A    between atoms: S_14  and  C_17
REMARK    7  A    between atoms: C_17  and  C_18
REMARK    8  A    between atoms: N_20  and  O_21
REMARK                            x       y       z     vdW  Elec       q    Type
REMARK                         _______ _______ _______ _____ _____    ______ ____
ROOT
ATOM      1  S   UNL     1       2.071   3.921  19.328  0.00  0.00    +0.000 S 
ATOM      2  O   UNL     1       2.009   3.361  20.670  0.00  0.00    +0.000 OA
ATOM      3  O   UNL     1       1.094   3.500  18.337  0.00  0.00    +0.000 OA
ENDROOT
BRANCH   1   4
ATOM      4  C   UNL     1       3.706   3.615  18.651  0.00  0.00    +0.000 C 
ATOM      5  C   UNL     1       4.701   4.653  19.185  0.00  0.00    +0.000 C 
ATOM      6  C   UNL     1       5.757   4.821  18.101  0.00  0.00    +0.000 C 
ATOM      7  C   UNL     1       5.064   4.537  16.753  0.00  0.00    +0.000 C 
ATOM      8  C   UNL     1       5.945   3.642  15.850  0.00  0.00    +0.000 C 
ATOM      9  C   UNL     1       7.199   4.370  15.359  0.00  0.00    +0.000 C 
ATOM     10  N   UNL     1       6.866   5.593  14.628  0.00  0.00    +0.000 NA
ATOM     11  C   UNL     1       6.063   6.504  15.442  0.00  0.00    +0.000 C 
ATOM     12  C   UNL     1       4.784   5.840  15.965  0.00  0.00    +0.000 C 
ATOM     13  C   UNL     1       3.737   3.820  17.119  0.00  0.00    +0.000 C 
ATOM     14  H   UNL     1       6.343   5.347  13.786  0.00  0.00    +0.000 HD
BRANCH   4  15
ATOM     15  C   UNL     1       4.120   2.208  19.066  0.00  0.00    +0.000 C 
ATOM     16  O   UNL     1       3.662   1.184  18.552  0.00  0.00    +0.000 OA
ATOM     17  N   UNL     1       5.096   2.110  20.043  0.00  0.00    +0.000 N 
ATOM     18  H   UNL     1       5.224   2.840  20.749  0.00  0.00    +0.000 HD
BRANCH  17  19
ATOM     19  O   UNL     1       5.393   0.794  20.464  0.00  0.00    +0.000 OA
ATOM     20  H   UNL     1       4.510   0.366  20.509  0.00  0.00    +0.000 HD
ENDBRANCH  17  19
ENDBRANCH   4  15
ENDBRANCH   1   4
BRANCH   1  24
ATOM     21  C   UNL     1       1.688   8.466  19.779  0.00  0.00    +0.000 A 
ATOM     22  C   UNL     1       1.455   7.621  20.870  0.00  0.00    +0.000 A 
ATOM     23  C   UNL     1       1.579   6.235  20.745  0.00  0.00    +0.000 A 
ATOM     24  C   UNL     1       1.917   5.691  19.506  0.00  0.00    +0.000 A 
ATOM     25  C   UNL     1       2.195   6.527  18.421  0.00  0.00    +0.000 A 
ATOM     26  C   UNL     1       2.045   7.915  18.550  0.00  0.00    +0.000 A 
BRANCH  21  27
ATOM     27  O   UNL     1       1.483   9.803  20.044  0.00  0.00    +0.000 OA
BRANCH  27  33
ATOM     28  C   UNL     1       0.829  11.900  18.903  0.00  0.00    +0.000 A 
ATOM     29  C   UNL     1      -0.233  12.633  18.358  0.00  0.00    +0.000 A 
ATOM     30  C   UNL     1      -1.508  12.075  18.225  0.00  0.00    +0.000 A 
ATOM     31  C   UNL     1      -1.733  10.770  18.640  0.00  0.00    +0.000 A 
ATOM     32  C   UNL     1      -0.695  10.030  19.200  0.00  0.00    +0.000 A 
ATOM     33  C   UNL     1       0.596  10.577  19.333  0.00  0.00    +0.000 A 
BRANCH  28  35
ATOM     34  C   UNL     1       2.410  13.528  18.252  0.00  0.00    +0.000 C 
ATOM     35  O   UNL     1       2.074  12.439  19.109  0.00  0.00    +0.000 OA
ENDBRANCH  28  35
ENDBRANCH  27  33
ENDBRANCH  21  27
ENDBRANCH   1  24
TORSDOF 7
ENDMDL
MODEL 5
REMARK VINA RESULT:      -8.5      0.897      1.825
REMARK  Name = 
REMARK  8 active torsions:
REMARK  status: ('A' for Active; 'I' for Inactive)
REMARK    1  A    between atoms: C_1  and  O_2
REMARK    2  A    between atoms: O_2  and  C_3
REMARK    3  A    between atoms: C_8  and  O_9
REMARK    4  A    between atoms: O_9  and  C_10
REMARK    5  A    between atoms: C_13  and  S_14
REMARK    6  A    between atoms: S_14  and  C_17
REMARK    7  A    between atoms: C_17  and  C_18
REMARK    8  A    between atoms: N_20  and  O_21
REMARK                            x       y       z     vdW  Elec       q    Type
REMARK                         _______ _______ _______ _____ _____    ______ ____
ROOT
ATOM      1  S   UNL     1       2.376   4.310  19.887  0.00  0.00    +0.000 S 
ATOM      2  O   UNL     1       2.562   4.145  21.321  0.00  0.00    +0.000 OA
ATOM      3  O   UNL     1       1.310   3.578  19.221  0.00  0.00    +0.000 OA
ENDROOT
BRANCH   1   4
ATOM      4  C   UNL     1       3.918   3.911  19.056  0.00  0.00    +0.000 C 
ATOM      5  C   UNL     1       5.007   4.915  19.456  0.00  0.00    +0.000 C 
ATOM      6  C   UNL     1       5.952   5.007  18.265  0.00  0.00    +0.000 C 
ATOM      7  C   UNL     1       5.113   4.722  17.003  0.00  0.00    +0.000 C 
ATOM      8  C   UNL     1       5.855   3.766  16.042  0.00  0.00    +0.000 C 
ATOM      9  C   UNL     1       7.083   4.422  15.405  0.00  0.00    +0.000 C 
ATOM     10  N   UNL     1       6.731   5.642  14.677  0.00  0.00    +0.000 NA
ATOM     11  C   UNL     1       6.057   6.609  15.542  0.00  0.00    +0.000 C 
ATOM     12  C   UNL     1       4.810   6.018  16.211  0.00  0.00    +0.000 C 
ATOM     13  C   UNL     1       3.800   4.078  17.523  0.00  0.00    +0.000 C 
ATOM     14  H   UNL     1       6.114   5.400  13.900  0.00  0.00    +0.000 HD
BRANCH   4  15
ATOM     15  C   UNL     1       4.310   2.497  19.467  0.00  0.00    +0.000 C 
ATOM     16  O   UNL     1       4.840   2.225  20.547  0.00  0.00    +0.000 OA
ATOM     17  N   UNL     1       4.004   1.483  18.576  0.00  0.00    +0.000 N 
ATOM     18  H   UNL     1       3.939   1.654  17.568  0.00  0.00    +0.000 HD
BRANCH  17  19
ATOM     19  O   UNL     1       4.458   0.198  18.949  0.00  0.00    +0.000 OA
ATOM     20  H   UNL     1       5.409   0.214  18.702  0.00  0.00    +0.000 HD
ENDBRANCH  17  19
ENDBRANCH   4  15
ENDBRANCH   1   4
BRANCH   1  24
ATOM     21  C   UNL     1       1.609   8.772  19.175  0.00  0.00    +0.000 A 
ATOM     22  C   UNL     1       1.987   7.938  18.116  0.00  0.00    +0.000 A 
ATOM     23  C   UNL     1       2.213   6.575  18.322  0.00  0.00    +0.000 A 
ATOM     24  C   UNL     1       2.081   6.049  19.607  0.00  0.00    +0.000 A 
ATOM     25  C   UNL     1       1.662   6.863  20.663  0.00  0.00    +0.000 A 
ATOM     26  C   UNL     1       1.460   8.234  20.452  0.00  0.00    +0.000 A 
BRANCH  21  27
ATOM     27  O   UNL     1       1.466  10.099  18.828  0.00  0.00    +0.000 OA
BRANCH  27  33
ATOM     28  C   UNL     1      -0.865  10.869  18.516  0.00  0.00    +0.000 A 
ATOM     29  C   UNL     1      -1.822  11.826  18.881  0.00  0.00    +0.000 A 
ATOM     30  C   UNL     1      -1.573  12.750  19.900  0.00  0.00    +0.000 A 
ATOM     31  C   UNL     1      -0.357  12.725  20.568  0.00  0.00    +0.000 A 
ATOM     32  C   UNL     1       0.614  11.793  20.210  0.00  0.00    +0.000 A 
ATOM     33  C   UNL     1       0.373  10.851  19.190  0.00  0.00    +0.000 A 
BRANCH  28  35
ATOM     34  C   UNL     1      -2.351  10.016  16.892  0.00  0.00    +0.000 C 
ATOM     35  O   UNL     1      -1.051   9.992  17.478  0.00  0.00    +0.000 OA
ENDBRANCH  28  35
ENDBRANCH  27  33
ENDBRANCH  21  27
ENDBRANCH   1  24
TORSDOF 7
ENDMDL
MODEL 6
REMARK VINA RESULT:      -8.2      1.199      1.848
REMARK  Name = 
REMARK  8 active torsions:
REMARK  status: ('A' for Active; 'I' for Inactive)
REMARK    1  A    between atoms: C_1  and  O_2
REMARK    2  A    between atoms: O_2  and  C_3
REMARK    3  A    between atoms: C_8  and  O_9
REMARK    4  A    between atoms: O_9  and  C_10
REMARK    5  A    between atoms: C_13  and  S_14
REMARK    6  A    between atoms: S_14  and  C_17
REMARK    7  A    between atoms: C_17  and  C_18
REMARK    8  A    between atoms: N_20  and  O_21
REMARK                            x       y       z     vdW  Elec       q    Type
REMARK                         _______ _______ _______ _____ _____    ______ ____
ROOT
ATOM      1  S   UNL     1       2.147   3.786  19.457  0.00  0.00    +0.000 S 
ATOM      2  O   UNL     1       2.150   3.240  20.807  0.00  0.00    +0.000 OA
ATOM      3  O   UNL     1       1.144   3.330  18.509  0.00  0.00    +0.000 OA
ENDROOT
BRANCH   1   4
ATOM      4  C   UNL     1       3.763   3.512  18.721  0.00  0.00    +0.000 C 
ATOM      5  C   UNL     1       4.766   4.546  19.249  0.00  0.00    +0.000 C 
ATOM      6  C   UNL     1       5.785   4.751  18.136  0.00  0.00    +0.000 C 
ATOM      7  C   UNL     1       5.052   4.492  16.804  0.00  0.00    +0.000 C 
ATOM      8  C   UNL     1       5.911   3.628  15.852  0.00  0.00    +0.000 C 
ATOM      9  C   UNL     1       7.143   4.380  15.339  0.00  0.00    +0.000 C 
ATOM     10  N   UNL     1       6.776   5.617  14.650  0.00  0.00    +0.000 NA
ATOM     11  C   UNL     1       5.991   6.500  15.511  0.00  0.00    +0.000 C 
ATOM     12  C   UNL     1       4.735   5.812  16.057  0.00  0.00    +0.000 C 
ATOM     13  C   UNL     1       3.743   3.754  17.195  0.00  0.00    +0.000 C 
ATOM     14  H   UNL     1       6.228   5.386  13.819  0.00  0.00    +0.000 HD
BRANCH   4  15
ATOM     15  C   UNL     1       4.203   2.099  19.088  0.00  0.00    +0.000 C 
ATOM     16  O   UNL     1       3.813   1.090  18.497  0.00  0.00    +0.000 OA
ATOM     17  N   UNL     1       5.122   1.982  20.117  0.00  0.00    +0.000 N 
ATOM     18  H   UNL     1       5.182   2.678  20.866  0.00  0.00    +0.000 HD
BRANCH  17  19
ATOM     19  O   UNL     1       5.441   0.657  20.488  0.00  0.00    +0.000 OA
ATOM     20  H   UNL     1       5.344   0.666  21.465  0.00  0.00    +0.000 HD
ENDBRANCH  17  19
ENDBRANCH   4  15
ENDBRANCH   1   4
BRANCH   1  24
ATOM     21  C   UNL     1       1.670   8.326  19.875  0.00  0.00    +0.000 A 
ATOM     22  C   UNL     1       1.466   7.484  20.976  0.00  0.00    +0.000 A 
ATOM     23  C   UNL     1       1.619   6.101  20.860  0.00  0.00    +0.000 A 
ATOM     24  C   UNL     1       1.957   5.554  19.623  0.00  0.00    +0.000 A 
ATOM     25  C   UNL     1       2.206   6.387  18.528  0.00  0.00    +0.000 A 
ATOM     26  C   UNL     1       2.028   7.772  18.647  0.00  0.00    +0.000 A 
BRANCH  21  27
ATOM     27  O   UNL     1       1.438   9.660  20.131  0.00  0.00    +0.000 OA
BRANCH  27  33
ATOM     28  C   UNL     1      -0.449  11.157  20.696  0.00  0.00    +0.000 A 
ATOM     29  C   UNL     1      -1.289  11.618  21.718  0.00  0.00    +0.000 A 
ATOM     30  C   UNL     1      -1.267  11.042  22.991  0.00  0.00    +0.000 A 
ATOM     31  C   UNL     1      -0.399   9.992  23.256  0.00  0.00    +0.000 A 
ATOM     32  C   UNL     1       0.456   9.530  22.258  0.00  0.00    +0.000 A 
ATOM     33  C   UNL     1       0.439  10.097  20.968  0.00  0.00    +0.000 A 
BRANCH  28  35
ATOM     34  C   UNL     1      -1.367  12.766  19.231  0.00  0.00    +0.000 C 
ATOM     35  O   UNL     1      -0.398  11.744  19.457  0.00  0.00    +0.000 OA
ENDBRANCH  28  35
ENDBRANCH  27  33
ENDBRANCH  21  27
ENDBRANCH   1  24
TORSDOF 7
ENDMDL
MODEL 7
REMARK VINA RESULT:      -8.2      1.158      1.371
REMARK  Name = 
REMARK  8 active torsions:
REMARK  status: ('A' for Active; 'I' for Inactive)
REMARK    1  A    between atoms: C_1  and  O_2
REMARK    2  A    between atoms: O_2  and  C_3
REMARK    3  A    between atoms: C_8  and  O_9
REMARK    4  A    between atoms: O_9  and  C_10
REMARK    5  A    between atoms: C_13  and  S_14
REMARK    6  A    between atoms: S_14  and  C_17
REMARK    7  A    between atoms: C_17  and  C_18
REMARK    8  A    between atoms: N_20  and  O_21
REMARK                            x       y       z     vdW  Elec       q    Type
REMARK                         _______ _______ _______ _____ _____    ______ ____
ROOT
ATOM      1  S   UNL     1       1.947   4.272  19.393  0.00  0.00    +0.000 S 
ATOM      2  O   UNL     1       1.662   3.701  20.701  0.00  0.00    +0.000 OA
ATOM      3  O   UNL     1       1.134   3.876  18.254  0.00  0.00    +0.000 OA
ENDROOT
BRANCH   1   4
ATOM      4  C   UNL     1       3.664   3.944  18.982  0.00  0.00    +0.000 C 
ATOM      5  C   UNL     1       4.586   4.862  19.795  0.00  0.00    +0.000 C 
ATOM      6  C   UNL     1       5.825   5.081  18.938  0.00  0.00    +0.000 C 
ATOM      7  C   UNL     1       5.377   4.978  17.467  0.00  0.00    +0.000 C 
ATOM      8  C   UNL     1       6.370   4.133  16.637  0.00  0.00    +0.000 C 
ATOM      9  C   UNL     1       7.720   4.835  16.458  0.00  0.00    +0.000 C 
ATOM     10  N   UNL     1       7.571   6.144  15.822  0.00  0.00    +0.000 NA
ATOM     11  C   UNL     1       6.669   7.010  16.581  0.00  0.00    +0.000 C 
ATOM     12  C   UNL     1       5.292   6.371  16.794  0.00  0.00    +0.000 C 
ATOM     13  C   UNL     1       3.978   4.305  17.512  0.00  0.00    +0.000 C 
ATOM     14  H   UNL     1       7.199   6.018  14.880  0.00  0.00    +0.000 HD
BRANCH   4  15
ATOM     15  C   UNL     1       3.943   2.480  19.302  0.00  0.00    +0.000 C 
ATOM     16  O   UNL     1       4.674   2.112  20.226  0.00  0.00    +0.000 OA
ATOM     17  N   UNL     1       3.293   1.538  18.523  0.00  0.00    +0.000 N 
ATOM     18  H   UNL     1       3.012   1.740  17.559  0.00  0.00    +0.000 HD
BRANCH  17  19
ATOM     19  O   UNL     1       3.640   0.196  18.790  0.00  0.00    +0.000 OA
ATOM     20  H   UNL     1       3.702  -0.205  17.895  0.00  0.00    +0.000 HD
ENDBRANCH  17  19
ENDBRANCH   4  15
ENDBRANCH   1   4
BRANCH   1  24
ATOM     21  C   UNL     1       1.542   8.816  19.842  0.00  0.00    +0.000 A 
ATOM     22  C   UNL     1       1.909   8.252  18.614  0.00  0.00    +0.000 A 
ATOM     23  C   UNL     1       2.025   6.868  18.465  0.00  0.00    +0.000 A 
ATOM     24  C   UNL     1       1.794   6.043  19.565  0.00  0.00    +0.000 A 
ATOM     25  C   UNL     1       1.384   6.591  20.784  0.00  0.00    +0.000 A 
ATOM     26  C   UNL     1       1.293   7.982  20.931  0.00  0.00    +0.000 A 
BRANCH  21  27
ATOM     27  O   UNL     1       1.514  10.193  19.847  0.00  0.00    +0.000 OA
BRANCH  27  33
ATOM     28  C   UNL     1      -0.382  11.310  20.982  0.00  0.00    +0.000 A 
ATOM     29  C   UNL     1      -1.655  11.872  20.817  0.00  0.00    +0.000 A 
ATOM     30  C   UNL     1      -2.209  12.056  19.547  0.00  0.00    +0.000 A 
ATOM     31  C   UNL     1      -1.490  11.677  18.422  0.00  0.00    +0.000 A 
ATOM     32  C   UNL     1      -0.230  11.100  18.564  0.00  0.00    +0.000 A 
ATOM     33  C   UNL     1       0.343  10.916  19.838  0.00  0.00    +0.000 A 
BRANCH  28  35
ATOM     34  C   UNL     1      -0.695  10.366  23.123  0.00  0.00    +0.000 C 
ATOM     35  O   UNL     1       0.162  11.054  22.215  0.00  0.00    +0.000 OA
ENDBRANCH  28  35
ENDBRANCH  27  33
ENDBRANCH  21  27
ENDBRANCH   1  24
TORSDOF 7
ENDMDL
MODEL 8
REMARK VINA RESULT:      -8.0      5.087      7.336
REMARK  Name = 
REMARK  8 active torsions:
REMARK  status: ('A' for Active; 'I' for Inactive)
REMARK    1  A    between atoms: C_1  and  O_2
REMARK    2  A    between atoms: O_2  and  C_3
REMARK    3  A    between atoms: C_8  and  O_9
REMARK    4  A    between atoms: O_9  and  C_10
REMARK    5  A    between atoms: C_13  and  S_14
REMARK    6  A    between atoms: S_14  and  C_17
REMARK    7  A    between atoms: C_17  and  C_18
REMARK    8  A    between atoms: N_20  and  O_21
REMARK                            x       y       z     vdW  Elec       q    Type
REMARK                         _______ _______ _______ _____ _____    ______ ____
ROOT
ATOM      1  S   UNL     1       7.242   5.072  18.270  0.00  0.00    +0.000 S 
ATOM      2  O   UNL     1       8.139   4.416  17.329  0.00  0.00    +0.000 OA
ATOM      3  O   UNL     1       7.275   4.684  19.670  0.00  0.00    +0.000 OA
ENDROOT
BRANCH   1   4
ATOM      4  C   UNL     1       5.554   4.879  17.686  0.00  0.00    +0.000 C 
ATOM      5  C   UNL     1       4.721   6.112  18.062  0.00  0.00    +0.000 C 
ATOM      6  C   UNL     1       3.291   5.618  18.233  0.00  0.00    +0.000 C 
ATOM      7  C   UNL     1       3.376   4.151  18.700  0.00  0.00    +0.000 C 
ATOM      8  C   UNL     1       2.362   3.264  17.942  0.00  0.00    +0.000 C 
ATOM      9  C   UNL     1       0.914   3.583  18.323  0.00  0.00    +0.000 C 
ATOM     10  N   UNL     1       0.685   3.435  19.760  0.00  0.00    +0.000 NA
ATOM     11  C   UNL     1       1.590   4.281  20.538  0.00  0.00    +0.000 C 
ATOM     12  C   UNL     1       3.063   4.010  20.210  0.00  0.00    +0.000 C 
ATOM     13  C   UNL     1       4.834   3.710  18.398  0.00  0.00    +0.000 C 
ATOM     14  H   UNL     1       0.830   2.459  20.023  0.00  0.00    +0.000 HD
BRANCH   4  15
ATOM     15  C   UNL     1       5.606   4.704  16.173  0.00  0.00    +0.000 C 
ATOM     16  O   UNL     1       5.291   5.590  15.374  0.00  0.00    +0.000 OA
ATOM     17  N   UNL     1       6.077   3.490  15.703  0.00  0.00    +0.000 N 
ATOM     18  H   UNL     1       5.983   2.629  16.250  0.00  0.00    +0.000 HD
BRANCH  17  19
ATOM     19  O   UNL     1       6.031   3.332  14.300  0.00  0.00    +0.000 OA
ATOM     20  H   UNL     1       5.274   3.899  14.033  0.00  0.00    +0.000 HD
ENDBRANCH  17  19
ENDBRANCH   4  15
ENDBRANCH   1   4
BRANCH   1  24
ATOM     21  C   UNL     1       8.188   9.552  18.061  0.00  0.00    +0.000 A 
ATOM     22  C   UNL     1       8.806   8.738  19.018  0.00  0.00    +0.000 A 
ATOM     23  C   UNL     1       8.531   7.370  19.083  0.00  0.00    +0.000 A 
ATOM     24  C   UNL     1       7.610   6.818  18.194  0.00  0.00    +0.000 A 
ATOM     25  C   UNL     1       7.019   7.612  17.206  0.00  0.00    +0.000 A 
ATOM     26  C   UNL     1       7.283   8.988  17.163  0.00  0.00    +0.000 A 
BRANCH  21  27
ATOM     27  O   UNL     1       8.523  10.886  18.149  0.00  0.00    +0.000 OA
BRANCH  27  33
ATOM     28  C   UNL     1       9.901  11.791  19.995  0.00  0.00    +0.000 A 
ATOM     29  C   UNL     1      11.124  12.384  20.337  0.00  0.00    +0.000 A 
ATOM     30  C   UNL     1      12.157  12.509  19.404  0.00  0.00    +0.000 A 
ATOM     31  C   UNL     1      11.976  12.038  18.111  0.00  0.00    +0.000 A 
ATOM     32  C   UNL     1      10.762  11.461  17.745  0.00  0.00    +0.000 A 
ATOM     33  C   UNL     1       9.715  11.322  18.678  0.00  0.00    +0.000 A 
BRANCH  28  35
ATOM     34  C   UNL     1       9.063  12.326  22.136  0.00  0.00    +0.000 C 
ATOM     35  O   UNL     1       8.845  11.714  20.866  0.00  0.00    +0.000 OA
ENDBRANCH  28  35
ENDBRANCH  27  33
ENDBRANCH  21  27
ENDBRANCH   1  24
TORSDOF 7
ENDMDL
MODEL 9
REMARK VINA RESULT:      -8.0      0.962      1.094
REMARK  Name = 
REMARK  8 active torsions:
REMARK  status: ('A' for Active; 'I' for Inactive)
REMARK    1  A    between atoms: C_1  and  O_2
REMARK    2  A    between atoms: O_2  and  C_3
REMARK    3  A    between atoms: C_8  and  O_9
REMARK    4  A    between atoms: O_9  and  C_10
REMARK    5  A    between atoms: C_13  and  S_14
REMARK    6  A    between atoms: S_14  and  C_17
REMARK    7  A    between atoms: C_17  and  C_18
REMARK    8  A    between atoms: N_20  and  O_21
REMARK                            x       y       z     vdW  Elec       q    Type
REMARK                         _______ _______ _______ _____ _____    ______ ____
ROOT
ATOM      1  S   UNL     1       2.277   4.093  19.646  0.00  0.00    +0.000 S 
ATOM      2  O   UNL     1       2.421   3.802  21.065  0.00  0.00    +0.000 OA
ATOM      3  O   UNL     1       1.202   3.461  18.898  0.00  0.00    +0.000 OA
ENDROOT
BRANCH   1   4
ATOM      4  C   UNL     1       3.823   3.705  18.818  0.00  0.00    +0.000 C 
ATOM      5  C   UNL     1       4.928   4.661  19.288  0.00  0.00    +0.000 C 
ATOM      6  C   UNL     1       5.893   4.795  18.119  0.00  0.00    +0.000 C 
ATOM      7  C   UNL     1       5.069   4.597  16.831  0.00  0.00    +0.000 C 
ATOM      8  C   UNL     1       5.806   3.678  15.831  0.00  0.00    +0.000 C 
ATOM      9  C   UNL     1       7.058   4.340  15.249  0.00  0.00    +0.000 C 
ATOM     10  N   UNL     1       6.744   5.604  14.582  0.00  0.00    +0.000 NA
ATOM     11  C   UNL     1       6.077   6.538  15.487  0.00  0.00    +0.000 C 
ATOM     12  C   UNL     1       4.807   5.940  16.105  0.00  0.00    +0.000 C 
ATOM     13  C   UNL     1       3.734   3.955  17.296  0.00  0.00    +0.000 C 
ATOM     14  H   UNL     1       6.135   5.418  13.784  0.00  0.00    +0.000 HD
BRANCH   4  15
ATOM     15  C   UNL     1       4.179   2.262  19.159  0.00  0.00    +0.000 C 
ATOM     16  O   UNL     1       3.705   1.287  18.570  0.00  0.00    +0.000 OA
ATOM     17  N   UNL     1       5.118   2.072  20.158  0.00  0.00    +0.000 N 
ATOM     18  H   UNL     1       5.247   2.754  20.911  0.00  0.00    +0.000 HD
BRANCH  17  19
ATOM     19  O   UNL     1       5.359   0.725  20.506  0.00  0.00    +0.000 OA
ATOM     20  H   UNL     1       6.262   0.749  20.893  0.00  0.00    +0.000 HD
ENDBRANCH  17  19
ENDBRANCH   4  15
ENDBRANCH   1   4
BRANCH   1  24
ATOM     21  C   UNL     1       1.695   8.626  19.297  0.00  0.00    +0.000 A 
ATOM     22  C   UNL     1       1.907   7.846  18.154  0.00  0.00    +0.000 A 
ATOM     23  C   UNL     1       2.076   6.462  18.249  0.00  0.00    +0.000 A 
ATOM     24  C   UNL     1       2.054   5.859  19.507  0.00  0.00    +0.000 A 
ATOM     25  C   UNL     1       1.799   6.621  20.651  0.00  0.00    +0.000 A 
ATOM     26  C   UNL     1       1.655   8.012  20.547  0.00  0.00    +0.000 A 
BRANCH  21  27
ATOM     27  O   UNL     1       1.592   9.978  19.050  0.00  0.00    +0.000 OA
BRANCH  27  33
ATOM     28  C   UNL     1       1.235  12.182  20.117  0.00  0.00    +0.000 A 
ATOM     29  C   UNL     1       0.550  12.879  21.122  0.00  0.00    +0.000 A 
ATOM     30  C   UNL     1      -0.461  12.269  21.870  0.00  0.00    +0.000 A 
ATOM     31  C   UNL     1      -0.799  10.947  21.618  0.00  0.00    +0.000 A 
ATOM     32  C   UNL     1      -0.120  10.230  20.635  0.00  0.00    +0.000 A 
ATOM     33  C   UNL     1       0.896  10.835  19.869  0.00  0.00    +0.000 A 
BRANCH  28  35
ATOM     34  C   UNL     1       1.919  13.801  18.542  0.00  0.00    +0.000 C 
ATOM     35  O   UNL     1       2.276  12.730  19.412  0.00  0.00    +0.000 OA
ENDBRANCH  28  35
ENDBRANCH  27  33
ENDBRANCH  21  27
ENDBRANCH   1  24
TORSDOF 7
ENDMDL
