MODEL 1
REMARK VINA RESULT:      -7.9      0.000      0.000
REMARK  Name = 
REMARK  5 active torsions:
REMARK  status: ('A' for Active; 'I' for Inactive)
REMARK    1  A    between atoms: C_1  and  O_2
REMARK    2  A    between atoms: O_2  and  C_3
REMARK    3  A    between atoms: C_8  and  C_9
REMARK    4  A    between atoms: N_29  and  C_30
REMARK    5  A    between atoms: N_29  and  C_31
REMARK                            x       y       z     vdW  Elec       q    Type
REMARK                         _______ _______ _______ _____ _____    ______ ____
ROOT
ATOM      1  C   UNL     1       0.529  15.102  19.914  0.00  0.00    +0.000 C 
ATOM      2  O   UNL     1       0.379  15.410  21.092  0.00  0.00    +0.000 OA
ATOM      3  N   UNL     1       0.618  13.750  19.519  0.00  0.00    +0.000 N 
ATOM      4  C   UNL     1       0.616  13.237  18.155  0.00  0.00    +0.000 C 
ATOM      5  C   UNL     1       1.478  11.986  18.022  0.00  0.00    +0.000 C 
ATOM      6  C   UNL     1       1.154  10.936  19.054  0.00  0.00    +0.000 A 
ATOM      7  N   UNL     1       1.549   9.663  18.746  0.00  0.00    +0.000 NA
ATOM      8  C   UNL     1       1.359   8.729  19.679  0.00  0.00    +0.000 A 
ATOM      9  N   UNL     1       1.797   7.426  19.501  0.00  0.00    +0.000 N 
ATOM     10  C   UNL     1       1.915   6.641  20.734  0.00  0.00    +0.000 C 
ATOM     11  C   UNL     1       3.149   5.736  20.649  0.00  0.00    +0.000 C 
ATOM     12  C   UNL     1       2.752   4.706  19.633  0.00  0.00    +0.000 A 
ATOM     13  C   UNL     1       2.674   3.354  19.989  0.00  0.00    +0.000 A 
ATOM     14  C   UNL     1       2.019   2.473  19.146  0.00  0.00    +0.000 A 
ATOM     15  C   UNL     1       1.491   2.935  17.940  0.00  0.00    +0.000 A 
ATOM     16  C   UNL     1       1.600   4.295  17.564  0.00  0.00    +0.000 A 
ATOM     17  C   UNL     1       2.211   5.213  18.427  0.00  0.00    +0.000 A 
ATOM     18  C   UNL     1       2.234   6.762  18.247  0.00  0.00    +0.000 C 
ATOM     19  N   UNL     1       0.756   9.041  20.858  0.00  0.00    +0.000 NA
ATOM     20  C   UNL     1       0.315  10.292  21.159  0.00  0.00    +0.000 A 
ATOM     21  N   UNL     1      -0.335  10.456  22.374  0.00  0.00    +0.000 N 
ATOM     22  C   UNL     1       0.025   9.610  23.504  0.00  0.00    +0.000 C 
ATOM     23  C   UNL     1      -1.399  11.410  22.657  0.00  0.00    +0.000 C 
ATOM     24  C   UNL     1       0.546  11.317  20.251  0.00  0.00    +0.000 A 
ATOM     25  C   UNL     1       0.202  12.763  20.527  0.00  0.00    +0.000 C 
ENDROOT
BRANCH   1  31
ATOM     26  C   UNL     1       1.897  16.639  18.374  0.00  0.00    +0.000 A 
ATOM     27  C   UNL     1       1.908  17.715  17.470  0.00  0.00    +0.000 A 
ATOM     28  C   UNL     1       0.716  18.297  17.036  0.00  0.00    +0.000 A 
ATOM     29  C   UNL     1      -0.501  17.823  17.509  0.00  0.00    +0.000 A 
ATOM     30  C   UNL     1      -0.518  16.807  18.473  0.00  0.00    +0.000 A 
ATOM     31  C   UNL     1       0.679  16.236  18.938  0.00  0.00    +0.000 A 
BRANCH  26  33
ATOM     32  C   UNL     1       3.728  15.295  17.663  0.00  0.00    +0.000 C 
ATOM     33  O   UNL     1       3.026  15.942  18.717  0.00  0.00    +0.000 OA
ENDBRANCH  26  33
ENDBRANCH   1  31
TORSDOF 2
ENDMDL
MODEL 2
REMARK VINA RESULT:      -7.4      0.778      1.627
REMARK  Name = 
REMARK  5 active torsions:
REMARK  status: ('A' for Active; 'I' for Inactive)
REMARK    1  A    between atoms: C_1  and  O_2
REMARK    2  A    between atoms: O_2  and  C_3
REMARK    3  A    between atoms: C_8  and  C_9
REMARK    4  A    between atoms: N_29  and  C_30
REMARK    5  A    between atoms: N_29  and  C_31
REMARK                            x       y       z     vdW  Elec       q    Type
REMARK                         _______ _______ _______ _____ _____    ______ ____
ROOT
ATOM      1  C   UNL     1       0.870  14.826  19.802  0.00  0.00    +0.000 C 
ATOM      2  O   UNL     1       0.724  15.164  20.972  0.00  0.00    +0.000 OA
ATOM      3  N   UNL     1       0.909  13.464  19.435  0.00  0.00    +0.000 N 
ATOM      4  C   UNL     1       0.897  12.923  18.082  0.00  0.00    +0.000 C 
ATOM      5  C   UNL     1       1.710  11.637  17.982  0.00  0.00    +0.000 C 
ATOM      6  C   UNL     1       1.335  10.622  19.032  0.00  0.00    +0.000 A 
ATOM      7  N   UNL     1       1.681   9.328  18.754  0.00  0.00    +0.000 NA
ATOM      8  C   UNL     1       1.445   8.422  19.704  0.00  0.00    +0.000 A 
ATOM      9  N   UNL     1       1.832   7.099  19.557  0.00  0.00    +0.000 N 
ATOM     10  C   UNL     1       1.909   6.336  20.806  0.00  0.00    +0.000 C 
ATOM     11  C   UNL     1       3.106   5.381  20.751  0.00  0.00    +0.000 C 
ATOM     12  C   UNL     1       2.677   4.346  19.752  0.00  0.00    +0.000 A 
ATOM     13  C   UNL     1       2.541   3.007  20.135  0.00  0.00    +0.000 A 
ATOM     14  C   UNL     1       1.858   2.135  19.305  0.00  0.00    +0.000 A 
ATOM     15  C   UNL     1       1.360   2.592  18.084  0.00  0.00    +0.000 A 
ATOM     16  C   UNL     1       1.526   3.939  17.683  0.00  0.00    +0.000 A 
ATOM     17  C   UNL     1       2.166   4.850  18.532  0.00  0.00    +0.000 A 
ATOM     18  C   UNL     1       2.253   6.393  18.320  0.00  0.00    +0.000 C 
ATOM     19  N   UNL     1       0.846   8.782  20.871  0.00  0.00    +0.000 NA
ATOM     20  C   UNL     1       0.453  10.056  21.142  0.00  0.00    +0.000 A 
ATOM     21  N   UNL     1      -0.199  10.271  22.347  0.00  0.00    +0.000 N 
ATOM     22  C   UNL     1       0.116   9.435  23.498  0.00  0.00    +0.000 C 
ATOM     23  C   UNL     1      -1.227  11.272  22.602  0.00  0.00    +0.000 C 
ATOM     24  C   UNL     1       0.733  11.052  20.216  0.00  0.00    +0.000 A 
ATOM     25  C   UNL     1       0.445  12.516  20.459  0.00  0.00    +0.000 C 
ENDROOT
BRANCH   1  31
ATOM     26  C   UNL     1       0.090  16.865  18.445  0.00  0.00    +0.000 A 
ATOM     27  C   UNL     1       0.403  17.857  17.500  0.00  0.00    +0.000 A 
ATOM     28  C   UNL     1       1.704  18.001  17.017  0.00  0.00    +0.000 A 
ATOM     29  C   UNL     1       2.707  17.147  17.459  0.00  0.00    +0.000 A 
ATOM     30  C   UNL     1       2.387  16.104  18.336  0.00  0.00    +0.000 A 
ATOM     31  C   UNL     1       1.074  15.934  18.804  0.00  0.00    +0.000 A 
BRANCH  26  33
ATOM     32  C   UNL     1      -1.564  17.910  19.801  0.00  0.00    +0.000 C 
ATOM     33  O   UNL     1      -1.133  16.777  19.056  0.00  0.00    +0.000 OA
ENDBRANCH  26  33
ENDBRANCH   1  31
TORSDOF 2
ENDMDL
MODEL 3
REMARK VINA RESULT:      -6.9      3.652     10.097
REMARK  Name = 
REMARK  5 active torsions:
REMARK  status: ('A' for Active; 'I' for Inactive)
REMARK    1  A    between atoms: C_1  and  O_2
REMARK    2  A    between atoms: O_2  and  C_3
REMARK    3  A    between atoms: C_8  and  C_9
REMARK    4  A    between atoms: N_29  and  C_30
REMARK    5  A    between atoms: N_29  and  C_31
REMARK                            x       y       z     vdW  Elec       q    Type
REMARK                         _______ _______ _______ _____ _____    ______ ____
ROOT
ATOM      1  C   UNL     1       2.274   6.834  19.913  0.00  0.00    +0.000 C 
ATOM      2  O   UNL     1       3.318   7.225  19.399  0.00  0.00    +0.000 OA
ATOM      3  N   UNL     1       1.316   7.747  20.404  0.00  0.00    +0.000 N 
ATOM      4  C   UNL     1      -0.028   7.435  20.870  0.00  0.00    +0.000 C 
ATOM      5  C   UNL     1      -0.465   8.365  21.996  0.00  0.00    +0.000 C 
ATOM      6  C   UNL     1      -0.274   9.823  21.661  0.00  0.00    +0.000 A 
ATOM      7  N   UNL     1      -1.019  10.702  22.399  0.00  0.00    +0.000 NA
ATOM      8  C   UNL     1      -0.804  12.001  22.189  0.00  0.00    +0.000 A 
ATOM      9  N   UNL     1      -1.446  12.973  22.941  0.00  0.00    +0.000 N 
ATOM     10  C   UNL     1      -0.812  14.294  22.910  0.00  0.00    +0.000 C 
ATOM     11  C   UNL     1      -0.912  14.943  24.295  0.00  0.00    +0.000 C 
ATOM     12  C   UNL     1      -2.371  15.274  24.417  0.00  0.00    +0.000 A 
ATOM     13  C   UNL     1      -2.786  16.603  24.556  0.00  0.00    +0.000 A 
ATOM     14  C   UNL     1      -4.120  16.917  24.357  0.00  0.00    +0.000 A 
ATOM     15  C   UNL     1      -5.032  15.901  24.069  0.00  0.00    +0.000 A 
ATOM     16  C   UNL     1      -4.617  14.552  23.962  0.00  0.00    +0.000 A 
ATOM     17  C   UNL     1      -3.264  14.221  24.106  0.00  0.00    +0.000 A 
ATOM     18  C   UNL     1      -2.630  12.824  23.825  0.00  0.00    +0.000 C 
ATOM     19  N   UNL     1       0.088  12.412  21.248  0.00  0.00    +0.000 NA
ATOM     20  C   UNL     1       0.801  11.550  20.474  0.00  0.00    +0.000 A 
ATOM     21  N   UNL     1       1.633  12.107  19.513  0.00  0.00    +0.000 N 
ATOM     22  C   UNL     1       2.236  13.412  19.749  0.00  0.00    +0.000 C 
ATOM     23  C   UNL     1       1.973  11.517  18.225  0.00  0.00    +0.000 C 
ATOM     24  C   UNL     1       0.666  10.186  20.695  0.00  0.00    +0.000 A 
ATOM     25  C   UNL     1       1.489   9.143  19.975  0.00  0.00    +0.000 C 
ENDROOT
BRANCH   1  31
ATOM     26  C   UNL     1       2.150   4.443  18.979  0.00  0.00    +0.000 A 
ATOM     27  C   UNL     1       1.985   3.071  19.235  0.00  0.00    +0.000 A 
ATOM     28  C   UNL     1       1.913   2.591  20.544  0.00  0.00    +0.000 A 
ATOM     29  C   UNL     1       1.987   3.476  21.612  0.00  0.00    +0.000 A 
ATOM     30  C   UNL     1       2.066   4.852  21.365  0.00  0.00    +0.000 A 
ATOM     31  C   UNL     1       2.111   5.345  20.050  0.00  0.00    +0.000 A 
BRANCH  26  33
ATOM     32  C   UNL     1       3.593   4.581  17.090  0.00  0.00    +0.000 C 
ATOM     33  O   UNL     1       2.372   4.945  17.723  0.00  0.00    +0.000 OA
ENDBRANCH  26  33
ENDBRANCH   1  31
TORSDOF 2
ENDMDL
MODEL 4
REMARK VINA RESULT:      -6.7      2.936      9.656
REMARK  Name = 
REMARK  5 active torsions:
REMARK  status: ('A' for Active; 'I' for Inactive)
REMARK    1  A    between atoms: C_1  and  O_2
REMARK    2  A    between atoms: O_2  and  C_3
REMARK    3  A    between atoms: C_8  and  C_9
REMARK    4  A    between atoms: N_29  and  C_30
REMARK    5  A    between atoms: N_29  and  C_31
REMARK                            x       y       z     vdW  Elec       q    Type
REMARK                         _______ _______ _______ _____ _____    ______ ____
ROOT
ATOM      1  C   UNL     1       1.804   5.723  19.812  0.00  0.00    +0.000 C 
ATOM      2  O   UNL     1       1.119   5.250  20.714  0.00  0.00    +0.000 OA
ATOM      3  N   UNL     1       1.885   7.118  19.612  0.00  0.00    +0.000 N 
ATOM      4  C   UNL     1       2.786   7.820  18.709  0.00  0.00    +0.000 C 
ATOM      5  C   UNL     1       2.145   9.080  18.139  0.00  0.00    +0.000 C 
ATOM      6  C   UNL     1       1.554   9.971  19.202  0.00  0.00    +0.000 A 
ATOM      7  N   UNL     1       1.364  11.277  18.841  0.00  0.00    +0.000 NA
ATOM      8  C   UNL     1       0.758  12.068  19.728  0.00  0.00    +0.000 A 
ATOM      9  N   UNL     1       0.444  13.385  19.430  0.00  0.00    +0.000 N 
ATOM     10  C   UNL     1      -0.575  13.986  20.295  0.00  0.00    +0.000 C 
ATOM     11  C   UNL     1      -1.481  14.899  19.462  0.00  0.00    +0.000 C 
ATOM     12  C   UNL     1      -0.591  16.062  19.134  0.00  0.00    +0.000 A 
ATOM     13  C   UNL     1      -0.914  17.349  19.580  0.00  0.00    +0.000 A 
ATOM     14  C   UNL     1       0.052  18.339  19.541  0.00  0.00    +0.000 A 
ATOM     15  C   UNL     1       1.313  18.051  19.015  0.00  0.00    +0.000 A 
ATOM     16  C   UNL     1       1.629  16.758  18.533  0.00  0.00    +0.000 A 
ATOM     17  C   UNL     1       0.683  15.730  18.615  0.00  0.00    +0.000 A 
ATOM     18  C   UNL     1       0.943  14.222  18.310  0.00  0.00    +0.000 C 
ATOM     19  N   UNL     1       0.396  11.589  20.948  0.00  0.00    +0.000 NA
ATOM     20  C   UNL     1       0.621  10.305  21.339  0.00  0.00    +0.000 A 
ATOM     21  N   UNL     1       0.252   9.967  22.633  0.00  0.00    +0.000 N 
ATOM     22  C   UNL     1      -0.873  10.645  23.263  0.00  0.00    +0.000 C 
ATOM     23  C   UNL     1       0.904   8.978  23.482  0.00  0.00    +0.000 C 
ATOM     24  C   UNL     1       1.189   9.421  20.432  0.00  0.00    +0.000 A 
ATOM     25  C   UNL     1       1.382   7.949  20.717  0.00  0.00    +0.000 C 
ENDROOT
BRANCH   1  31
ATOM     26  C   UNL     1       3.876   4.556  18.837  0.00  0.00    +0.000 A 
ATOM     27  C   UNL     1       4.396   3.602  17.945  0.00  0.00    +0.000 A 
ATOM     28  C   UNL     1       3.549   2.757  17.226  0.00  0.00    +0.000 A 
ATOM     29  C   UNL     1       2.173   2.863  17.376  0.00  0.00    +0.000 A 
ATOM     30  C   UNL     1       1.643   3.866  18.198  0.00  0.00    +0.000 A 
ATOM     31  C   UNL     1       2.488   4.740  18.902  0.00  0.00    +0.000 A 
BRANCH  26  33
ATOM     32  C   UNL     1       6.002   5.544  19.248  0.00  0.00    +0.000 C 
ATOM     33  O   UNL     1       4.665   5.306  19.670  0.00  0.00    +0.000 OA
ENDBRANCH  26  33
ENDBRANCH   1  31
TORSDOF 2
ENDMDL
MODEL 5
REMARK VINA RESULT:      -6.5      2.990      4.975
REMARK  Name = 
REMARK  5 active torsions:
REMARK  status: ('A' for Active; 'I' for Inactive)
REMARK    1  A    between atoms: C_1  and  O_2
REMARK    2  A    between atoms: O_2  and  C_3
REMARK    3  A    between atoms: C_8  and  C_9
REMARK    4  A    between atoms: N_29  and  C_30
REMARK    5  A    between atoms: N_29  and  C_31
REMARK                            x       y       z     vdW  Elec       q    Type
REMARK                         _______ _______ _______ _____ _____    ______ ____
ROOT
ATOM      1  C   UNL     1      -1.361  12.555  21.801  0.00  0.00    +0.000 C 
ATOM      2  O   UNL     1      -1.393  13.245  20.786  0.00  0.00    +0.000 OA
ATOM      3  N   UNL     1      -0.697  11.310  21.816  0.00  0.00    +0.000 N 
ATOM      4  C   UNL     1      -0.427  10.478  22.981  0.00  0.00    +0.000 C 
ATOM      5  C   UNL     1      -0.463   8.993  22.635  0.00  0.00    +0.000 C 
ATOM      6  C   UNL     1       0.395   8.648  21.444  0.00  0.00    +0.000 A 
ATOM      7  N   UNL     1       0.761   7.333  21.341  0.00  0.00    +0.000 NA
ATOM      8  C   UNL     1       1.442   6.979  20.250  0.00  0.00    +0.000 A 
ATOM      9  N   UNL     1       1.789   5.659  20.009  0.00  0.00    +0.000 N 
ATOM     10  C   UNL     1       2.133   5.356  18.617  0.00  0.00    +0.000 C 
ATOM     11  C   UNL     1       1.598   3.969  18.246  0.00  0.00    +0.000 C 
ATOM     12  C   UNL     1       2.485   3.039  19.020  0.00  0.00    +0.000 A 
ATOM     13  C   UNL     1       3.296   2.114  18.351  0.00  0.00    +0.000 A 
ATOM     14  C   UNL     1       4.319   1.490  19.044  0.00  0.00    +0.000 A 
ATOM     15  C   UNL     1       4.495   1.757  20.402  0.00  0.00    +0.000 A 
ATOM     16  C   UNL     1       3.653   2.666  21.086  0.00  0.00    +0.000 A 
ATOM     17  C   UNL     1       2.647   3.348  20.391  0.00  0.00    +0.000 A 
ATOM     18  C   UNL     1       1.776   4.513  20.954  0.00  0.00    +0.000 C 
ATOM     19  N   UNL     1       1.786   7.907  19.318  0.00  0.00    +0.000 NA
ATOM     20  C   UNL     1       1.471   9.226  19.430  0.00  0.00    +0.000 A 
ATOM     21  N   UNL     1       1.935  10.072  18.433  0.00  0.00    +0.000 N 
ATOM     22  C   UNL     1       2.111   9.563  17.079  0.00  0.00    +0.000 C 
ATOM     23  C   UNL     1       2.305  11.471  18.597  0.00  0.00    +0.000 C 
ATOM     24  C   UNL     1       0.706   9.639  20.512  0.00  0.00    +0.000 A 
ATOM     25  C   UNL     1       0.202  11.054  20.680  0.00  0.00    +0.000 C 
ENDROOT
BRANCH   1  31
ATOM     26  C   UNL     1      -1.665  14.104  23.829  0.00  0.00    +0.000 A 
ATOM     27  C   UNL     1      -2.467  14.506  24.911  0.00  0.00    +0.000 A 
ATOM     28  C   UNL     1      -3.751  13.987  25.082  0.00  0.00    +0.000 A 
ATOM     29  C   UNL     1      -4.246  13.050  24.184  0.00  0.00    +0.000 A 
ATOM     30  C   UNL     1      -3.423  12.582  23.152  0.00  0.00    +0.000 A 
ATOM     31  C   UNL     1      -2.119  13.077  22.991  0.00  0.00    +0.000 A 
BRANCH  26  33
ATOM     32  C   UNL     1      -0.496  16.017  23.029  0.00  0.00    +0.000 C 
ATOM     33  O   UNL     1      -0.461  14.689  23.537  0.00  0.00    +0.000 OA
ENDBRANCH  26  33
ENDBRANCH   1  31
TORSDOF 2
ENDMDL
MODEL 6
REMARK VINA RESULT:      -6.5      6.509     10.177
REMARK  Name = 
REMARK  5 active torsions:
REMARK  status: ('A' for Active; 'I' for Inactive)
REMARK    1  A    between atoms: C_1  and  O_2
REMARK    2  A    between atoms: O_2  and  C_3
REMARK    3  A    between atoms: C_8  and  C_9
REMARK    4  A    between atoms: N_29  and  C_30
REMARK    5  A    between atoms: N_29  and  C_31
REMARK                            x       y       z     vdW  Elec       q    Type
REMARK                         _______ _______ _______ _____ _____    ______ ____
ROOT
ATOM      1  C   UNL     1       9.165  14.506  19.872  0.00  0.00    +0.000 C 
ATOM      2  O   UNL     1       9.534  14.457  21.042  0.00  0.00    +0.000 OA
ATOM      3  N   UNL     1       7.883  14.990  19.532  0.00  0.00    +0.000 N 
ATOM      4  C   UNL     1       7.383  15.270  18.192  0.00  0.00    +0.000 C 
ATOM      5  C   UNL     1       5.888  14.993  18.079  0.00  0.00    +0.000 C 
ATOM      6  C   UNL     1       5.083  15.658  19.166  0.00  0.00    +0.000 A 
ATOM      7  N   UNL     1       3.752  15.826  18.898  0.00  0.00    +0.000 NA
ATOM      8  C   UNL     1       2.997  16.327  19.876  0.00  0.00    +0.000 A 
ATOM      9  N   UNL     1       1.624  16.461  19.737  0.00  0.00    +0.000 N 
ATOM     10  C   UNL     1       0.887  16.604  20.996  0.00  0.00    +0.000 C 
ATOM     11  C   UNL     1      -0.441  15.845  20.903  0.00  0.00    +0.000 C 
ATOM     12  C   UNL     1      -1.246  16.676  19.947  0.00  0.00    +0.000 A 
ATOM     13  C   UNL     1      -2.442  17.273  20.363  0.00  0.00    +0.000 A 
ATOM     14  C   UNL     1      -3.003  18.271  19.584  0.00  0.00    +0.000 A 
ATOM     15  C   UNL     1      -2.395  18.630  18.380  0.00  0.00    +0.000 A 
ATOM     16  C   UNL     1      -1.204  18.003  17.944  0.00  0.00    +0.000 A 
ATOM     17  C   UNL     1      -0.592  17.030  18.743  0.00  0.00    +0.000 A 
ATOM     18  C   UNL     1       0.812  16.394  18.496  0.00  0.00    +0.000 C 
ATOM     19  N   UNL     1       3.553  16.690  21.063  0.00  0.00    +0.000 NA
ATOM     20  C   UNL     1       4.882  16.574  21.327  0.00  0.00    +0.000 A 
ATOM     21  N   UNL     1       5.323  17.037  22.558  0.00  0.00    +0.000 N 
ATOM     22  C   UNL     1       4.431  16.990  23.709  0.00  0.00    +0.000 C 
ATOM     23  C   UNL     1       6.632  17.611  22.842  0.00  0.00    +0.000 C 
ATOM     24  C   UNL     1       5.705  15.997  20.369  0.00  0.00    +0.000 A 
ATOM     25  C   UNL     1       7.172  15.715  20.596  0.00  0.00    +0.000 C 
ENDROOT
BRANCH   1  31
ATOM     26  C   UNL     1      10.156  12.626  18.428  0.00  0.00    +0.000 A 
ATOM     27  C   UNL     1      11.094  12.240  17.456  0.00  0.00    +0.000 A 
ATOM     28  C   UNL     1      11.894  13.188  16.816  0.00  0.00    +0.000 A 
ATOM     29  C   UNL     1      11.777  14.532  17.148  0.00  0.00    +0.000 A 
ATOM     30  C   UNL     1      10.905  14.916  18.174  0.00  0.00    +0.000 A 
ATOM     31  C   UNL     1      10.119  13.964  18.844  0.00  0.00    +0.000 A 
BRANCH  26  33
ATOM     32  C   UNL     1       9.083  10.504  18.323  0.00  0.00    +0.000 C 
ATOM     33  O   UNL     1       9.251  11.756  18.977  0.00  0.00    +0.000 OA
ENDBRANCH  26  33
ENDBRANCH   1  31
TORSDOF 2
ENDMDL
MODEL 7
REMARK VINA RESULT:      -6.4      3.165      9.730
REMARK  Name = 
REMARK  5 active torsions:
REMARK  status: ('A' for Active; 'I' for Inactive)
REMARK    1  A    between atoms: C_1  and  O_2
REMARK    2  A    between atoms: O_2  and  C_3
REMARK    3  A    between atoms: C_8  and  C_9
REMARK    4  A    between atoms: N_29  and  C_30
REMARK    5  A    between atoms: N_29  and  C_31
REMARK                            x       y       z     vdW  Elec       q    Type
REMARK                         _______ _______ _______ _____ _____    ______ ____
ROOT
ATOM      1  C   UNL     1       2.170   6.095  19.416  0.00  0.00    +0.000 C 
ATOM      2  O   UNL     1       1.627   5.484  20.332  0.00  0.00    +0.000 OA
ATOM      3  N   UNL     1       2.047   7.497  19.301  0.00  0.00    +0.000 N 
ATOM      4  C   UNL     1       2.774   8.364  18.383  0.00  0.00    +0.000 C 
ATOM      5  C   UNL     1       1.927   9.552  17.940  0.00  0.00    +0.000 C 
ATOM      6  C   UNL     1       1.306  10.294  19.096  0.00  0.00    +0.000 A 
ATOM      7  N   UNL     1       0.915  11.579  18.833  0.00  0.00    +0.000 NA
ATOM      8  C   UNL     1       0.280  12.230  19.809  0.00  0.00    +0.000 A 
ATOM      9  N   UNL     1      -0.230  13.505  19.618  0.00  0.00    +0.000 N 
ATOM     10  C   UNL     1      -1.250  13.912  20.588  0.00  0.00    +0.000 C 
ATOM     11  C   UNL     1      -2.333  14.734  19.880  0.00  0.00    +0.000 C 
ATOM     12  C   UNL     1      -1.635  16.025  19.565  0.00  0.00    +0.000 A 
ATOM     13  C   UNL     1      -2.093  17.229  20.114  0.00  0.00    +0.000 A 
ATOM     14  C   UNL     1      -1.273  18.344  20.070  0.00  0.00    +0.000 A 
ATOM     15  C   UNL     1      -0.030  18.262  19.441  0.00  0.00    +0.000 A 
ATOM     16  C   UNL     1       0.418  17.053  18.857  0.00  0.00    +0.000 A 
ATOM     17  C   UNL     1      -0.372  15.900  18.938  0.00  0.00    +0.000 A 
ATOM     18  C   UNL     1       0.063  14.462  18.521  0.00  0.00    +0.000 C 
ATOM     19  N   UNL     1       0.081  11.640  21.018  0.00  0.00    +0.000 NA
ATOM     20  C   UNL     1       0.506  10.382  21.310  0.00  0.00    +0.000 A 
ATOM     21  N   UNL     1       0.287   9.927  22.603  0.00  0.00    +0.000 N 
ATOM     22  C   UNL     1      -0.867  10.408  23.352  0.00  0.00    +0.000 C 
ATOM     23  C   UNL     1       1.129   8.994  23.340  0.00  0.00    +0.000 C 
ATOM     24  C   UNL     1       1.114   9.634  20.311  0.00  0.00    +0.000 A 
ATOM     25  C   UNL     1       1.525   8.190  20.488  0.00  0.00    +0.000 C 
ENDROOT
BRANCH   1  31
ATOM     26  C   UNL     1       2.363   4.155  17.742  0.00  0.00    +0.000 A 
ATOM     27  C   UNL     1       3.152   3.461  16.809  0.00  0.00    +0.000 A 
ATOM     28  C   UNL     1       4.412   3.937  16.442  0.00  0.00    +0.000 A 
ATOM     29  C   UNL     1       4.906   5.103  17.013  0.00  0.00    +0.000 A 
ATOM     30  C   UNL     1       4.163   5.755  18.004  0.00  0.00    +0.000 A 
ATOM     31  C   UNL     1       2.907   5.266  18.400  0.00  0.00    +0.000 A 
BRANCH  26  33
ATOM     32  C   UNL     1       0.861   2.565  18.681  0.00  0.00    +0.000 C 
ATOM     33  O   UNL     1       1.067   3.810  18.025  0.00  0.00    +0.000 OA
ENDBRANCH  26  33
ENDBRANCH   1  31
TORSDOF 2
ENDMDL
MODEL 8
REMARK VINA RESULT:      -6.3      3.058      9.883
REMARK  Name = 
REMARK  5 active torsions:
REMARK  status: ('A' for Active; 'I' for Inactive)
REMARK    1  A    between atoms: C_1  and  O_2
REMARK    2  A    between atoms: O_2  and  C_3
REMARK    3  A    between atoms: C_8  and  C_9
REMARK    4  A    between atoms: N_29  and  C_30
REMARK    5  A    between atoms: N_29  and  C_31
REMARK                            x       y       z     vdW  Elec       q    Type
REMARK                         _______ _______ _______ _____ _____    ______ ____
ROOT
ATOM      1  C   UNL     1       1.472   5.444  20.005  0.00  0.00    +0.000 C 
ATOM      2  O   UNL     1       0.653   5.082  20.844  0.00  0.00    +0.000 OA
ATOM      3  N   UNL     1       1.718   6.813  19.768  0.00  0.00    +0.000 N 
ATOM      4  C   UNL     1       2.776   7.380  18.942  0.00  0.00    +0.000 C 
ATOM      5  C   UNL     1       2.332   8.673  18.266  0.00  0.00    +0.000 C 
ATOM      6  C   UNL     1       1.734   9.664  19.231  0.00  0.00    +0.000 A 
ATOM      7  N   UNL     1       1.720  10.966  18.808  0.00  0.00    +0.000 NA
ATOM      8  C   UNL     1       1.114  11.852  19.600  0.00  0.00    +0.000 A 
ATOM      9  N   UNL     1       0.973  13.180  19.227  0.00  0.00    +0.000 N 
ATOM     10  C   UNL     1      -0.060  13.919  19.960  0.00  0.00    +0.000 C 
ATOM     11  C   UNL     1      -0.776  14.881  19.006  0.00  0.00    +0.000 C 
ATOM     12  C   UNL     1       0.261  15.933  18.735  0.00  0.00    +0.000 A 
ATOM     13  C   UNL     1       0.031  17.264  19.102  0.00  0.00    +0.000 A 
ATOM     14  C   UNL     1       1.096  18.148  19.131  0.00  0.00    +0.000 A 
ATOM     15  C   UNL     1       2.366  17.711  18.752  0.00  0.00    +0.000 A 
ATOM     16  C   UNL     1       2.591  16.373  18.349  0.00  0.00    +0.000 A 
ATOM     17  C   UNL     1       1.539  15.450  18.364  0.00  0.00    +0.000 A 
ATOM     18  C   UNL     1       1.668  13.912  18.139  0.00  0.00    +0.000 C 
ATOM     19  N   UNL     1       0.582  11.466  20.790  0.00  0.00    +0.000 NA
ATOM     20  C   UNL     1       0.630  10.185  21.246  0.00  0.00    +0.000 A 
ATOM     21  N   UNL     1       0.098   9.943  22.504  0.00  0.00    +0.000 N 
ATOM     22  C   UNL     1      -1.008  10.759  22.990  0.00  0.00    +0.000 C 
ATOM     23  C   UNL     1       0.553   8.932  23.449  0.00  0.00    +0.000 C 
ATOM     24  C   UNL     1       1.190   9.209  20.432  0.00  0.00    +0.000 A 
ATOM     25  C   UNL     1       1.197   7.739  20.785  0.00  0.00    +0.000 C 
ENDROOT
BRANCH   1  31
ATOM     26  C   UNL     1       2.876   3.305  19.762  0.00  0.00    +0.000 A 
ATOM     27  C   UNL     1       3.449   2.347  18.908  0.00  0.00    +0.000 A 
ATOM     28  C   UNL     1       3.185   2.361  17.537  0.00  0.00    +0.000 A 
ATOM     29  C   UNL     1       2.359   3.339  16.999  0.00  0.00    +0.000 A 
ATOM     30  C   UNL     1       1.851   4.346  17.829  0.00  0.00    +0.000 A 
ATOM     31  C   UNL     1       2.136   4.357  19.205  0.00  0.00    +0.000 A 
BRANCH  26  33
ATOM     32  C   UNL     1       2.129   2.339  21.805  0.00  0.00    +0.000 C 
ATOM     33  O   UNL     1       2.987   3.248  21.127  0.00  0.00    +0.000 OA
ENDBRANCH  26  33
ENDBRANCH   1  31
TORSDOF 2
ENDMDL
MODEL 9
REMARK VINA RESULT:      -6.2      3.038      5.184
REMARK  Name = 
REMARK  5 active torsions:
REMARK  status: ('A' for Active; 'I' for Inactive)
REMARK    1  A    between atoms: C_1  and  O_2
REMARK    2  A    between atoms: O_2  and  C_3
REMARK    3  A    between atoms: C_8  and  C_9
REMARK    4  A    between atoms: N_29  and  C_30
REMARK    5  A    between atoms: N_29  and  C_31
REMARK                            x       y       z     vdW  Elec       q    Type
REMARK                         _______ _______ _______ _____ _____    ______ ____
ROOT
ATOM      1  C   UNL     1      -1.380  12.931  21.748  0.00  0.00    +0.000 C 
ATOM      2  O   UNL     1      -1.342  13.640  20.747  0.00  0.00    +0.000 OA
ATOM      3  N   UNL     1      -0.748  11.669  21.773  0.00  0.00    +0.000 N 
ATOM      4  C   UNL     1      -0.560  10.809  22.933  0.00  0.00    +0.000 C 
ATOM      5  C   UNL     1      -0.612   9.332  22.555  0.00  0.00    +0.000 C 
ATOM      6  C   UNL     1       0.299   8.989  21.405  0.00  0.00    +0.000 A 
ATOM      7  N   UNL     1       0.639   7.668  21.294  0.00  0.00    +0.000 NA
ATOM      8  C   UNL     1       1.369   7.318  20.234  0.00  0.00    +0.000 A 
ATOM      9  N   UNL     1       1.698   5.994  19.985  0.00  0.00    +0.000 N 
ATOM     10  C   UNL     1       2.108   5.710  18.607  0.00  0.00    +0.000 C 
ATOM     11  C   UNL     1       1.561   4.344  18.179  0.00  0.00    +0.000 C 
ATOM     12  C   UNL     1       2.383   3.377  18.980  0.00  0.00    +0.000 A 
ATOM     13  C   UNL     1       3.207   2.446  18.336  0.00  0.00    +0.000 A 
ATOM     14  C   UNL     1       4.177   1.784  19.070  0.00  0.00    +0.000 A 
ATOM     15  C   UNL     1       4.285   2.020  20.441  0.00  0.00    +0.000 A 
ATOM     16  C   UNL     1       3.430   2.936  21.098  0.00  0.00    +0.000 A 
ATOM     17  C   UNL     1       2.479   3.656  20.365  0.00  0.00    +0.000 A 
ATOM     18  C   UNL     1       1.607   4.832  20.904  0.00  0.00    +0.000 C 
ATOM     19  N   UNL     1       1.785   8.255  19.341  0.00  0.00    +0.000 NA
ATOM     20  C   UNL     1       1.495   9.578  19.463  0.00  0.00    +0.000 A 
ATOM     21  N   UNL     1       2.032  10.432  18.510  0.00  0.00    +0.000 N 
ATOM     22  C   UNL     1       2.268   9.945  17.156  0.00  0.00    +0.000 C 
ATOM     23  C   UNL     1       2.425  11.819  18.722  0.00  0.00    +0.000 C 
ATOM     24  C   UNL     1       0.683   9.989  20.511  0.00  0.00    +0.000 A 
ATOM     25  C   UNL     1       0.205  11.413  20.681  0.00  0.00    +0.000 C 
ENDROOT
BRANCH   1  31
ATOM     26  C   UNL     1      -3.517  13.089  23.166  0.00  0.00    +0.000 A 
ATOM     27  C   UNL     1      -4.167  13.640  24.284  0.00  0.00    +0.000 A 
ATOM     28  C   UNL     1      -3.470  14.430  25.200  0.00  0.00    +0.000 A 
ATOM     29  C   UNL     1      -2.120  14.694  25.003  0.00  0.00    +0.000 A 
ATOM     30  C   UNL     1      -1.486  14.220  23.848  0.00  0.00    +0.000 A 
ATOM     31  C   UNL     1      -2.188  13.448  22.907  0.00  0.00    +0.000 A 
BRANCH  26  33
ATOM     32  C   UNL     1      -5.308  12.620  21.670  0.00  0.00    +0.000 C 
ATOM     33  O   UNL     1      -4.118  12.193  22.322  0.00  0.00    +0.000 OA
ENDBRANCH  26  33
ENDBRANCH   1  31
TORSDOF 2
ENDMDL
