MODEL 1
REMARK VINA RESULT:      -7.1      0.000      0.000
REMARK  Name = 
REMARK  3 active torsions:
REMARK  status: ('A' for Active; 'I' for Inactive)
REMARK    1  A    between atoms: C_2  and  C_3
REMARK    2  A    between atoms: C_5  and  C_6
REMARK    3  A    between atoms: C_20  and  O_21
REMARK                            x       y       z     vdW  Elec       q    Type
REMARK                         _______ _______ _______ _____ _____    ______ ____
ROOT
ATOM      1  C   UNL     1       5.941   4.279  14.660  0.00  0.00    +0.000 A 
ATOM      2  C   UNL     1       4.776   3.880  15.368  0.00  0.00    +0.000 A 
ATOM      3  C   UNL     1       4.479   4.438  16.610  0.00  0.00    +0.000 A 
ATOM      4  C   UNL     1       5.382   5.373  17.158  0.00  0.00    +0.000 A 
ATOM      5  C   UNL     1       6.549   5.755  16.480  0.00  0.00    +0.000 A 
ATOM      6 CL   UNL     1       7.626   6.910  17.188  0.00  0.00    +0.000 Cl
ATOM      7  C   UNL     1       6.822   5.217  15.218  0.00  0.00    +0.000 A 
ENDROOT
BRANCH   3   8
ATOM      8  C   UNL     1       3.237   4.164  17.386  0.00  0.00    +0.000 C 
ATOM      9  O   UNL     1       2.284   3.748  16.717  0.00  0.00    +0.000 OA
ATOM     10  N   UNL     1       3.075   4.640  18.711  0.00  0.00    +0.000 N 
ATOM     11  C   UNL     1       1.697   5.221  18.877  0.00  0.00    +0.000 C 
ATOM     12  C   UNL     1       1.398   5.236  20.357  0.00  0.00    +0.000 C 
ATOM     13  C   UNL     1       2.016   3.918  20.659  0.00  0.00    +0.000 A 
ATOM     14  C   UNL     1       1.587   2.966  21.566  0.00  0.00    +0.000 A 
ATOM     15  C   UNL     1       2.457   1.930  21.860  0.00  0.00    +0.000 A 
ATOM     16  C   UNL     1       3.748   1.933  21.305  0.00  0.00    +0.000 A 
ATOM     17  C   UNL     1       4.096   2.822  20.262  0.00  0.00    +0.000 A 
ATOM     18  C   UNL     1       3.152   3.745  19.853  0.00  0.00    +0.000 A 
ENDBRANCH   3   8
BRANCH   1  20
ATOM     19  N   UNL     1       6.348   3.344  12.268  0.00  0.00    +0.000 NA
ATOM     20  C   UNL     1       6.193   3.738  13.356  0.00  0.00    +0.000 C 
ENDBRANCH   1  20
BRANCH   7  21
ATOM     21  O   UNL     1       7.958   5.582  14.534  0.00  0.00    +0.000 OA
ATOM     22  H   UNL     1       8.686   4.991  14.810  0.00  0.00    +0.000 HD
ENDBRANCH   7  21
TORSDOF 3
ENDMDL
MODEL 2
REMARK VINA RESULT:      -7.0      5.111      6.716
REMARK  Name = 
REMARK  3 active torsions:
REMARK  status: ('A' for Active; 'I' for Inactive)
REMARK    1  A    between atoms: C_2  and  C_3
REMARK    2  A    between atoms: C_5  and  C_6
REMARK    3  A    between atoms: C_20  and  O_21
REMARK                            x       y       z     vdW  Elec       q    Type
REMARK                         _______ _______ _______ _____ _____    ______ ____
ROOT
ATOM      1  C   UNL     1       3.735   6.894  17.733  0.00  0.00    +0.000 A 
ATOM      2  C   UNL     1       2.909   8.050  17.769  0.00  0.00    +0.000 A 
ATOM      3  C   UNL     1       1.981   8.221  18.794  0.00  0.00    +0.000 A 
ATOM      4  C   UNL     1       1.857   7.204  19.764  0.00  0.00    +0.000 A 
ATOM      5  C   UNL     1       2.649   6.047  19.723  0.00  0.00    +0.000 A 
ATOM      6 CL   UNL     1       2.466   4.827  20.937  0.00  0.00    +0.000 Cl
ATOM      7  C   UNL     1       3.604   5.898  18.711  0.00  0.00    +0.000 A 
ENDROOT
BRANCH   3   8
ATOM      8  C   UNL     1       1.140   9.437  18.980  0.00  0.00    +0.000 C 
ATOM      9  O   UNL     1       0.349   9.671  18.059  0.00  0.00    +0.000 OA
ATOM     10  N   UNL     1       1.448  10.403  19.970  0.00  0.00    +0.000 N 
ATOM     11  C   UNL     1       1.318  11.785  19.389  0.00  0.00    +0.000 C 
ATOM     12  C   UNL     1       1.150  12.738  20.548  0.00  0.00    +0.000 C 
ATOM     13  C   UNL     1       0.261  11.859  21.352  0.00  0.00    +0.000 A 
ATOM     14  C   UNL     1      -0.807  12.230  22.148  0.00  0.00    +0.000 A 
ATOM     15  C   UNL     1      -1.329  11.270  23.000  0.00  0.00    +0.000 A 
ATOM     16  C   UNL     1      -0.711  10.011  23.083  0.00  0.00    +0.000 A 
ATOM     17  C   UNL     1       0.268   9.610  22.145  0.00  0.00    +0.000 A 
ATOM     18  C   UNL     1       0.658  10.523  21.184  0.00  0.00    +0.000 A 
ENDBRANCH   3   8
BRANCH   1  20
ATOM     19  N   UNL     1       5.481   6.649  15.820  0.00  0.00    +0.000 NA
ATOM     20  C   UNL     1       4.727   6.770  16.704  0.00  0.00    +0.000 C 
ENDBRANCH   1  20
BRANCH   7  21
ATOM     21  O   UNL     1       4.394   4.774  18.656  0.00  0.00    +0.000 OA
ATOM     22  H   UNL     1       5.195   4.935  19.193  0.00  0.00    +0.000 HD
ENDBRANCH   7  21
TORSDOF 3
ENDMDL
MODEL 3
REMARK VINA RESULT:      -6.8      3.926      7.322
REMARK  Name = 
REMARK  3 active torsions:
REMARK  status: ('A' for Active; 'I' for Inactive)
REMARK    1  A    between atoms: C_2  and  C_3
REMARK    2  A    between atoms: C_5  and  C_6
REMARK    3  A    between atoms: C_20  and  O_21
REMARK                            x       y       z     vdW  Elec       q    Type
REMARK                         _______ _______ _______ _____ _____    ______ ____
ROOT
ATOM      1  C   UNL     1       1.047   9.042  21.252  0.00  0.00    +0.000 A 
ATOM      2  C   UNL     1       1.464   7.736  20.880  0.00  0.00    +0.000 A 
ATOM      3  C   UNL     1       1.947   7.489  19.597  0.00  0.00    +0.000 A 
ATOM      4  C   UNL     1       1.972   8.555  18.673  0.00  0.00    +0.000 A 
ATOM      5  C   UNL     1       1.538   9.843  19.022  0.00  0.00    +0.000 A 
ATOM      6 CL   UNL     1       1.591  11.122  17.857  0.00  0.00    +0.000 Cl
ATOM      7  C   UNL     1       1.087  10.091  20.322  0.00  0.00    +0.000 A 
ENDROOT
BRANCH   3   8
ATOM      8  C   UNL     1       2.502   6.184  19.137  0.00  0.00    +0.000 C 
ATOM      9  O   UNL     1       1.688   5.254  19.105  0.00  0.00    +0.000 OA
ATOM     10  N   UNL     1       3.899   5.966  19.053  0.00  0.00    +0.000 N 
ATOM     11  C   UNL     1       4.237   4.617  19.629  0.00  0.00    +0.000 C 
ATOM     12  C   UNL     1       5.584   4.223  19.073  0.00  0.00    +0.000 C 
ATOM     13  C   UNL     1       5.348   4.739  17.698  0.00  0.00    +0.000 A 
ATOM     14  C   UNL     1       5.775   4.194  16.502  0.00  0.00    +0.000 A 
ATOM     15  C   UNL     1       5.655   4.978  15.366  0.00  0.00    +0.000 A 
ATOM     16  C   UNL     1       5.194   6.301  15.487  0.00  0.00    +0.000 A 
ATOM     17  C   UNL     1       4.615   6.770  16.688  0.00  0.00    +0.000 A 
ATOM     18  C   UNL     1       4.582   5.913  17.771  0.00  0.00    +0.000 A 
ENDBRANCH   3   8
BRANCH   1  20
ATOM     19  N   UNL     1       0.289   9.551  23.688  0.00  0.00    +0.000 NA
ATOM     20  C   UNL     1       0.612   9.286  22.597  0.00  0.00    +0.000 C 
ENDBRANCH   1  20
BRANCH   7  21
ATOM     21  O   UNL     1       0.662  11.347  20.686  0.00  0.00    +0.000 OA
ATOM     22  H   UNL     1       0.238  11.765  19.910  0.00  0.00    +0.000 HD
ENDBRANCH   7  21
TORSDOF 3
ENDMDL
MODEL 4
REMARK VINA RESULT:      -6.7      4.967      7.143
REMARK  Name = 
REMARK  3 active torsions:
REMARK  status: ('A' for Active; 'I' for Inactive)
REMARK    1  A    between atoms: C_2  and  C_3
REMARK    2  A    between atoms: C_5  and  C_6
REMARK    3  A    between atoms: C_20  and  O_21
REMARK                            x       y       z     vdW  Elec       q    Type
REMARK                         _______ _______ _______ _____ _____    ______ ____
ROOT
ATOM      1  C   UNL     1       2.631   5.952  19.734  0.00  0.00    +0.000 A 
ATOM      2  C   UNL     1       1.867   7.130  19.949  0.00  0.00    +0.000 A 
ATOM      3  C   UNL     1       1.951   8.197  19.056  0.00  0.00    +0.000 A 
ATOM      4  C   UNL     1       2.839   8.091  17.965  0.00  0.00    +0.000 A 
ATOM      5  C   UNL     1       3.617   6.943  17.758  0.00  0.00    +0.000 A 
ATOM      6 CL   UNL     1       4.690   6.854  16.402  0.00  0.00    +0.000 Cl
ATOM      7  C   UNL     1       3.502   5.862  18.638  0.00  0.00    +0.000 A 
ENDROOT
BRANCH   3   8
ATOM      8  C   UNL     1       1.121   9.433  19.134  0.00  0.00    +0.000 C 
ATOM      9  O   UNL     1       0.370   9.618  18.169  0.00  0.00    +0.000 OA
ATOM     10  N   UNL     1       1.405  10.454  20.073  0.00  0.00    +0.000 N 
ATOM     11  C   UNL     1       1.318  11.799  19.403  0.00  0.00    +0.000 C 
ATOM     12  C   UNL     1       1.119  12.825  20.493  0.00  0.00    +0.000 C 
ATOM     13  C   UNL     1       0.187  12.008  21.315  0.00  0.00    +0.000 A 
ATOM     14  C   UNL     1      -0.905  12.442  22.043  0.00  0.00    +0.000 A 
ATOM     15  C   UNL     1      -1.475  11.544  22.931  0.00  0.00    +0.000 A 
ATOM     16  C   UNL     1      -0.879  10.284  23.117  0.00  0.00    +0.000 A 
ATOM     17  C   UNL     1       0.129   9.814  22.244  0.00  0.00    +0.000 A 
ATOM     18  C   UNL     1       0.571  10.659  21.245  0.00  0.00    +0.000 A 
ENDBRANCH   3   8
BRANCH   1  20
ATOM     19  N   UNL     1       2.336   3.987  21.412  0.00  0.00    +0.000 NA
ATOM     20  C   UNL     1       2.482   4.843  20.631  0.00  0.00    +0.000 C 
ENDBRANCH   1  20
BRANCH   7  21
ATOM     21  O   UNL     1       4.253   4.725  18.451  0.00  0.00    +0.000 OA
ATOM     22  H   UNL     1       4.094   4.124  19.206  0.00  0.00    +0.000 HD
ENDBRANCH   7  21
TORSDOF 3
ENDMDL
MODEL 5
REMARK VINA RESULT:      -6.7      5.331      7.126
REMARK  Name = 
REMARK  3 active torsions:
REMARK  status: ('A' for Active; 'I' for Inactive)
REMARK    1  A    between atoms: C_2  and  C_3
REMARK    2  A    between atoms: C_5  and  C_6
REMARK    3  A    between atoms: C_20  and  O_21
REMARK                            x       y       z     vdW  Elec       q    Type
REMARK                         _______ _______ _______ _____ _____    ______ ____
ROOT
ATOM      1  C   UNL     1       3.823   6.904  17.520  0.00  0.00    +0.000 A 
ATOM      2  C   UNL     1       3.160   8.158  17.444  0.00  0.00    +0.000 A 
ATOM      3  C   UNL     1       2.226   8.521  18.412  0.00  0.00    +0.000 A 
ATOM      4  C   UNL     1       1.930   7.599  19.438  0.00  0.00    +0.000 A 
ATOM      5  C   UNL     1       2.560   6.347  19.508  0.00  0.00    +0.000 A 
ATOM      6 CL   UNL     1       2.169   5.249  20.787  0.00  0.00    +0.000 Cl
ATOM      7  C   UNL     1       3.522   6.004  18.552  0.00  0.00    +0.000 A 
ENDROOT
BRANCH   3   8
ATOM      8  C   UNL     1       1.550   9.848  18.481  0.00  0.00    +0.000 C 
ATOM      9  O   UNL     1       2.255  10.810  18.156  0.00  0.00    +0.000 OA
ATOM     10  N   UNL     1       0.318  10.013  19.161  0.00  0.00    +0.000 N 
ATOM     11  C   UNL     1       0.365  11.261  20.000  0.00  0.00    +0.000 C 
ATOM     12  C   UNL     1      -1.064  11.662  20.279  0.00  0.00    +0.000 C 
ATOM     13  C   UNL     1      -1.589  11.336  18.926  0.00  0.00    +0.000 A 
ATOM     14  C   UNL     1      -2.559  12.008  18.207  0.00  0.00    +0.000 A 
ATOM     15  C   UNL     1      -3.066  11.380  17.081  0.00  0.00    +0.000 A 
ATOM     16  C   UNL     1      -2.647  10.075  16.771  0.00  0.00    +0.000 A 
ATOM     17  C   UNL     1      -1.542   9.484  17.426  0.00  0.00    +0.000 A 
ATOM     18  C   UNL     1      -0.928  10.197  18.437  0.00  0.00    +0.000 A 
ENDBRANCH   3   8
BRANCH   1  20
ATOM     19  N   UNL     1       5.594   6.329  15.704  0.00  0.00    +0.000 NA
ATOM     20  C   UNL     1       4.826   6.578  16.548  0.00  0.00    +0.000 C 
ENDBRANCH   1  20
BRANCH   7  21
ATOM     21  O   UNL     1       4.155   4.784  18.605  0.00  0.00    +0.000 OA
ATOM     22  H   UNL     1       5.103   4.938  18.787  0.00  0.00    +0.000 HD
ENDBRANCH   7  21
TORSDOF 3
ENDMDL
MODEL 6
REMARK VINA RESULT:      -6.7      1.667      2.216
REMARK  Name = 
REMARK  3 active torsions:
REMARK  status: ('A' for Active; 'I' for Inactive)
REMARK    1  A    between atoms: C_2  and  C_3
REMARK    2  A    between atoms: C_5  and  C_6
REMARK    3  A    between atoms: C_20  and  O_21
REMARK                            x       y       z     vdW  Elec       q    Type
REMARK                         _______ _______ _______ _____ _____    ______ ____
ROOT
ATOM      1  C   UNL     1       6.315   4.117  14.628  0.00  0.00    +0.000 A 
ATOM      2  C   UNL     1       5.495   3.480  15.598  0.00  0.00    +0.000 A 
ATOM      3  C   UNL     1       5.404   3.992  16.890  0.00  0.00    +0.000 A 
ATOM      4  C   UNL     1       6.176   5.128  17.218  0.00  0.00    +0.000 A 
ATOM      5  C   UNL     1       7.009   5.748  16.275  0.00  0.00    +0.000 A 
ATOM      6 CL   UNL     1       7.934   7.142  16.719  0.00  0.00    +0.000 Cl
ATOM      7  C   UNL     1       7.067   5.250  14.969  0.00  0.00    +0.000 A 
ENDROOT
BRANCH   3   8
ATOM      8  C   UNL     1       4.500   3.463  17.950  0.00  0.00    +0.000 C 
ATOM      9  O   UNL     1       5.017   2.635  18.710  0.00  0.00    +0.000 OA
ATOM     10  N   UNL     1       3.098   3.655  17.887  0.00  0.00    +0.000 N 
ATOM     11  C   UNL     1       2.394   2.370  18.232  0.00  0.00    +0.000 C 
ATOM     12  C   UNL     1       0.988   2.733  18.644  0.00  0.00    +0.000 C 
ATOM     13  C   UNL     1       1.354   3.956  19.406  0.00  0.00    +0.000 A 
ATOM     14  C   UNL     1       0.785   4.433  20.572  0.00  0.00    +0.000 A 
ATOM     15  C   UNL     1       1.118   5.720  20.963  0.00  0.00    +0.000 A 
ATOM     16  C   UNL     1       1.935   6.504  20.131  0.00  0.00    +0.000 A 
ATOM     17  C   UNL     1       2.629   5.937  19.038  0.00  0.00    +0.000 A 
ATOM     18  C   UNL     1       2.423   4.599  18.761  0.00  0.00    +0.000 A 
ENDBRANCH   3   8
BRANCH   1  20
ATOM     19  N   UNL     1       6.305   3.234  12.181  0.00  0.00    +0.000 NA
ATOM     20  C   UNL     1       6.343   3.608  13.287  0.00  0.00    +0.000 C 
ENDBRANCH   1  20
BRANCH   7  21
ATOM     21  O   UNL     1       7.874   5.846  14.029  0.00  0.00    +0.000 OA
ATOM     22  H   UNL     1       7.317   6.107  13.268  0.00  0.00    +0.000 HD
ENDBRANCH   7  21
TORSDOF 3
ENDMDL
MODEL 7
REMARK VINA RESULT:      -6.6      5.307      7.092
REMARK  Name = 
REMARK  3 active torsions:
REMARK  status: ('A' for Active; 'I' for Inactive)
REMARK    1  A    between atoms: C_2  and  C_3
REMARK    2  A    between atoms: C_5  and  C_6
REMARK    3  A    between atoms: C_20  and  O_21
REMARK                            x       y       z     vdW  Elec       q    Type
REMARK                         _______ _______ _______ _____ _____    ______ ____
ROOT
ATOM      1  C   UNL     1       3.726   6.581  17.806  0.00  0.00    +0.000 A 
ATOM      2  C   UNL     1       2.971   7.730  18.163  0.00  0.00    +0.000 A 
ATOM      3  C   UNL     1       2.150   7.712  19.289  0.00  0.00    +0.000 A 
ATOM      4  C   UNL     1       2.058   6.517  20.033  0.00  0.00    +0.000 A 
ATOM      5  C   UNL     1       2.779   5.369  19.674  0.00  0.00    +0.000 A 
ATOM      6 CL   UNL     1       2.639   3.926  20.620  0.00  0.00    +0.000 Cl
ATOM      7  C   UNL     1       3.628   5.405  18.564  0.00  0.00    +0.000 A 
ENDROOT
BRANCH   3   8
ATOM      8  C   UNL     1       1.397   8.890  19.807  0.00  0.00    +0.000 C 
ATOM      9  O   UNL     1       1.233   8.906  21.032  0.00  0.00    +0.000 OA
ATOM     10  N   UNL     1       0.668   9.739  18.938  0.00  0.00    +0.000 N 
ATOM     11  C   UNL     1      -0.678  10.043  19.538  0.00  0.00    +0.000 C 
ATOM     12  C   UNL     1      -1.187  11.299  18.872  0.00  0.00    +0.000 C 
ATOM     13  C   UNL     1       0.122  12.004  18.839  0.00  0.00    +0.000 A 
ATOM     14  C   UNL     1       0.364  13.354  19.014  0.00  0.00    +0.000 A 
ATOM     15  C   UNL     1       1.628  13.821  18.691  0.00  0.00    +0.000 A 
ATOM     16  C   UNL     1       2.566  12.940  18.127  0.00  0.00    +0.000 A 
ATOM     17  C   UNL     1       2.346  11.543  18.114  0.00  0.00    +0.000 A 
ATOM     18  C   UNL     1       1.144  11.070  18.604  0.00  0.00    +0.000 A 
ENDBRANCH   3   8
BRANCH   1  20
ATOM     19  N   UNL     1       5.296   6.637  15.733  0.00  0.00    +0.000 NA
ATOM     20  C   UNL     1       4.612   6.642  16.680  0.00  0.00    +0.000 C 
ENDBRANCH   1  20
BRANCH   7  21
ATOM     21  O   UNL     1       4.347   4.291  18.197  0.00  0.00    +0.000 OA
ATOM     22  H   UNL     1       4.045   4.009  17.311  0.00  0.00    +0.000 HD
ENDBRANCH   7  21
TORSDOF 3
ENDMDL
MODEL 8
REMARK VINA RESULT:      -6.6      4.930      7.541
REMARK  Name = 
REMARK  3 active torsions:
REMARK  status: ('A' for Active; 'I' for Inactive)
REMARK    1  A    between atoms: C_2  and  C_3
REMARK    2  A    between atoms: C_5  and  C_6
REMARK    3  A    between atoms: C_20  and  O_21
REMARK                            x       y       z     vdW  Elec       q    Type
REMARK                         _______ _______ _______ _____ _____    ______ ____
ROOT
ATOM      1  C   UNL     1       2.235   5.061  20.470  0.00  0.00    +0.000 A 
ATOM      2  C   UNL     1       1.685   6.295  20.909  0.00  0.00    +0.000 A 
ATOM      3  C   UNL     1       1.859   7.452  20.154  0.00  0.00    +0.000 A 
ATOM      4  C   UNL     1       2.625   7.374  18.972  0.00  0.00    +0.000 A 
ATOM      5  C   UNL     1       3.195   6.166  18.543  0.00  0.00    +0.000 A 
ATOM      6 CL   UNL     1       4.124   6.114  17.084  0.00  0.00    +0.000 Cl
ATOM      7  C   UNL     1       2.986   5.000  19.288  0.00  0.00    +0.000 A 
ENDROOT
BRANCH   3   8
ATOM      8  C   UNL     1       1.242   8.772  20.472  0.00  0.00    +0.000 C 
ATOM      9  O   UNL     1       1.178   9.041  21.676  0.00  0.00    +0.000 OA
ATOM     10  N   UNL     1       0.512   9.497  19.498  0.00  0.00    +0.000 N 
ATOM     11  C   UNL     1      -0.755  10.033  20.109  0.00  0.00    +0.000 C 
ATOM     12  C   UNL     1      -1.218  11.176  19.238  0.00  0.00    +0.000 C 
ATOM     13  C   UNL     1       0.134  11.740  18.981  0.00  0.00    +0.000 A 
ATOM     14  C   UNL     1       0.491  13.071  18.865  0.00  0.00    +0.000 A 
ATOM     15  C   UNL     1       1.757  13.349  18.375  0.00  0.00    +0.000 A 
ATOM     16  C   UNL     1       2.577  12.294  17.942  0.00  0.00    +0.000 A 
ATOM     17  C   UNL     1       2.251  10.947  18.224  0.00  0.00    +0.000 A 
ATOM     18  C   UNL     1       1.060  10.690  18.874  0.00  0.00    +0.000 A 
ENDBRANCH   3   8
BRANCH   1  20
ATOM     19  N   UNL     1       1.830   2.930  21.906  0.00  0.00    +0.000 NA
ATOM     20  C   UNL     1       1.990   3.870  21.232  0.00  0.00    +0.000 C 
ENDBRANCH   1  20
BRANCH   7  21
ATOM     21  O   UNL     1       3.532   3.805  18.882  0.00  0.00    +0.000 OA
ATOM     22  H   UNL     1       3.133   3.089  19.416  0.00  0.00    +0.000 HD
ENDBRANCH   7  21
TORSDOF 3
ENDMDL
MODEL 9
REMARK VINA RESULT:      -6.6      3.432      5.219
REMARK  Name = 
REMARK  3 active torsions:
REMARK  status: ('A' for Active; 'I' for Inactive)
REMARK    1  A    between atoms: C_2  and  C_3
REMARK    2  A    between atoms: C_5  and  C_6
REMARK    3  A    between atoms: C_20  and  O_21
REMARK                            x       y       z     vdW  Elec       q    Type
REMARK                         _______ _______ _______ _____ _____    ______ ____
ROOT
ATOM      1  C   UNL     1       4.692   4.364  19.036  0.00  0.00    +0.000 A 
ATOM      2  C   UNL     1       3.524   5.172  19.049  0.00  0.00    +0.000 A 
ATOM      3  C   UNL     1       3.506   6.396  18.383  0.00  0.00    +0.000 A 
ATOM      4  C   UNL     1       4.685   6.825  17.736  0.00  0.00    +0.000 A 
ATOM      5  C   UNL     1       5.852   6.047  17.739  0.00  0.00    +0.000 A 
ATOM      6 CL   UNL     1       7.273   6.610  16.928  0.00  0.00    +0.000 Cl
ATOM      7  C   UNL     1       5.851   4.803  18.379  0.00  0.00    +0.000 A 
ENDROOT
BRANCH   3   8
ATOM      8  C   UNL     1       2.307   7.271  18.251  0.00  0.00    +0.000 C 
ATOM      9  O   UNL     1       1.476   6.894  17.416  0.00  0.00    +0.000 OA
ATOM     10  N   UNL     1       2.281   8.576  18.803  0.00  0.00    +0.000 N 
ATOM     11  C   UNL     1       1.690   9.536  17.807  0.00  0.00    +0.000 C 
ATOM     12  C   UNL     1       1.221  10.745  18.582  0.00  0.00    +0.000 C 
ATOM     13  C   UNL     1       0.686   9.991  19.747  0.00  0.00    +0.000 A 
ATOM     14  C   UNL     1      -0.438  10.276  20.500  0.00  0.00    +0.000 A 
ATOM     15  C   UNL     1      -0.601   9.583  21.688  0.00  0.00    +0.000 A 
ATOM     16  C   UNL     1       0.405   8.700  22.115  0.00  0.00    +0.000 A 
ATOM     17  C   UNL     1       1.454   8.309  21.251  0.00  0.00    +0.000 A 
ATOM     18  C   UNL     1       1.507   8.879  19.994  0.00  0.00    +0.000 A 
ENDBRANCH   3   8
BRANCH   1  20
ATOM     19  N   UNL     1       4.687   2.008  20.139  0.00  0.00    +0.000 NA
ATOM     20  C   UNL     1       4.667   3.080  19.675  0.00  0.00    +0.000 C 
ENDBRANCH   1  20
BRANCH   7  21
ATOM     21  O   UNL     1       6.983   4.022  18.390  0.00  0.00    +0.000 OA
ATOM     22  H   UNL     1       7.423   4.131  19.257  0.00  0.00    +0.000 HD
ENDBRANCH   7  21
TORSDOF 3
ENDMDL
