MODEL 1
REMARK VINA RESULT:      -6.9      0.000      0.000
REMARK  Name = 
REMARK  9 active torsions:
REMARK  status: ('A' for Active; 'I' for Inactive)
REMARK    1  A    between atoms: C_1  and  N_2
REMARK    2  A    between atoms: C_6  and  C_7
REMARK    3  A    between atoms: C_7  and  O_8
REMARK    4  A    between atoms: C_7  and  C_28
REMARK    5  A    between atoms: O_8  and  C_9
REMARK    6  A    between atoms: C_9  and  C_10
REMARK    7  A    between atoms: C_13  and  C_14
REMARK    8  A    between atoms: C_17  and  C_18
REMARK    9  A    between atoms: C_31  and  C_32
REMARK                            x       y       z     vdW  Elec       q    Type
REMARK                         _______ _______ _______ _____ _____    ______ ____
ROOT
ATOM      1  C   UNL     1      -3.101  11.260  17.339  0.00  0.00    +0.000 A 
ATOM      2  C   UNL     1      -2.166  10.755  16.403  0.00  0.00    +0.000 A 
ATOM      3  C   UNL     1      -2.556  10.354  15.128  0.00  0.00    +0.000 A 
ATOM      4  C   UNL     1      -3.882  10.490  14.745  0.00  0.00    +0.000 A 
ATOM      5  C   UNL     1      -4.809  11.051  15.638  0.00  0.00    +0.000 A 
ATOM      6  C   UNL     1      -4.479  11.391  16.973  0.00  0.00    +0.000 A 
ENDROOT
BRANCH   6   7
ATOM      7  C   UNL     1      -5.563  11.835  17.928  0.00  0.00    +0.000 A 
ATOM      8  C   UNL     1      -5.978  13.185  17.909  0.00  0.00    +0.000 A 
ATOM      9  C   UNL     1      -6.804  13.733  18.886  0.00  0.00    +0.000 A 
ATOM     10  C   UNL     1      -7.385  12.906  19.830  0.00  0.00    +0.000 A 
ATOM     11  C   UNL     1      -7.169  11.527  19.786  0.00  0.00    +0.000 A 
ATOM     12  C   UNL     1      -7.915  10.717  20.657  0.00  0.00    +0.000 A 
ATOM     13  C   UNL     1      -7.793   9.333  20.632  0.00  0.00    +0.000 A 
ATOM     14  C   UNL     1      -6.863   8.752  19.788  0.00  0.00    +0.000 A 
ATOM     15  C   UNL     1      -6.068   9.555  18.961  0.00  0.00    +0.000 A 
ATOM     16  C   UNL     1      -6.232  10.965  18.869  0.00  0.00    +0.000 A 
ENDBRANCH   6   7
BRANCH   4  17
ATOM     17  C   UNL     1      -4.311  10.010  13.458  0.00  0.00    +0.000 C 
ATOM     18  N   UNL     1      -4.653   9.588  12.438  0.00  0.00    +0.000 NA
ENDBRANCH   4  17
BRANCH   1  19
ATOM     19  C   UNL     1      -2.578  11.626  18.724  0.00  0.00    +0.000 C 
BRANCH  19  20
ATOM     20  O   UNL     1      -1.147  11.710  18.748  0.00  0.00    +0.000 OA
BRANCH  20  21
ATOM     21  C   UNL     1      -0.579  11.252  19.978  0.00  0.00    +0.000 C 
BRANCH  21  27
ATOM     22  C   UNL     1       2.086  12.826  19.008  0.00  0.00    +0.000 C 
ATOM     23  N   UNL     1       1.306  13.032  20.205  0.00  0.00    +0.000 N 
ATOM     24  C   UNL     1       1.577  14.025  21.111  0.00  0.00    +0.000 A 
ATOM     25  N   UNL     1       0.755  13.991  22.129  0.00  0.00    +0.000 NA
ATOM     26  C   UNL     1      -0.092  12.953  21.871  0.00  0.00    +0.000 A 
ATOM     27  C   UNL     1       0.189  12.356  20.652  0.00  0.00    +0.000 A 
ENDBRANCH  21  27
BRANCH  21  28
ATOM     28  C   UNL     1       0.283  10.038  19.716  0.00  0.00    +0.000 A 
ATOM     29  C   UNL     1       0.714   9.215  20.766  0.00  0.00    +0.000 A 
ATOM     30  C   UNL     1       1.581   8.154  20.507  0.00  0.00    +0.000 A 
ATOM     31  C   UNL     1       1.995   7.947  19.199  0.00  0.00    +0.000 A 
ATOM     32  N   UNL     1       1.576   8.701  18.155  0.00  0.00    +0.000 NA
ATOM     33  C   UNL     1       0.731   9.720  18.438  0.00  0.00    +0.000 A 
BRANCH  31  34
ATOM     34  C   UNL     1       2.943   6.915  18.887  0.00  0.00    +0.000 C 
ATOM     35  N   UNL     1       3.676   6.055  18.611  0.00  0.00    +0.000 NA
ENDBRANCH  31  34
ENDBRANCH  21  28
ENDBRANCH  20  21
ENDBRANCH  19  20
ENDBRANCH   1  19
TORSDOF 8
ENDMDL
MODEL 2
REMARK VINA RESULT:      -6.8      2.724      7.471
REMARK  Name = 
REMARK  9 active torsions:
REMARK  status: ('A' for Active; 'I' for Inactive)
REMARK    1  A    between atoms: C_1  and  N_2
REMARK    2  A    between atoms: C_6  and  C_7
REMARK    3  A    between atoms: C_7  and  O_8
REMARK    4  A    between atoms: C_7  and  C_28
REMARK    5  A    between atoms: O_8  and  C_9
REMARK    6  A    between atoms: C_9  and  C_10
REMARK    7  A    between atoms: C_13  and  C_14
REMARK    8  A    between atoms: C_17  and  C_18
REMARK    9  A    between atoms: C_31  and  C_32
REMARK                            x       y       z     vdW  Elec       q    Type
REMARK                         _______ _______ _______ _____ _____    ______ ____
ROOT
ATOM      1  C   UNL     1      -1.755  13.496  20.959  0.00  0.00    +0.000 A 
ATOM      2  C   UNL     1      -1.968  14.853  20.618  0.00  0.00    +0.000 A 
ATOM      3  C   UNL     1      -0.965  15.625  20.038  0.00  0.00    +0.000 A 
ATOM      4  C   UNL     1       0.259  15.044  19.744  0.00  0.00    +0.000 A 
ATOM      5  C   UNL     1       0.466  13.682  20.015  0.00  0.00    +0.000 A 
ATOM      6  C   UNL     1      -0.492  12.880  20.683  0.00  0.00    +0.000 A 
ENDROOT
BRANCH   6   7
ATOM      7  C   UNL     1      -0.139  11.467  21.089  0.00  0.00    +0.000 A 
ATOM      8  C   UNL     1      -0.540  11.003  22.361  0.00  0.00    +0.000 A 
ATOM      9  C   UNL     1      -0.081   9.808  22.906  0.00  0.00    +0.000 A 
ATOM     10  C   UNL     1       0.668   8.946  22.126  0.00  0.00    +0.000 A 
ATOM     11  C   UNL     1       0.938   9.258  20.792  0.00  0.00    +0.000 A 
ATOM     12  C   UNL     1       1.551   8.276  19.998  0.00  0.00    +0.000 A 
ATOM     13  C   UNL     1       1.801   8.497  18.648  0.00  0.00    +0.000 A 
ATOM     14  C   UNL     1       1.508   9.733  18.100  0.00  0.00    +0.000 A 
ATOM     15  C   UNL     1       0.954  10.742  18.899  0.00  0.00    +0.000 A 
ATOM     16  C   UNL     1       0.579  10.530  20.254  0.00  0.00    +0.000 A 
ENDBRANCH   6   7
BRANCH   4  17
ATOM     17  C   UNL     1       1.328  15.850  19.214  0.00  0.00    +0.000 C 
ATOM     18  N   UNL     1       2.175  16.526  18.811  0.00  0.00    +0.000 NA
ENDBRANCH   4  17
BRANCH   1  19
ATOM     19  C   UNL     1      -2.902  12.753  21.634  0.00  0.00    +0.000 C 
BRANCH  19  20
ATOM     20  O   UNL     1      -3.612  11.916  20.711  0.00  0.00    +0.000 OA
BRANCH  20  21
ATOM     21  C   UNL     1      -4.125  12.631  19.585  0.00  0.00    +0.000 C 
BRANCH  21  27
ATOM     22  C   UNL     1      -6.570  10.528  19.927  0.00  0.00    +0.000 C 
ATOM     23  N   UNL     1      -6.620  11.971  19.917  0.00  0.00    +0.000 N 
ATOM     24  C   UNL     1      -7.776  12.679  20.125  0.00  0.00    +0.000 A 
ATOM     25  N   UNL     1      -7.577  13.970  20.034  0.00  0.00    +0.000 NA
ATOM     26  C   UNL     1      -6.245  14.110  19.777  0.00  0.00    +0.000 A 
ATOM     27  C   UNL     1      -5.600  12.884  19.742  0.00  0.00    +0.000 A 
ENDBRANCH  21  27
BRANCH  21  28
ATOM     28  C   UNL     1      -3.811  11.872  18.316  0.00  0.00    +0.000 A 
ATOM     29  C   UNL     1      -2.618  11.148  18.181  0.00  0.00    +0.000 A 
ATOM     30  C   UNL     1      -2.312  10.531  16.969  0.00  0.00    +0.000 A 
ATOM     31  C   UNL     1      -3.213  10.656  15.921  0.00  0.00    +0.000 A 
ATOM     32  N   UNL     1      -4.390  11.319  16.024  0.00  0.00    +0.000 NA
ATOM     33  C   UNL     1      -4.660  11.903  17.215  0.00  0.00    +0.000 A 
BRANCH  31  34
ATOM     34  C   UNL     1      -2.916  10.101  14.631  0.00  0.00    +0.000 C 
ATOM     35  N   UNL     1      -2.657   9.695  13.572  0.00  0.00    +0.000 NA
ENDBRANCH  31  34
ENDBRANCH  21  28
ENDBRANCH  20  21
ENDBRANCH  19  20
ENDBRANCH   1  19
TORSDOF 8
ENDMDL
MODEL 3
REMARK VINA RESULT:      -6.8      3.931      7.232
REMARK  Name = 
REMARK  9 active torsions:
REMARK  status: ('A' for Active; 'I' for Inactive)
REMARK    1  A    between atoms: C_1  and  N_2
REMARK    2  A    between atoms: C_6  and  C_7
REMARK    3  A    between atoms: C_7  and  O_8
REMARK    4  A    between atoms: C_7  and  C_28
REMARK    5  A    between atoms: O_8  and  C_9
REMARK    6  A    between atoms: C_9  and  C_10
REMARK    7  A    between atoms: C_13  and  C_14
REMARK    8  A    between atoms: C_17  and  C_18
REMARK    9  A    between atoms: C_31  and  C_32
REMARK                            x       y       z     vdW  Elec       q    Type
REMARK                         _______ _______ _______ _____ _____    ______ ____
ROOT
ATOM      1  C   UNL     1      -1.758  14.092  20.876  0.00  0.00    +0.000 A 
ATOM      2  C   UNL     1      -2.392  14.955  21.802  0.00  0.00    +0.000 A 
ATOM      3  C   UNL     1      -3.106  14.460  22.889  0.00  0.00    +0.000 A 
ATOM      4  C   UNL     1      -3.167  13.090  23.099  0.00  0.00    +0.000 A 
ATOM      5  C   UNL     1      -2.489  12.222  22.228  0.00  0.00    +0.000 A 
ATOM      6  C   UNL     1      -1.824  12.674  21.061  0.00  0.00    +0.000 A 
ENDROOT
BRANCH   6   7
ATOM      7  C   UNL     1      -1.258  11.671  20.081  0.00  0.00    +0.000 A 
ATOM      8  C   UNL     1       0.014  11.112  20.336  0.00  0.00    +0.000 A 
ATOM      9  C   UNL     1       0.706  10.356  19.395  0.00  0.00    +0.000 A 
ATOM     10  C   UNL     1       0.078   9.988  18.220  0.00  0.00    +0.000 A 
ATOM     11  C   UNL     1      -1.252  10.347  17.990  0.00  0.00    +0.000 A 
ATOM     12  C   UNL     1      -1.894   9.806  16.865  0.00  0.00    +0.000 A 
ATOM     13  C   UNL     1      -3.232  10.075  16.602  0.00  0.00    +0.000 A 
ATOM     14  C   UNL     1      -3.918  10.954  17.423  0.00  0.00    +0.000 A 
ATOM     15  C   UNL     1      -3.268  11.550  18.511  0.00  0.00    +0.000 A 
ATOM     16  C   UNL     1      -1.936  11.222  18.886  0.00  0.00    +0.000 A 
ENDBRANCH   6   7
BRANCH   4  17
ATOM     17  C   UNL     1      -3.964  12.563  24.175  0.00  0.00    +0.000 C 
ATOM     18  N   UNL     1      -4.623  12.117  25.014  0.00  0.00    +0.000 NA
ENDBRANCH   4  17
BRANCH   1  19
ATOM     19  C   UNL     1      -1.042  14.736  19.694  0.00  0.00    +0.000 C 
BRANCH  19  20
ATOM     20  O   UNL     1       0.379  14.762  19.882  0.00  0.00    +0.000 OA
BRANCH  20  21
ATOM     21  C   UNL     1       0.890  16.078  20.110  0.00  0.00    +0.000 C 
BRANCH  21  27
ATOM     22  C   UNL     1      -0.567  17.974  17.919  0.00  0.00    +0.000 C 
ATOM     23  N   UNL     1       0.796  17.499  17.933  0.00  0.00    +0.000 N 
ATOM     24  C   UNL     1       1.723  17.864  16.989  0.00  0.00    +0.000 A 
ATOM     25  N   UNL     1       2.877  17.280  17.191  0.00  0.00    +0.000 NA
ATOM     26  C   UNL     1       2.703  16.522  18.313  0.00  0.00    +0.000 A 
ATOM     27  C   UNL     1       1.428  16.668  18.836  0.00  0.00    +0.000 A 
ENDBRANCH  21  27
BRANCH  21  28
ATOM     28  C   UNL     1       1.936  16.033  21.201  0.00  0.00    +0.000 A 
ATOM     29  C   UNL     1       2.430  17.210  21.782  0.00  0.00    +0.000 A 
ATOM     30  C   UNL     1       3.458  17.144  22.721  0.00  0.00    +0.000 A 
ATOM     31  C   UNL     1       3.966  15.897  23.054  0.00  0.00    +0.000 A 
ATOM     32  N   UNL     1       3.493  14.736  22.538  0.00  0.00    +0.000 NA
ATOM     33  C   UNL     1       2.492  14.833  21.632  0.00  0.00    +0.000 A 
BRANCH  31  34
ATOM     34  C   UNL     1       5.072  15.776  23.961  0.00  0.00    +0.000 C 
ATOM     35  N   UNL     1       5.954  15.721  24.717  0.00  0.00    +0.000 NA
ENDBRANCH  31  34
ENDBRANCH  21  28
ENDBRANCH  20  21
ENDBRANCH  19  20
ENDBRANCH   1  19
TORSDOF 8
ENDMDL
MODEL 4
REMARK VINA RESULT:      -6.8      4.801      7.170
REMARK  Name = 
REMARK  9 active torsions:
REMARK  status: ('A' for Active; 'I' for Inactive)
REMARK    1  A    between atoms: C_1  and  N_2
REMARK    2  A    between atoms: C_6  and  C_7
REMARK    3  A    between atoms: C_7  and  O_8
REMARK    4  A    between atoms: C_7  and  C_28
REMARK    5  A    between atoms: O_8  and  C_9
REMARK    6  A    between atoms: C_9  and  C_10
REMARK    7  A    between atoms: C_13  and  C_14
REMARK    8  A    between atoms: C_17  and  C_18
REMARK    9  A    between atoms: C_31  and  C_32
REMARK                            x       y       z     vdW  Elec       q    Type
REMARK                         _______ _______ _______ _____ _____    ______ ____
ROOT
ATOM      1  C   UNL     1       1.582   9.872  19.029  0.00  0.00    +0.000 A 
ATOM      2  C   UNL     1       2.263  10.169  17.824  0.00  0.00    +0.000 A 
ATOM      3  C   UNL     1       2.639  11.469  17.500  0.00  0.00    +0.000 A 
ATOM      4  C   UNL     1       2.382  12.496  18.396  0.00  0.00    +0.000 A 
ATOM      5  C   UNL     1       1.766  12.211  19.625  0.00  0.00    +0.000 A 
ATOM      6  C   UNL     1       1.287  10.920  19.959  0.00  0.00    +0.000 A 
ENDROOT
BRANCH   6   7
ATOM      7  C   UNL     1       0.488  10.719  21.227  0.00  0.00    +0.000 A 
ATOM      8  C   UNL     1       0.904   9.729  22.145  0.00  0.00    +0.000 A 
ATOM      9  C   UNL     1       0.121   9.324  23.221  0.00  0.00    +0.000 A 
ATOM     10  C   UNL     1      -1.039  10.014  23.519  0.00  0.00    +0.000 A 
ATOM     11  C   UNL     1      -1.409  11.129  22.763  0.00  0.00    +0.000 A 
ATOM     12  C   UNL     1      -2.497  11.895  23.210  0.00  0.00    +0.000 A 
ATOM     13  C   UNL     1      -2.888  13.048  22.539  0.00  0.00    +0.000 A 
ATOM     14  C   UNL     1      -2.239  13.401  21.369  0.00  0.00    +0.000 A 
ATOM     15  C   UNL     1      -1.193  12.609  20.880  0.00  0.00    +0.000 A 
ATOM     16  C   UNL     1      -0.684  11.484  21.586  0.00  0.00    +0.000 A 
ENDBRANCH   6   7
BRANCH   4  17
ATOM     17  C   UNL     1       2.699  13.855  18.040  0.00  0.00    +0.000 C 
ATOM     18  N   UNL     1       2.974  14.949  17.786  0.00  0.00    +0.000 NA
ENDBRANCH   4  17
BRANCH   1  19
ATOM     19  C   UNL     1       1.171   8.423  19.264  0.00  0.00    +0.000 C 
BRANCH  19  20
ATOM     20  O   UNL     1       2.308   7.576  19.482  0.00  0.00    +0.000 OA
BRANCH  20  21
ATOM     21  C   UNL     1       2.217   6.327  18.792  0.00  0.00    +0.000 C 
BRANCH  21  27
ATOM     22  C   UNL     1       0.829   3.433  18.328  0.00  0.00    +0.000 C 
ATOM     23  N   UNL     1       1.426   3.962  19.532  0.00  0.00    +0.000 N 
ATOM     24  C   UNL     1       1.542   3.235  20.689  0.00  0.00    +0.000 A 
ATOM     25  N   UNL     1       2.084   3.937  21.652  0.00  0.00    +0.000 NA
ATOM     26  C   UNL     1       2.347   5.157  21.100  0.00  0.00    +0.000 A 
ATOM     27  C   UNL     1       1.993   5.199  19.761  0.00  0.00    +0.000 A 
ENDBRANCH  21  27
BRANCH  21  28
ATOM     28  C   UNL     1       3.459   6.120  17.956  0.00  0.00    +0.000 A 
ATOM     29  C   UNL     1       4.123   7.203  17.361  0.00  0.00    +0.000 A 
ATOM     30  C   UNL     1       5.213   6.976  16.522  0.00  0.00    +0.000 A 
ATOM     31  C   UNL     1       5.610   5.664  16.301  0.00  0.00    +0.000 A 
ATOM     32  N   UNL     1       5.015   4.595  16.882  0.00  0.00    +0.000 NA
ATOM     33  C   UNL     1       3.962   4.850  17.695  0.00  0.00    +0.000 A 
BRANCH  31  34
ATOM     34  C   UNL     1       6.680   5.369  15.391  0.00  0.00    +0.000 C 
ATOM     35  N   UNL     1       7.524   5.089  14.640  0.00  0.00    +0.000 NA
ENDBRANCH  31  34
ENDBRANCH  21  28
ENDBRANCH  20  21
ENDBRANCH  19  20
ENDBRANCH   1  19
TORSDOF 8
ENDMDL
MODEL 5
REMARK VINA RESULT:      -6.8      3.348      6.440
REMARK  Name = 
REMARK  9 active torsions:
REMARK  status: ('A' for Active; 'I' for Inactive)
REMARK    1  A    between atoms: C_1  and  N_2
REMARK    2  A    between atoms: C_6  and  C_7
REMARK    3  A    between atoms: C_7  and  O_8
REMARK    4  A    between atoms: C_7  and  C_28
REMARK    5  A    between atoms: O_8  and  C_9
REMARK    6  A    between atoms: C_9  and  C_10
REMARK    7  A    between atoms: C_13  and  C_14
REMARK    8  A    between atoms: C_17  and  C_18
REMARK    9  A    between atoms: C_31  and  C_32
REMARK                            x       y       z     vdW  Elec       q    Type
REMARK                         _______ _______ _______ _____ _____    ______ ____
ROOT
ATOM      1  C   UNL     1      -0.367  12.252  19.361  0.00  0.00    +0.000 A 
ATOM      2  C   UNL     1       0.678  12.184  20.313  0.00  0.00    +0.000 A 
ATOM      3  C   UNL     1       1.100  10.970  20.847  0.00  0.00    +0.000 A 
ATOM      4  C   UNL     1       0.516   9.791  20.406  0.00  0.00    +0.000 A 
ATOM      5  C   UNL     1      -0.476   9.835  19.414  0.00  0.00    +0.000 A 
ATOM      6  C   UNL     1      -0.999  11.050  18.907  0.00  0.00    +0.000 A 
ENDROOT
BRANCH   6   7
ATOM      7  C   UNL     1      -2.179  11.026  17.962  0.00  0.00    +0.000 A 
ATOM      8  C   UNL     1      -2.028  10.416  16.697  0.00  0.00    +0.000 A 
ATOM      9  C   UNL     1      -2.976  10.534  15.686  0.00  0.00    +0.000 A 
ATOM     10  C   UNL     1      -4.194  11.129  15.959  0.00  0.00    +0.000 A 
ATOM     11  C   UNL     1      -4.483  11.582  17.249  0.00  0.00    +0.000 A 
ATOM     12  C   UNL     1      -5.791  12.019  17.514  0.00  0.00    +0.000 A 
ATOM     13  C   UNL     1      -6.165  12.432  18.787  0.00  0.00    +0.000 A 
ATOM     14  C   UNL     1      -5.210  12.486  19.788  0.00  0.00    +0.000 A 
ATOM     15  C   UNL     1      -3.888  12.113  19.517  0.00  0.00    +0.000 A 
ATOM     16  C   UNL     1      -3.480  11.579  18.264  0.00  0.00    +0.000 A 
ENDBRANCH   6   7
BRANCH   4  17
ATOM     17  C   UNL     1       0.891   8.537  21.005  0.00  0.00    +0.000 C 
ATOM     18  N   UNL     1       1.180   7.512  21.454  0.00  0.00    +0.000 NA
ENDBRANCH   4  17
BRANCH   1  19
ATOM     19  C   UNL     1      -0.786  13.636  18.876  0.00  0.00    +0.000 C 
BRANCH  19  20
ATOM     20  O   UNL     1       0.338  14.404  18.424  0.00  0.00    +0.000 OA
BRANCH  20  21
ATOM     21  C   UNL     1       0.589  15.558  19.230  0.00  0.00    +0.000 C 
BRANCH  21  27
ATOM     22  C   UNL     1      -1.785  16.785  21.068  0.00  0.00    +0.000 C 
ATOM     23  N   UNL     1      -1.386  17.174  19.736  0.00  0.00    +0.000 N 
ATOM     24  C   UNL     1      -1.961  18.220  19.060  0.00  0.00    +0.000 A 
ATOM     25  N   UNL     1      -1.458  18.358  17.860  0.00  0.00    +0.000 NA
ATOM     26  C   UNL     1      -0.512  17.381  17.753  0.00  0.00    +0.000 A 
ATOM     27  C   UNL     1      -0.402  16.647  18.924  0.00  0.00    +0.000 A 
ENDBRANCH  21  27
BRANCH  21  28
ATOM     28  C   UNL     1       2.016  16.016  19.028  0.00  0.00    +0.000 A 
ATOM     29  C   UNL     1       2.876  15.343  18.148  0.00  0.00    +0.000 A 
ATOM     30  C   UNL     1       4.211  15.730  18.047  0.00  0.00    +0.000 A 
ATOM     31  C   UNL     1       4.650  16.785  18.834  0.00  0.00    +0.000 A 
ATOM     32  N   UNL     1       3.843  17.480  19.672  0.00  0.00    +0.000 NA
ATOM     33  C   UNL     1       2.551  17.082  19.743  0.00  0.00    +0.000 A 
BRANCH  31  34
ATOM     34  C   UNL     1       6.031  17.180  18.824  0.00  0.00    +0.000 C 
ATOM     35  N   UNL     1       7.161  17.454  18.829  0.00  0.00    +0.000 NA
ENDBRANCH  31  34
ENDBRANCH  21  28
ENDBRANCH  20  21
ENDBRANCH  19  20
ENDBRANCH   1  19
TORSDOF 8
ENDMDL
MODEL 6
REMARK VINA RESULT:      -6.8      3.217      7.293
REMARK  Name = 
REMARK  9 active torsions:
REMARK  status: ('A' for Active; 'I' for Inactive)
REMARK    1  A    between atoms: C_1  and  N_2
REMARK    2  A    between atoms: C_6  and  C_7
REMARK    3  A    between atoms: C_7  and  O_8
REMARK    4  A    between atoms: C_7  and  C_28
REMARK    5  A    between atoms: O_8  and  C_9
REMARK    6  A    between atoms: C_9  and  C_10
REMARK    7  A    between atoms: C_13  and  C_14
REMARK    8  A    between atoms: C_17  and  C_18
REMARK    9  A    between atoms: C_31  and  C_32
REMARK                            x       y       z     vdW  Elec       q    Type
REMARK                         _______ _______ _______ _____ _____    ______ ____
ROOT
ATOM      1  C   UNL     1      -3.672  11.621  18.712  0.00  0.00    +0.000 A 
ATOM      2  C   UNL     1      -4.706  11.593  17.745  0.00  0.00    +0.000 A 
ATOM      3  C   UNL     1      -4.477  11.145  16.446  0.00  0.00    +0.000 A 
ATOM      4  C   UNL     1      -3.221  10.673  16.099  0.00  0.00    +0.000 A 
ATOM      5  C   UNL     1      -2.202  10.632  17.064  0.00  0.00    +0.000 A 
ATOM      6  C   UNL     1      -2.361  11.158  18.370  0.00  0.00    +0.000 A 
ENDROOT
BRANCH   6   7
ATOM      7  C   UNL     1      -1.174  11.231  19.303  0.00  0.00    +0.000 A 
ATOM      8  C   UNL     1      -0.747  10.053  19.956  0.00  0.00    +0.000 A 
ATOM      9  C   UNL     1       0.186  10.061  20.988  0.00  0.00    +0.000 A 
ATOM     10  C   UNL     1       0.856  11.231  21.293  0.00  0.00    +0.000 A 
ATOM     11  C   UNL     1       0.619  12.391  20.552  0.00  0.00    +0.000 A 
ATOM     12  C   UNL     1       1.446  13.502  20.788  0.00  0.00    +0.000 A 
ATOM     13  C   UNL     1       1.304  14.672  20.051  0.00  0.00    +0.000 A 
ATOM     14  C   UNL     1       0.281  14.767  19.124  0.00  0.00    +0.000 A 
ATOM     15  C   UNL     1      -0.589  13.687  18.927  0.00  0.00    +0.000 A 
ATOM     16  C   UNL     1      -0.418  12.432  19.574  0.00  0.00    +0.000 A 
ENDBRANCH   6   7
BRANCH   4  17
ATOM     17  C   UNL     1      -2.952  10.279  14.741  0.00  0.00    +0.000 C 
ATOM     18  N   UNL     1      -2.764   9.934  13.653  0.00  0.00    +0.000 NA
ENDBRANCH   4  17
BRANCH   1  19
ATOM     19  C   UNL     1      -4.016  12.175  20.090  0.00  0.00    +0.000 C 
BRANCH  19  20
ATOM     20  O   UNL     1      -3.868  13.601  20.142  0.00  0.00    +0.000 OA
BRANCH  20  21
ATOM     21  C   UNL     1      -4.580  14.199  21.229  0.00  0.00    +0.000 C 
BRANCH  21  27
ATOM     22  C   UNL     1      -7.806  14.543  21.210  0.00  0.00    +0.000 C 
ATOM     23  N   UNL     1      -6.798  15.481  20.775  0.00  0.00    +0.000 N 
ATOM     24  C   UNL     1      -7.098  16.742  20.326  0.00  0.00    +0.000 A 
ATOM     25  N   UNL     1      -6.024  17.393  19.956  0.00  0.00    +0.000 NA
ATOM     26  C   UNL     1      -4.988  16.536  20.187  0.00  0.00    +0.000 A 
ATOM     27  C   UNL     1      -5.425  15.345  20.744  0.00  0.00    +0.000 A 
ENDBRANCH  21  27
BRANCH  21  28
ATOM     28  C   UNL     1      -3.603  14.627  22.300  0.00  0.00    +0.000 A 
ATOM     29  C   UNL     1      -2.221  14.466  22.127  0.00  0.00    +0.000 A 
ATOM     30  C   UNL     1      -1.348  14.786  23.165  0.00  0.00    +0.000 A 
ATOM     31  C   UNL     1      -1.885  15.259  24.354  0.00  0.00    +0.000 A 
ATOM     32  N   UNL     1      -3.211  15.457  24.548  0.00  0.00    +0.000 NA
ATOM     33  C   UNL     1      -4.032  15.142  23.519  0.00  0.00    +0.000 A 
BRANCH  31  34
ATOM     34  C   UNL     1      -1.038  15.535  25.480  0.00  0.00    +0.000 C 
ATOM     35  N   UNL     1      -0.372  15.804  26.395  0.00  0.00    +0.000 NA
ENDBRANCH  31  34
ENDBRANCH  21  28
ENDBRANCH  20  21
ENDBRANCH  19  20
ENDBRANCH   1  19
TORSDOF 8
ENDMDL
MODEL 7
REMARK VINA RESULT:      -6.7      3.466      8.046
REMARK  Name = 
REMARK  9 active torsions:
REMARK  status: ('A' for Active; 'I' for Inactive)
REMARK    1  A    between atoms: C_1  and  N_2
REMARK    2  A    between atoms: C_6  and  C_7
REMARK    3  A    between atoms: C_7  and  O_8
REMARK    4  A    between atoms: C_7  and  C_28
REMARK    5  A    between atoms: O_8  and  C_9
REMARK    6  A    between atoms: C_9  and  C_10
REMARK    7  A    between atoms: C_13  and  C_14
REMARK    8  A    between atoms: C_17  and  C_18
REMARK    9  A    between atoms: C_31  and  C_32
REMARK                            x       y       z     vdW  Elec       q    Type
REMARK                         _______ _______ _______ _____ _____    ______ ____
ROOT
ATOM      1  C   UNL     1      -0.520  12.503  18.985  0.00  0.00    +0.000 A 
ATOM      2  C   UNL     1      -0.581  13.844  18.533  0.00  0.00    +0.000 A 
ATOM      3  C   UNL     1       0.477  14.727  18.729  0.00  0.00    +0.000 A 
ATOM      4  C   UNL     1       1.637  14.278  19.341  0.00  0.00    +0.000 A 
ATOM      5  C   UNL     1       1.739  12.935  19.737  0.00  0.00    +0.000 A 
ATOM      6  C   UNL     1       0.660  12.023  19.639  0.00  0.00    +0.000 A 
ENDROOT
BRANCH   6   7
ATOM      7  C   UNL     1       0.786  10.639  20.234  0.00  0.00    +0.000 A 
ATOM      8  C   UNL     1       0.243  10.396  21.515  0.00  0.00    +0.000 A 
ATOM      9  C   UNL     1       0.496   9.230  22.232  0.00  0.00    +0.000 A 
ATOM     10  C   UNL     1       1.168   8.187  21.622  0.00  0.00    +0.000 A 
ATOM     11  C   UNL     1       1.564   8.290  20.286  0.00  0.00    +0.000 A 
ATOM     12  C   UNL     1       2.086   7.144  19.666  0.00  0.00    +0.000 A 
ATOM     13  C   UNL     1       2.451   7.157  18.325  0.00  0.00    +0.000 A 
ATOM     14  C   UNL     1       2.369   8.342  17.613  0.00  0.00    +0.000 A 
ATOM     15  C   UNL     1       1.909   9.506  18.241  0.00  0.00    +0.000 A 
ATOM     16  C   UNL     1       1.420   9.519  19.577  0.00  0.00    +0.000 A 
ENDBRANCH   6   7
BRANCH   4  17
ATOM     17  C   UNL     1       2.707  15.201  19.617  0.00  0.00    +0.000 C 
ATOM     18  N   UNL     1       3.584  15.929  19.807  0.00  0.00    +0.000 NA
ENDBRANCH   4  17
BRANCH   1  19
ATOM     19  C   UNL     1      -1.751  11.632  18.764  0.00  0.00    +0.000 C 
BRANCH  19  20
ATOM     20  O   UNL     1      -2.959  12.407  18.761  0.00  0.00    +0.000 OA
BRANCH  20  21
ATOM     21  C   UNL     1      -3.765  12.192  19.923  0.00  0.00    +0.000 C 
BRANCH  21  27
ATOM     22  C   UNL     1      -6.256  12.513  21.975  0.00  0.00    +0.000 C 
ATOM     23  N   UNL     1      -6.236  12.716  20.546  0.00  0.00    +0.000 N 
ATOM     24  C   UNL     1      -7.326  13.157  19.840  0.00  0.00    +0.000 A 
ATOM     25  N   UNL     1      -7.076  13.231  18.557  0.00  0.00    +0.000 NA
ATOM     26  C   UNL     1      -5.775  12.841  18.422  0.00  0.00    +0.000 A 
ATOM     27  C   UNL     1      -5.198  12.555  19.650  0.00  0.00    +0.000 A 
ENDBRANCH  21  27
BRANCH  21  28
ATOM     28  C   UNL     1      -3.193  12.969  21.086  0.00  0.00    +0.000 A 
ATOM     29  C   UNL     1      -3.090  14.367  21.044  0.00  0.00    +0.000 A 
ATOM     30  C   UNL     1      -2.477  15.052  22.093  0.00  0.00    +0.000 A 
ATOM     31  C   UNL     1      -1.983  14.314  23.159  0.00  0.00    +0.000 A 
ATOM     32  N   UNL     1      -2.093  12.967  23.251  0.00  0.00    +0.000 NA
ATOM     33  C   UNL     1      -2.696  12.332  22.219  0.00  0.00    +0.000 A 
BRANCH  31  34
ATOM     34  C   UNL     1      -1.280  14.961  24.231  0.00  0.00    +0.000 C 
ATOM     35  N   UNL     1      -0.715  15.527  25.076  0.00  0.00    +0.000 NA
ENDBRANCH  31  34
ENDBRANCH  21  28
ENDBRANCH  20  21
ENDBRANCH  19  20
ENDBRANCH   1  19
TORSDOF 8
ENDMDL
MODEL 8
REMARK VINA RESULT:      -6.6      2.483      6.130
REMARK  Name = 
REMARK  9 active torsions:
REMARK  status: ('A' for Active; 'I' for Inactive)
REMARK    1  A    between atoms: C_1  and  N_2
REMARK    2  A    between atoms: C_6  and  C_7
REMARK    3  A    between atoms: C_7  and  O_8
REMARK    4  A    between atoms: C_7  and  C_28
REMARK    5  A    between atoms: O_8  and  C_9
REMARK    6  A    between atoms: C_9  and  C_10
REMARK    7  A    between atoms: C_13  and  C_14
REMARK    8  A    between atoms: C_17  and  C_18
REMARK    9  A    between atoms: C_31  and  C_32
REMARK                            x       y       z     vdW  Elec       q    Type
REMARK                         _______ _______ _______ _____ _____    ______ ____
ROOT
ATOM      1  C   UNL     1      -2.633  11.886  18.660  0.00  0.00    +0.000 A 
ATOM      2  C   UNL     1      -3.580  11.307  17.781  0.00  0.00    +0.000 A 
ATOM      3  C   UNL     1      -4.944  11.332  18.061  0.00  0.00    +0.000 A 
ATOM      4  C   UNL     1      -5.394  11.975  19.204  0.00  0.00    +0.000 A 
ATOM      5  C   UNL     1      -4.474  12.611  20.052  0.00  0.00    +0.000 A 
ATOM      6  C   UNL     1      -3.073  12.538  19.856  0.00  0.00    +0.000 A 
ENDROOT
BRANCH   6   7
ATOM      7  C   UNL     1      -2.136  13.105  20.898  0.00  0.00    +0.000 A 
ATOM      8  C   UNL     1      -1.880  12.355  22.067  0.00  0.00    +0.000 A 
ATOM      9  C   UNL     1      -1.213  12.881  23.169  0.00  0.00    +0.000 A 
ATOM     10  C   UNL     1      -0.626  14.129  23.078  0.00  0.00    +0.000 A 
ATOM     11  C   UNL     1      -0.675  14.845  21.880  0.00  0.00    +0.000 A 
ATOM     12  C   UNL     1       0.080  16.025  21.788  0.00  0.00    +0.000 A 
ATOM     13  C   UNL     1       0.122  16.761  20.610  0.00  0.00    +0.000 A 
ATOM     14  C   UNL     1      -0.656  16.363  19.537  0.00  0.00    +0.000 A 
ATOM     15  C   UNL     1      -1.463  15.223  19.640  0.00  0.00    +0.000 A 
ATOM     16  C   UNL     1      -1.456  14.376  20.782  0.00  0.00    +0.000 A 
ENDBRANCH   6   7
BRANCH   4  17
ATOM     17  C   UNL     1      -6.793  11.942  19.542  0.00  0.00    +0.000 C 
ATOM     18  N   UNL     1      -7.916  11.879  19.806  0.00  0.00    +0.000 NA
ENDBRANCH   4  17
BRANCH   1  19
ATOM     19  C   UNL     1      -1.160  11.762  18.284  0.00  0.00    +0.000 C 
BRANCH  19  20
ATOM     20  O   UNL     1      -0.557  10.600  18.871  0.00  0.00    +0.000 OA
BRANCH  20  21
ATOM     21  C   UNL     1       0.815  10.436  18.506  0.00  0.00    +0.000 C 
BRANCH  21  27
ATOM     22  C   UNL     1       0.428   9.204  21.482  0.00  0.00    +0.000 C 
ATOM     23  N   UNL     1       1.176   8.660  20.373  0.00  0.00    +0.000 N 
ATOM     24  C   UNL     1       1.808   7.444  20.425  0.00  0.00    +0.000 A 
ATOM     25  N   UNL     1       2.448   7.181  19.313  0.00  0.00    +0.000 NA
ATOM     26  C   UNL     1       2.211   8.252  18.502  0.00  0.00    +0.000 A 
ATOM     27  C   UNL     1       1.380   9.180  19.111  0.00  0.00    +0.000 A 
ENDBRANCH  21  27
BRANCH  21  28
ATOM     28  C   UNL     1       1.598  11.663  18.913  0.00  0.00    +0.000 A 
ATOM     29  C   UNL     1       1.479  12.205  20.201  0.00  0.00    +0.000 A 
ATOM     30  C   UNL     1       2.142  13.389  20.522  0.00  0.00    +0.000 A 
ATOM     31  C   UNL     1       2.909  14.000  19.540  0.00  0.00    +0.000 A 
ATOM     32  N   UNL     1       3.073  13.490  18.295  0.00  0.00    +0.000 NA
ATOM     33  C   UNL     1       2.420  12.338  18.016  0.00  0.00    +0.000 A 
BRANCH  31  34
ATOM     34  C   UNL     1       3.555  15.257  19.793  0.00  0.00    +0.000 C 
ATOM     35  N   UNL     1       4.079  16.283  19.951  0.00  0.00    +0.000 NA
ENDBRANCH  31  34
ENDBRANCH  21  28
ENDBRANCH  20  21
ENDBRANCH  19  20
ENDBRANCH   1  19
TORSDOF 8
ENDMDL
MODEL 9
REMARK VINA RESULT:      -6.5      3.054      6.309
REMARK  Name = 
REMARK  9 active torsions:
REMARK  status: ('A' for Active; 'I' for Inactive)
REMARK    1  A    between atoms: C_1  and  N_2
REMARK    2  A    between atoms: C_6  and  C_7
REMARK    3  A    between atoms: C_7  and  O_8
REMARK    4  A    between atoms: C_7  and  C_28
REMARK    5  A    between atoms: O_8  and  C_9
REMARK    6  A    between atoms: C_9  and  C_10
REMARK    7  A    between atoms: C_13  and  C_14
REMARK    8  A    between atoms: C_17  and  C_18
REMARK    9  A    between atoms: C_31  and  C_32
REMARK                            x       y       z     vdW  Elec       q    Type
REMARK                         _______ _______ _______ _____ _____    ______ ____
ROOT
ATOM      1  C   UNL     1      -3.494  11.680  18.552  0.00  0.00    +0.000 A 
ATOM      2  C   UNL     1      -4.613  11.422  17.724  0.00  0.00    +0.000 A 
ATOM      3  C   UNL     1      -4.464  10.950  16.423  0.00  0.00    +0.000 A 
ATOM      4  C   UNL     1      -3.194  10.684  15.935  0.00  0.00    +0.000 A 
ATOM      5  C   UNL     1      -2.076  10.872  16.764  0.00  0.00    +0.000 A 
ATOM      6  C   UNL     1      -2.171  11.432  18.062  0.00  0.00    +0.000 A 
ENDROOT
BRANCH   6   7
ATOM      7  C   UNL     1      -0.914  11.759  18.835  0.00  0.00    +0.000 A 
ATOM      8  C   UNL     1      -0.229  12.960  18.546  0.00  0.00    +0.000 A 
ATOM      9  C   UNL     1       1.040  13.242  19.043  0.00  0.00    +0.000 A 
ATOM     10  C   UNL     1       1.604  12.404  19.987  0.00  0.00    +0.000 A 
ATOM     11  C   UNL     1       0.894  11.299  20.462  0.00  0.00    +0.000 A 
ATOM     12  C   UNL     1       1.437  10.583  21.540  0.00  0.00    +0.000 A 
ATOM     13  C   UNL     1       0.761   9.505  22.100  0.00  0.00    +0.000 A 
ATOM     14  C   UNL     1      -0.431   9.087  21.533  0.00  0.00    +0.000 A 
ATOM     15  C   UNL     1      -0.949   9.755  20.417  0.00  0.00    +0.000 A 
ATOM     16  C   UNL     1      -0.353  10.929  19.877  0.00  0.00    +0.000 A 
ENDBRANCH   6   7
BRANCH   4  17
ATOM     17  C   UNL     1      -3.022  10.268  14.568  0.00  0.00    +0.000 C 
ATOM     18  N   UNL     1      -2.890   9.898  13.481  0.00  0.00    +0.000 NA
ENDBRANCH   4  17
BRANCH   1  19
ATOM     19  C   UNL     1      -3.764  12.241  19.943  0.00  0.00    +0.000 C 
BRANCH  19  20
ATOM     20  O   UNL     1      -3.040  13.457  20.178  0.00  0.00    +0.000 OA
BRANCH  20  21
ATOM     21  C   UNL     1      -2.725  13.664  21.557  0.00  0.00    +0.000 C 
BRANCH  21  27
ATOM     22  C   UNL     1      -4.043  12.980  24.440  0.00  0.00    +0.000 C 
ATOM     23  N   UNL     1      -4.398  14.031  23.515  0.00  0.00    +0.000 N 
ATOM     24  C   UNL     1      -5.360  14.970  23.786  0.00  0.00    +0.000 A 
ATOM     25  N   UNL     1      -5.528  15.796  22.785  0.00  0.00    +0.000 NA
ATOM     26  C   UNL     1      -4.633  15.395  21.836  0.00  0.00    +0.000 A 
ATOM     27  C   UNL     1      -3.873  14.321  22.272  0.00  0.00    +0.000 A 
ENDBRANCH  21  27
BRANCH  21  28
ATOM     28  C   UNL     1      -1.450  14.470  21.669  0.00  0.00    +0.000 A 
ATOM     29  C   UNL     1      -1.229  15.593  20.860  0.00  0.00    +0.000 A 
ATOM     30  C   UNL     1      -0.009  16.265  20.920  0.00  0.00    +0.000 A 
ATOM     31  C   UNL     1       0.961  15.790  21.792  0.00  0.00    +0.000 A 
ATOM     32  N   UNL     1       0.772  14.728  22.612  0.00  0.00    +0.000 NA
ATOM     33  C   UNL     1      -0.425  14.101  22.533  0.00  0.00    +0.000 A 
BRANCH  31  34
ATOM     34  C   UNL     1       2.260  16.400  21.843  0.00  0.00    +0.000 C 
ATOM     35  N   UNL     1       3.290  16.936  21.890  0.00  0.00    +0.000 NA
ENDBRANCH  31  34
ENDBRANCH  21  28
ENDBRANCH  20  21
ENDBRANCH  19  20
ENDBRANCH   1  19
TORSDOF 8
ENDMDL
