MODEL 1
REMARK VINA RESULT:      -6.9      0.000      0.000
REMARK  Name = 
REMARK  10 active torsions:
REMARK  status: ('A' for Active; 'I' for Inactive)
REMARK    1  A    between atoms: C_1  and  O_2
REMARK    2  A    between atoms: O_2  and  C_3
REMARK    3  A    between atoms: C_6  and  N_7
REMARK    4  A    between atoms: N_7  and  C_8
REMARK    5  A    between atoms: C_8  and  N_13
REMARK    6  A    between atoms: C_9  and  N_10
REMARK    7  A    between atoms: N_13  and  C_14
REMARK    8  A    between atoms: C_14  and  C_15
REMARK    9  A    between atoms: C_15  and  C_16
REMARK   10  A    between atoms: C_16  and  N_17
REMARK                            x       y       z     vdW  Elec       q    Type
REMARK                         _______ _______ _______ _____ _____    ______ ____
ROOT
ATOM      1  C   UNL     1       2.286   5.070  19.951  0.00  0.00    +0.000 C 
ATOM      2  C   UNL     1       2.149   4.347  21.079  0.00  0.00    +0.000 C 
ENDROOT
BRANCH   2   3
ATOM      3  N   UNL     1       1.496   3.066  21.160  0.00  0.00    +0.000 N 
ATOM      4  O   UNL     1       0.714   2.700  20.275  0.00  0.00    +0.000 OA
ATOM      5  O   UNL     1       1.739   2.422  22.189  0.00  0.00    +0.000 OA
ENDBRANCH   2   3
BRANCH   1   6
ATOM      6  N   UNL     1       2.822   6.353  20.042  0.00  0.00    +0.000 N 
ATOM      7  H   UNL     1       3.766   6.382  19.668  0.00  0.00    +0.000 HD
BRANCH   6  11
ATOM      8  C   UNL     1       0.863   9.939  18.858  0.00  0.00    +0.000 A 
ATOM      9  C   UNL     1       0.727   9.473  20.163  0.00  0.00    +0.000 A 
ATOM     10  C   UNL     1       1.371   8.303  20.581  0.00  0.00    +0.000 A 
ATOM     11  C   UNL     1       2.149   7.556  19.691  0.00  0.00    +0.000 A 
ATOM     12  C   UNL     1       2.320   8.061  18.391  0.00  0.00    +0.000 A 
ATOM     13  C   UNL     1       1.673   9.233  17.971  0.00  0.00    +0.000 A 
BRANCH   8  15
ATOM     14  C   UNL     1      -0.052  11.989  19.631  0.00  0.00    +0.000 C 
ATOM     15  O   UNL     1       0.140  11.062  18.572  0.00  0.00    +0.000 OA
ENDBRANCH   8  15
ENDBRANCH   6  11
ENDBRANCH   1   6
BRANCH   1  16
ATOM     16  N   UNL     1       1.949   4.628  18.676  0.00  0.00    +0.000 N 
ATOM     17  H   UNL     1       1.623   5.437  18.144  0.00  0.00    +0.000 HD
BRANCH  16  18
ATOM     18  C   UNL     1       2.878   3.857  17.847  0.00  0.00    +0.000 C 
BRANCH  18  19
ATOM     19  C   UNL     1       3.831   4.758  17.060  0.00  0.00    +0.000 C 
BRANCH  19  20
ATOM     20  C   UNL     1       5.202   4.085  16.983  0.00  0.00    +0.000 C 
BRANCH  20  21
ATOM     21  N   UNL     1       6.169   4.581  17.938  0.00  0.00    +0.000 N 
ATOM     22  C   UNL     1       7.459   4.943  17.666  0.00  0.00    +0.000 A 
ATOM     23  C   UNL     1       7.928   5.486  18.839  0.00  0.00    +0.000 A 
ATOM     24  N   UNL     1       6.958   5.466  19.808  0.00  0.00    +0.000 NA
ATOM     25  C   UNL     1       5.910   4.915  19.234  0.00  0.00    +0.000 A 
ENDBRANCH  20  21
ENDBRANCH  19  20
ENDBRANCH  18  19
ENDBRANCH  16  18
ENDBRANCH   1  16
TORSDOF 9
ENDMDL
MODEL 2
REMARK VINA RESULT:      -6.9      4.460      6.513
REMARK  Name = 
REMARK  10 active torsions:
REMARK  status: ('A' for Active; 'I' for Inactive)
REMARK    1  A    between atoms: C_1  and  O_2
REMARK    2  A    between atoms: O_2  and  C_3
REMARK    3  A    between atoms: C_6  and  N_7
REMARK    4  A    between atoms: N_7  and  C_8
REMARK    5  A    between atoms: C_8  and  N_13
REMARK    6  A    between atoms: C_9  and  N_10
REMARK    7  A    between atoms: N_13  and  C_14
REMARK    8  A    between atoms: C_14  and  C_15
REMARK    9  A    between atoms: C_15  and  C_16
REMARK   10  A    between atoms: C_16  and  N_17
REMARK                            x       y       z     vdW  Elec       q    Type
REMARK                         _______ _______ _______ _____ _____    ______ ____
ROOT
ATOM      1  C   UNL     1       5.710   6.194  17.132  0.00  0.00    +0.000 C 
ATOM      2  C   UNL     1       6.148   4.922  17.196  0.00  0.00    +0.000 C 
ENDROOT
BRANCH   2   3
ATOM      3  N   UNL     1       7.493   4.501  16.901  0.00  0.00    +0.000 N 
ATOM      4  O   UNL     1       8.247   4.120  17.804  0.00  0.00    +0.000 OA
ATOM      5  O   UNL     1       7.824   4.609  15.713  0.00  0.00    +0.000 OA
ENDBRANCH   2   3
BRANCH   1   6
ATOM      6  N   UNL     1       4.351   6.442  17.314  0.00  0.00    +0.000 N 
ATOM      7  H   UNL     1       3.886   6.598  16.424  0.00  0.00    +0.000 HD
BRANCH   6  11
ATOM      8  C   UNL     1       1.711   4.157  19.745  0.00  0.00    +0.000 A 
ATOM      9  C   UNL     1       2.515   5.136  20.324  0.00  0.00    +0.000 A 
ATOM     10  C   UNL     1       3.382   5.910  19.545  0.00  0.00    +0.000 A 
ATOM     11  C   UNL     1       3.484   5.702  18.165  0.00  0.00    +0.000 A 
ATOM     12  C   UNL     1       2.634   4.747  17.584  0.00  0.00    +0.000 A 
ATOM     13  C   UNL     1       1.765   3.970  18.366  0.00  0.00    +0.000 A 
BRANCH   8  15
ATOM     14  C   UNL     1       1.649   2.698  21.617  0.00  0.00    +0.000 C 
ATOM     15  O   UNL     1       0.952   3.443  20.628  0.00  0.00    +0.000 OA
ENDBRANCH   8  15
ENDBRANCH   6  11
ENDBRANCH   1   6
BRANCH   1  16
ATOM     16  N   UNL     1       6.519   7.305  16.915  0.00  0.00    +0.000 N 
ATOM     17  H   UNL     1       5.910   8.121  16.838  0.00  0.00    +0.000 HD
BRANCH  16  18
ATOM     18  C   UNL     1       7.644   7.633  17.793  0.00  0.00    +0.000 C 
BRANCH  18  19
ATOM     19  C   UNL     1       8.115   9.076  17.612  0.00  0.00    +0.000 C 
BRANCH  19  20
ATOM     20  C   UNL     1       8.856   9.520  18.874  0.00  0.00    +0.000 C 
BRANCH  20  21
ATOM     21  N   UNL     1       9.360  10.875  18.830  0.00  0.00    +0.000 N 
ATOM     22  C   UNL     1       8.968  11.854  17.960  0.00  0.00    +0.000 A 
ATOM     23  C   UNL     1       9.605  12.992  18.398  0.00  0.00    +0.000 A 
ATOM     24  N   UNL     1      10.363  12.728  19.509  0.00  0.00    +0.000 NA
ATOM     25  C   UNL     1      10.195  11.444  19.745  0.00  0.00    +0.000 A 
ENDBRANCH  20  21
ENDBRANCH  19  20
ENDBRANCH  18  19
ENDBRANCH  16  18
ENDBRANCH   1  16
TORSDOF 9
ENDMDL
MODEL 3
REMARK VINA RESULT:      -6.9      2.506      5.627
REMARK  Name = 
REMARK  10 active torsions:
REMARK  status: ('A' for Active; 'I' for Inactive)
REMARK    1  A    between atoms: C_1  and  O_2
REMARK    2  A    between atoms: O_2  and  C_3
REMARK    3  A    between atoms: C_6  and  N_7
REMARK    4  A    between atoms: N_7  and  C_8
REMARK    5  A    between atoms: C_8  and  N_13
REMARK    6  A    between atoms: C_9  and  N_10
REMARK    7  A    between atoms: N_13  and  C_14
REMARK    8  A    between atoms: C_14  and  C_15
REMARK    9  A    between atoms: C_15  and  C_16
REMARK   10  A    between atoms: C_16  and  N_17
REMARK                            x       y       z     vdW  Elec       q    Type
REMARK                         _______ _______ _______ _____ _____    ______ ____
ROOT
ATOM      1  C   UNL     1       3.228   2.971  18.708  0.00  0.00    +0.000 C 
ATOM      2  C   UNL     1       3.331   2.501  19.966  0.00  0.00    +0.000 C 
ENDROOT
BRANCH   2   3
ATOM      3  N   UNL     1       2.302   2.600  20.967  0.00  0.00    +0.000 N 
ATOM      4  O   UNL     1       2.589   2.826  22.148  0.00  0.00    +0.000 OA
ATOM      5  O   UNL     1       1.153   2.386  20.556  0.00  0.00    +0.000 OA
ENDBRANCH   2   3
BRANCH   1   6
ATOM      6  N   UNL     1       4.350   2.927  17.884  0.00  0.00    +0.000 N 
ATOM      7  H   UNL     1       4.158   2.408  17.033  0.00  0.00    +0.000 HD
BRANCH   6  11
ATOM      8  C   UNL     1       6.908   6.233  17.090  0.00  0.00    +0.000 A 
ATOM      9  C   UNL     1       6.107   5.716  16.075  0.00  0.00    +0.000 A 
ATOM     10  C   UNL     1       5.247   4.638  16.313  0.00  0.00    +0.000 A 
ATOM     11  C   UNL     1       5.190   4.032  17.573  0.00  0.00    +0.000 A 
ATOM     12  C   UNL     1       5.965   4.592  18.602  0.00  0.00    +0.000 A 
ATOM     13  C   UNL     1       6.828   5.672  18.363  0.00  0.00    +0.000 A 
BRANCH   8  15
ATOM     14  C   UNL     1       7.881   8.335  17.611  0.00  0.00    +0.000 C 
ATOM     15  O   UNL     1       7.735   7.249  16.706  0.00  0.00    +0.000 OA
ENDBRANCH   8  15
ENDBRANCH   6  11
ENDBRANCH   1   6
BRANCH   1  16
ATOM     16  N   UNL     1       2.065   3.489  18.145  0.00  0.00    +0.000 N 
ATOM     17  H   UNL     1       1.280   3.187  18.725  0.00  0.00    +0.000 HD
BRANCH  16  18
ATOM     18  C   UNL     1       1.913   4.915  17.845  0.00  0.00    +0.000 C 
BRANCH  18  19
ATOM     19  C   UNL     1       2.366   5.799  19.007  0.00  0.00    +0.000 C 
BRANCH  19  20
ATOM     20  C   UNL     1       2.878   7.129  18.450  0.00  0.00    +0.000 C 
BRANCH  20  21
ATOM     21  N   UNL     1       2.036   8.268  18.746  0.00  0.00    +0.000 N 
ATOM     22  C   UNL     1       1.458   8.553  19.951  0.00  0.00    +0.000 A 
ATOM     23  C   UNL     1       0.890   9.795  19.785  0.00  0.00    +0.000 A 
ATOM     24  N   UNL     1       1.114  10.268  18.519  0.00  0.00    +0.000 NA
ATOM     25  C   UNL     1       1.808   9.325  17.916  0.00  0.00    +0.000 A 
ENDBRANCH  20  21
ENDBRANCH  19  20
ENDBRANCH  18  19
ENDBRANCH  16  18
ENDBRANCH   1  16
TORSDOF 9
ENDMDL
MODEL 4
REMARK VINA RESULT:      -6.9      1.813      2.446
REMARK  Name = 
REMARK  10 active torsions:
REMARK  status: ('A' for Active; 'I' for Inactive)
REMARK    1  A    between atoms: C_1  and  O_2
REMARK    2  A    between atoms: O_2  and  C_3
REMARK    3  A    between atoms: C_6  and  N_7
REMARK    4  A    between atoms: N_7  and  C_8
REMARK    5  A    between atoms: C_8  and  N_13
REMARK    6  A    between atoms: C_9  and  N_10
REMARK    7  A    between atoms: N_13  and  C_14
REMARK    8  A    between atoms: C_14  and  C_15
REMARK    9  A    between atoms: C_15  and  C_16
REMARK   10  A    between atoms: C_16  and  N_17
REMARK                            x       y       z     vdW  Elec       q    Type
REMARK                         _______ _______ _______ _____ _____    ______ ____
ROOT
ATOM      1  C   UNL     1       2.656   4.567  19.740  0.00  0.00    +0.000 C 
ATOM      2  C   UNL     1       1.424   4.213  19.326  0.00  0.00    +0.000 C 
ENDROOT
BRANCH   2   3
ATOM      3  N   UNL     1       1.124   3.038  18.550  0.00  0.00    +0.000 N 
ATOM      4  O   UNL     1       1.742   2.797  17.507  0.00  0.00    +0.000 OA
ATOM      5  O   UNL     1       0.185   2.356  18.980  0.00  0.00    +0.000 OA
ENDBRANCH   2   3
BRANCH   1   6
ATOM      6  N   UNL     1       2.820   5.798  20.370  0.00  0.00    +0.000 N 
ATOM      7  H   UNL     1       3.794   5.960  20.606  0.00  0.00    +0.000 HD
BRANCH   6  11
ATOM      8  C   UNL     1       1.130   9.447  18.981  0.00  0.00    +0.000 A 
ATOM      9  C   UNL     1       0.931   9.048  20.301  0.00  0.00    +0.000 A 
ATOM     10  C   UNL     1       1.487   7.860  20.786  0.00  0.00    +0.000 A 
ATOM     11  C   UNL     1       2.236   7.025  19.950  0.00  0.00    +0.000 A 
ATOM     12  C   UNL     1       2.471   7.460  18.635  0.00  0.00    +0.000 A 
ATOM     13  C   UNL     1       1.913   8.652  18.148  0.00  0.00    +0.000 A 
BRANCH   8  15
ATOM     14  C   UNL     1       1.100  11.821  19.019  0.00  0.00    +0.000 C 
ATOM     15  O   UNL     1       0.488  10.600  18.628  0.00  0.00    +0.000 OA
ENDBRANCH   8  15
ENDBRANCH   6  11
ENDBRANCH   1   6
BRANCH   1  16
ATOM     16  N   UNL     1       3.797   3.782  19.605  0.00  0.00    +0.000 N 
ATOM     17  H   UNL     1       3.508   2.883  19.215  0.00  0.00    +0.000 HD
BRANCH  16  18
ATOM     18  C   UNL     1       4.985   4.251  18.888  0.00  0.00    +0.000 C 
BRANCH  18  19
ATOM     19  C   UNL     1       4.638   4.839  17.520  0.00  0.00    +0.000 C 
BRANCH  19  20
ATOM     20  C   UNL     1       4.994   3.821  16.436  0.00  0.00    +0.000 C 
BRANCH  20  21
ATOM     21  N   UNL     1       6.015   4.262  15.510  0.00  0.00    +0.000 N 
ATOM     22  C   UNL     1       6.092   3.942  14.183  0.00  0.00    +0.000 A 
ATOM     23  C   UNL     1       7.127   4.708  13.696  0.00  0.00    +0.000 A 
ATOM     24  N   UNL     1       7.670   5.482  14.688  0.00  0.00    +0.000 NA
ATOM     25  C   UNL     1       6.978   5.191  15.769  0.00  0.00    +0.000 A 
ENDBRANCH  20  21
ENDBRANCH  19  20
ENDBRANCH  18  19
ENDBRANCH  16  18
ENDBRANCH   1  16
TORSDOF 9
ENDMDL
MODEL 5
REMARK VINA RESULT:      -6.9      2.633      4.516
REMARK  Name = 
REMARK  10 active torsions:
REMARK  status: ('A' for Active; 'I' for Inactive)
REMARK    1  A    between atoms: C_1  and  O_2
REMARK    2  A    between atoms: O_2  and  C_3
REMARK    3  A    between atoms: C_6  and  N_7
REMARK    4  A    between atoms: N_7  and  C_8
REMARK    5  A    between atoms: C_8  and  N_13
REMARK    6  A    between atoms: C_9  and  N_10
REMARK    7  A    between atoms: N_13  and  C_14
REMARK    8  A    between atoms: C_14  and  C_15
REMARK    9  A    between atoms: C_15  and  C_16
REMARK   10  A    between atoms: C_16  and  N_17
REMARK                            x       y       z     vdW  Elec       q    Type
REMARK                         _______ _______ _______ _____ _____    ______ ____
ROOT
ATOM      1  C   UNL     1       5.214   5.373  17.727  0.00  0.00    +0.000 C 
ATOM      2  C   UNL     1       6.228   5.978  18.375  0.00  0.00    +0.000 C 
ENDROOT
BRANCH   2   3
ATOM      3  N   UNL     1       7.305   5.291  19.040  0.00  0.00    +0.000 N 
ATOM      4  O   UNL     1       7.579   5.539  20.220  0.00  0.00    +0.000 OA
ATOM      5  O   UNL     1       7.940   4.503  18.326  0.00  0.00    +0.000 OA
ENDBRANCH   2   3
BRANCH   1   6
ATOM      6  N   UNL     1       4.169   6.156  17.244  0.00  0.00    +0.000 N 
ATOM      7  H   UNL     1       3.624   5.651  16.551  0.00  0.00    +0.000 HD
BRANCH   6  11
ATOM      8  C   UNL     1       1.546   8.407  19.725  0.00  0.00    +0.000 A 
ATOM      9  C   UNL     1       1.923   8.906  18.480  0.00  0.00    +0.000 A 
ATOM     10  C   UNL     1       2.773   8.180  17.639  0.00  0.00    +0.000 A 
ATOM     11  C   UNL     1       3.291   6.944  18.039  0.00  0.00    +0.000 A 
ATOM     12  C   UNL     1       2.867   6.427  19.275  0.00  0.00    +0.000 A 
ATOM     13  C   UNL     1       2.015   7.156  20.118  0.00  0.00    +0.000 A 
BRANCH   8  15
ATOM     14  C   UNL     1       0.088   8.673  21.579  0.00  0.00    +0.000 C 
ATOM     15  O   UNL     1       0.755   9.242  20.461  0.00  0.00    +0.000 OA
ENDBRANCH   8  15
ENDBRANCH   6  11
ENDBRANCH   1   6
BRANCH   1  16
ATOM     16  N   UNL     1       5.132   4.006  17.478  0.00  0.00    +0.000 N 
ATOM     17  H   UNL     1       5.127   3.528  18.381  0.00  0.00    +0.000 HD
BRANCH  16  18
ATOM     18  C   UNL     1       4.087   3.431  16.630  0.00  0.00    +0.000 C 
BRANCH  18  19
ATOM     19  C   UNL     1       2.839   3.053  17.428  0.00  0.00    +0.000 C 
BRANCH  19  20
ATOM     20  C   UNL     1       3.246   2.136  18.583  0.00  0.00    +0.000 C 
BRANCH  20  21
ATOM     21  N   UNL     1       2.663   2.484  19.860  0.00  0.00    +0.000 N 
ATOM     22  C   UNL     1       1.338   2.710  20.108  0.00  0.00    +0.000 A 
ATOM     23  C   UNL     1       1.254   2.852  21.474  0.00  0.00    +0.000 A 
ATOM     24  N   UNL     1       2.487   2.713  22.056  0.00  0.00    +0.000 NA
ATOM     25  C   UNL     1       3.316   2.492  21.058  0.00  0.00    +0.000 A 
ENDBRANCH  20  21
ENDBRANCH  19  20
ENDBRANCH  18  19
ENDBRANCH  16  18
ENDBRANCH   1  16
TORSDOF 9
ENDMDL
MODEL 6
REMARK VINA RESULT:      -6.8      1.077      1.569
REMARK  Name = 
REMARK  10 active torsions:
REMARK  status: ('A' for Active; 'I' for Inactive)
REMARK    1  A    between atoms: C_1  and  O_2
REMARK    2  A    between atoms: O_2  and  C_3
REMARK    3  A    between atoms: C_6  and  N_7
REMARK    4  A    between atoms: N_7  and  C_8
REMARK    5  A    between atoms: C_8  and  N_13
REMARK    6  A    between atoms: C_9  and  N_10
REMARK    7  A    between atoms: N_13  and  C_14
REMARK    8  A    between atoms: C_14  and  C_15
REMARK    9  A    between atoms: C_15  and  C_16
REMARK   10  A    between atoms: C_16  and  N_17
REMARK                            x       y       z     vdW  Elec       q    Type
REMARK                         _______ _______ _______ _____ _____    ______ ____
ROOT
ATOM      1  C   UNL     1       2.530   5.043  19.871  0.00  0.00    +0.000 C 
ATOM      2  C   UNL     1       2.129   4.486  21.030  0.00  0.00    +0.000 C 
ENDROOT
BRANCH   2   3
ATOM      3  N   UNL     1       1.478   3.207  21.145  0.00  0.00    +0.000 N 
ATOM      4  O   UNL     1       0.708   2.809  20.264  0.00  0.00    +0.000 OA
ATOM      5  O   UNL     1       1.710   2.599  22.198  0.00  0.00    +0.000 OA
ENDBRANCH   2   3
BRANCH   1   6
ATOM      6  N   UNL     1       3.026   6.344  19.892  0.00  0.00    +0.000 N 
ATOM      7  H   UNL     1       3.942   6.393  19.456  0.00  0.00    +0.000 HD
BRANCH   6  11
ATOM      8  C   UNL     1       0.781   9.852  19.019  0.00  0.00    +0.000 A 
ATOM      9  C   UNL     1       1.479   9.204  18.003  0.00  0.00    +0.000 A 
ATOM     10  C   UNL     1       2.214   8.042  18.260  0.00  0.00    +0.000 A 
ATOM     11  C   UNL     1       2.290   7.514  19.554  0.00  0.00    +0.000 A 
ATOM     12  C   UNL     1       1.543   8.146  20.561  0.00  0.00    +0.000 A 
ATOM     13  C   UNL     1       0.806   9.313  20.303  0.00  0.00    +0.000 A 
BRANCH   8  15
ATOM     14  C   UNL     1       0.882  12.212  18.777  0.00  0.00    +0.000 C 
ATOM     15  O   UNL     1       0.150  11.002  18.638  0.00  0.00    +0.000 OA
ENDBRANCH   8  15
ENDBRANCH   6  11
ENDBRANCH   1   6
BRANCH   1  16
ATOM     16  N   UNL     1       2.509   4.407  18.633  0.00  0.00    +0.000 N 
ATOM     17  H   UNL     1       2.408   5.128  17.917  0.00  0.00    +0.000 HD
BRANCH  16  18
ATOM     18  C   UNL     1       3.556   3.470  18.221  0.00  0.00    +0.000 C 
BRANCH  18  19
ATOM     19  C   UNL     1       4.660   4.158  17.417  0.00  0.00    +0.000 C 
BRANCH  19  20
ATOM     20  C   UNL     1       5.844   4.444  18.341  0.00  0.00    +0.000 C 
BRANCH  20  21
ATOM     21  N   UNL     1       6.473   5.729  18.130  0.00  0.00    +0.000 N 
ATOM     22  C   UNL     1       7.654   6.149  18.677  0.00  0.00    +0.000 A 
ATOM     23  C   UNL     1       7.914   7.357  18.072  0.00  0.00    +0.000 A 
ATOM     24  N   UNL     1       6.928   7.674  17.174  0.00  0.00    +0.000 NA
ATOM     25  C   UNL     1       6.074   6.674  17.232  0.00  0.00    +0.000 A 
ENDBRANCH  20  21
ENDBRANCH  19  20
ENDBRANCH  18  19
ENDBRANCH  16  18
ENDBRANCH   1  16
TORSDOF 9
ENDMDL
MODEL 7
REMARK VINA RESULT:      -6.8      0.998      1.772
REMARK  Name = 
REMARK  10 active torsions:
REMARK  status: ('A' for Active; 'I' for Inactive)
REMARK    1  A    between atoms: C_1  and  O_2
REMARK    2  A    between atoms: O_2  and  C_3
REMARK    3  A    between atoms: C_6  and  N_7
REMARK    4  A    between atoms: N_7  and  C_8
REMARK    5  A    between atoms: C_8  and  N_13
REMARK    6  A    between atoms: C_9  and  N_10
REMARK    7  A    between atoms: N_13  and  C_14
REMARK    8  A    between atoms: C_14  and  C_15
REMARK    9  A    between atoms: C_15  and  C_16
REMARK   10  A    between atoms: C_16  and  N_17
REMARK                            x       y       z     vdW  Elec       q    Type
REMARK                         _______ _______ _______ _____ _____    ______ ____
ROOT
ATOM      1  C   UNL     1       2.370   5.153  19.902  0.00  0.00    +0.000 C 
ATOM      2  C   UNL     1       2.145   4.509  21.064  0.00  0.00    +0.000 C 
ENDROOT
BRANCH   2   3
ATOM      3  N   UNL     1       1.500   3.227  21.182  0.00  0.00    +0.000 N 
ATOM      4  O   UNL     1       1.781   2.462  22.111  0.00  0.00    +0.000 OA
ATOM      5  O   UNL     1       0.713   2.954  20.265  0.00  0.00    +0.000 OA
ENDBRANCH   2   3
BRANCH   1   6
ATOM      6  N   UNL     1       2.884   6.447  19.945  0.00  0.00    +0.000 N 
ATOM      7  H   UNL     1       3.818   6.482  19.550  0.00  0.00    +0.000 HD
BRANCH   6  11
ATOM      8  C   UNL     1       0.733   9.987  18.976  0.00  0.00    +0.000 A 
ATOM      9  C   UNL     1       1.462   9.326  17.990  0.00  0.00    +0.000 A 
ATOM     10  C   UNL     1       2.167   8.153  18.280  0.00  0.00    +0.000 A 
ATOM     11  C   UNL     1       2.181   7.627  19.576  0.00  0.00    +0.000 A 
ATOM     12  C   UNL     1       1.403   8.273  20.551  0.00  0.00    +0.000 A 
ATOM     13  C   UNL     1       0.697   9.450  20.261  0.00  0.00    +0.000 A 
BRANCH   8  15
ATOM     14  C   UNL     1      -1.275  11.119  18.407  0.00  0.00    +0.000 C 
ATOM     15  O   UNL     1       0.136  11.146  18.568  0.00  0.00    +0.000 OA
ENDBRANCH   8  15
ENDBRANCH   6  11
ENDBRANCH   1   6
BRANCH   1  16
ATOM     16  N   UNL     1       2.145   4.616  18.639  0.00  0.00    +0.000 N 
ATOM     17  H   UNL     1       1.325   5.081  18.247  0.00  0.00    +0.000 HD
BRANCH  16  18
ATOM     18  C   UNL     1       3.194   4.561  17.618  0.00  0.00    +0.000 C 
BRANCH  18  19
ATOM     19  C   UNL     1       4.167   3.405  17.853  0.00  0.00    +0.000 C 
BRANCH  19  20
ATOM     20  C   UNL     1       5.439   3.949  18.504  0.00  0.00    +0.000 C 
BRANCH  20  21
ATOM     21  N   UNL     1       6.143   4.937  17.715  0.00  0.00    +0.000 N 
ATOM     22  C   UNL     1       6.504   6.189  18.127  0.00  0.00    +0.000 A 
ATOM     23  C   UNL     1       7.273   6.689  17.101  0.00  0.00    +0.000 A 
ATOM     24  N   UNL     1       7.389   5.774  16.088  0.00  0.00    +0.000 NA
ATOM     25  C   UNL     1       6.697   4.728  16.488  0.00  0.00    +0.000 A 
ENDBRANCH  20  21
ENDBRANCH  19  20
ENDBRANCH  18  19
ENDBRANCH  16  18
ENDBRANCH   1  16
TORSDOF 9
ENDMDL
MODEL 8
REMARK VINA RESULT:      -6.8      2.958      4.635
REMARK  Name = 
REMARK  10 active torsions:
REMARK  status: ('A' for Active; 'I' for Inactive)
REMARK    1  A    between atoms: C_1  and  O_2
REMARK    2  A    between atoms: O_2  and  C_3
REMARK    3  A    between atoms: C_6  and  N_7
REMARK    4  A    between atoms: N_7  and  C_8
REMARK    5  A    between atoms: C_8  and  N_13
REMARK    6  A    between atoms: C_9  and  N_10
REMARK    7  A    between atoms: N_13  and  C_14
REMARK    8  A    between atoms: C_14  and  C_15
REMARK    9  A    between atoms: C_15  and  C_16
REMARK   10  A    between atoms: C_16  and  N_17
REMARK                            x       y       z     vdW  Elec       q    Type
REMARK                         _______ _______ _______ _____ _____    ______ ____
ROOT
ATOM      1  C   UNL     1       4.855   6.196  17.521  0.00  0.00    +0.000 C 
ATOM      2  C   UNL     1       5.966   6.896  17.222  0.00  0.00    +0.000 C 
ENDROOT
BRANCH   2   3
ATOM      3  N   UNL     1       7.304   6.508  17.584  0.00  0.00    +0.000 N 
ATOM      4  O   UNL     1       7.716   5.366  17.348  0.00  0.00    +0.000 OA
ATOM      5  O   UNL     1       7.954   7.376  18.182  0.00  0.00    +0.000 OA
ENDBRANCH   2   3
BRANCH   1   6
ATOM      6  N   UNL     1       3.614   6.755  17.226  0.00  0.00    +0.000 N 
ATOM      7  H   UNL     1       3.032   6.102  16.710  0.00  0.00    +0.000 HD
BRANCH   6  11
ATOM      8  C   UNL     1       1.157   9.030  19.851  0.00  0.00    +0.000 A 
ATOM      9  C   UNL     1       1.692   7.816  20.278  0.00  0.00    +0.000 A 
ATOM     10  C   UNL     1       2.513   7.056  19.439  0.00  0.00    +0.000 A 
ATOM     11  C   UNL     1       2.798   7.481  18.137  0.00  0.00    +0.000 A 
ATOM     12  C   UNL     1       2.295   8.729  17.734  0.00  0.00    +0.000 A 
ATOM     13  C   UNL     1       1.470   9.491  18.575  0.00  0.00    +0.000 A 
BRANCH   8  15
ATOM     14  C   UNL     1      -0.131   8.850  21.837  0.00  0.00    +0.000 C 
ATOM     15  O   UNL     1       0.333   9.641  20.752  0.00  0.00    +0.000 OA
ENDBRANCH   8  15
ENDBRANCH   6  11
ENDBRANCH   1   6
BRANCH   1  16
ATOM     16  N   UNL     1       4.844   4.927  18.092  0.00  0.00    +0.000 N 
ATOM     17  H   UNL     1       4.226   4.960  18.904  0.00  0.00    +0.000 HD
BRANCH  16  18
ATOM     18  C   UNL     1       4.542   3.725  17.313  0.00  0.00    +0.000 C 
BRANCH  18  19
ATOM     19  C   UNL     1       3.058   3.361  17.367  0.00  0.00    +0.000 C 
BRANCH  19  20
ATOM     20  C   UNL     1       2.875   2.154  18.288  0.00  0.00    +0.000 C 
BRANCH  20  21
ATOM     21  N   UNL     1       2.502   2.485  19.646  0.00  0.00    +0.000 N 
ATOM     22  C   UNL     1       1.232   2.699  20.105  0.00  0.00    +0.000 A 
ATOM     23  C   UNL     1       1.366   2.828  21.468  0.00  0.00    +0.000 A 
ATOM     24  N   UNL     1       2.678   2.694  21.844  0.00  0.00    +0.000 NA
ATOM     25  C   UNL     1       3.337   2.488  20.724  0.00  0.00    +0.000 A 
ENDBRANCH  20  21
ENDBRANCH  19  20
ENDBRANCH  18  19
ENDBRANCH  16  18
ENDBRANCH   1  16
TORSDOF 9
ENDMDL
MODEL 9
REMARK VINA RESULT:      -6.7      4.560      6.903
REMARK  Name = 
REMARK  10 active torsions:
REMARK  status: ('A' for Active; 'I' for Inactive)
REMARK    1  A    between atoms: C_1  and  O_2
REMARK    2  A    between atoms: O_2  and  C_3
REMARK    3  A    between atoms: C_6  and  N_7
REMARK    4  A    between atoms: N_7  and  C_8
REMARK    5  A    between atoms: C_8  and  N_13
REMARK    6  A    between atoms: C_9  and  N_10
REMARK    7  A    between atoms: N_13  and  C_14
REMARK    8  A    between atoms: C_14  and  C_15
REMARK    9  A    between atoms: C_15  and  C_16
REMARK   10  A    between atoms: C_16  and  N_17
REMARK                            x       y       z     vdW  Elec       q    Type
REMARK                         _______ _______ _______ _____ _____    ______ ____
ROOT
ATOM      1  C   UNL     1       6.164   6.025  16.448  0.00  0.00    +0.000 C 
ATOM      2  C   UNL     1       5.880   5.251  15.382  0.00  0.00    +0.000 C 
ENDROOT
BRANCH   2   3
ATOM      3  N   UNL     1       6.818   4.905  14.346  0.00  0.00    +0.000 N 
ATOM      4  O   UNL     1       7.815   5.605  14.137  0.00  0.00    +0.000 OA
ATOM      5  O   UNL     1       6.507   3.912  13.674  0.00  0.00    +0.000 OA
ENDBRANCH   2   3
BRANCH   1   6
ATOM      6  N   UNL     1       5.126   6.389  17.303  0.00  0.00    +0.000 N 
ATOM      7  H   UNL     1       4.561   7.128  16.897  0.00  0.00    +0.000 HD
BRANCH   6  11
ATOM      8  C   UNL     1       2.702   3.625  19.444  0.00  0.00    +0.000 A 
ATOM      9  C   UNL     1       2.106   4.587  18.632  0.00  0.00    +0.000 A 
ATOM     10  C   UNL     1       2.881   5.498  17.907  0.00  0.00    +0.000 A 
ATOM     11  C   UNL     1       4.276   5.486  18.000  0.00  0.00    +0.000 A 
ATOM     12  C   UNL     1       4.869   4.482  18.783  0.00  0.00    +0.000 A 
ATOM     13  C   UNL     1       4.092   3.568  19.511  0.00  0.00    +0.000 A 
BRANCH   8  15
ATOM     14  C   UNL     1       1.821   2.965  21.548  0.00  0.00    +0.000 C 
ATOM     15  O   UNL     1       1.827   2.834  20.133  0.00  0.00    +0.000 OA
ENDBRANCH   8  15
ENDBRANCH   6  11
ENDBRANCH   1   6
BRANCH   1  16
ATOM     16  N   UNL     1       7.434   6.484  16.783  0.00  0.00    +0.000 N 
ATOM     17  H   UNL     1       7.777   7.042  15.999  0.00  0.00    +0.000 HD
BRANCH  16  18
ATOM     18  C   UNL     1       7.698   7.204  18.030  0.00  0.00    +0.000 C 
BRANCH  18  19
ATOM     19  C   UNL     1       7.970   8.690  17.792  0.00  0.00    +0.000 C 
BRANCH  19  20
ATOM     20  C   UNL     1       8.948   9.193  18.854  0.00  0.00    +0.000 C 
BRANCH  20  21
ATOM     21  N   UNL     1       9.037  10.634  18.955  0.00  0.00    +0.000 N 
ATOM     22  C   UNL     1       9.424  11.343  20.057  0.00  0.00    +0.000 A 
ATOM     23  C   UNL     1       9.497  12.648  19.629  0.00  0.00    +0.000 A 
ATOM     24  N   UNL     1       9.171  12.745  18.301  0.00  0.00    +0.000 NA
ATOM     25  C   UNL     1       8.899  11.514  17.923  0.00  0.00    +0.000 A 
ENDBRANCH  20  21
ENDBRANCH  19  20
ENDBRANCH  18  19
ENDBRANCH  16  18
ENDBRANCH   1  16
TORSDOF 9
ENDMDL
