MODEL 1
REMARK VINA RESULT:      -6.8      0.000      0.000
REMARK  Name = 
REMARK  7 active torsions:
REMARK  status: ('A' for Active; 'I' for Inactive)
REMARK    1  A    between atoms: C_1  and  C_2
REMARK    2  A    between atoms: C_2  and  C_3
REMARK    3  A    between atoms: C_2  and  N_9
REMARK    4  A    between atoms: C_3  and  C_4
REMARK    5  A    between atoms: C_10  and  C_12
REMARK    6  A    between atoms: C_12  and  C_13
REMARK    7  A    between atoms: C_12  and  N_14
REMARK                            x       y       z     vdW  Elec       q    Type
REMARK                         _______ _______ _______ _____ _____    ______ ____
ROOT
ATOM      1  N   UNL     1       5.110   4.026  18.291  0.00  0.00    +0.000 N 
ATOM      2  C   UNL     1       3.769   4.321  18.155  0.00  0.00    +0.000 C 
ATOM      3  O   UNL     1       3.360   5.467  17.961  0.00  0.00    +0.000 OA
ATOM      4  H   UNL     1       5.405   3.070  18.467  0.00  0.00    +0.000 HD
ENDROOT
BRANCH   1   6
ATOM      5  C   UNL     1       6.679   5.474  19.481  0.00  0.00    +0.000 C 
ATOM      6  C   UNL     1       6.147   5.040  18.114  0.00  0.00    +0.000 C 
BRANCH   6   7
ATOM      7  C   UNL     1       7.305   4.538  17.233  0.00  0.00    +0.000 C 
BRANCH   7   8
ATOM      8  C   UNL     1       6.934   4.426  15.796  0.00  0.00    +0.000 A 
ATOM      9  C   UNL     1       5.981   3.702  15.112  0.00  0.00    +0.000 A 
ATOM     10  C   UNL     1       6.109   4.062  13.749  0.00  0.00    +0.000 A 
ATOM     11  C   UNL     1       7.135   4.976  13.689  0.00  0.00    +0.000 A 
ATOM     12  O   UNL     1       7.641   5.206  14.928  0.00  0.00    +0.000 OA
ENDBRANCH   7   8
ENDBRANCH   6   7
ENDBRANCH   1   6
BRANCH   2  13
ATOM     13  C   UNL     1       2.828   3.131  18.259  0.00  0.00    +0.000 C 
ATOM     14  C   UNL     1       3.507   1.871  17.726  0.00  0.00    +0.000 C 
BRANCH  13  15
ATOM     15  N   UNL     1       2.379   2.966  19.629  0.00  0.00    +0.000 N 
ATOM     16  C   UNL     1       1.116   3.064  20.133  0.00  0.00    +0.000 A 
ATOM     17  N   UNL     1       1.144   2.884  21.432  0.00  0.00    +0.000 NA
ATOM     18  C   UNL     1       2.469   2.679  21.687  0.00  0.00    +0.000 A 
ATOM     19  N   UNL     1       3.271   2.737  20.619  0.00  0.00    +0.000 NA
ENDBRANCH  13  15
ENDBRANCH   2  13
TORSDOF 5
ENDMDL
MODEL 2
REMARK VINA RESULT:      -6.7      1.866      2.652
REMARK  Name = 
REMARK  7 active torsions:
REMARK  status: ('A' for Active; 'I' for Inactive)
REMARK    1  A    between atoms: C_1  and  C_2
REMARK    2  A    between atoms: C_2  and  C_3
REMARK    3  A    between atoms: C_2  and  N_9
REMARK    4  A    between atoms: C_3  and  C_4
REMARK    5  A    between atoms: C_10  and  C_12
REMARK    6  A    between atoms: C_12  and  C_13
REMARK    7  A    between atoms: C_12  and  N_14
REMARK                            x       y       z     vdW  Elec       q    Type
REMARK                         _______ _______ _______ _____ _____    ______ ____
ROOT
ATOM      1  N   UNL     1       2.867   5.160  18.367  0.00  0.00    +0.000 N 
ATOM      2  C   UNL     1       2.008   4.185  17.901  0.00  0.00    +0.000 C 
ATOM      3  O   UNL     1       1.073   4.436  17.139  0.00  0.00    +0.000 OA
ATOM      4  H   UNL     1       3.615   4.915  19.008  0.00  0.00    +0.000 HD
ENDROOT
BRANCH   1   6
ATOM      5  C   UNL     1       2.295   7.437  19.048  0.00  0.00    +0.000 C 
ATOM      6  C   UNL     1       2.787   6.545  17.907  0.00  0.00    +0.000 C 
BRANCH   6   7
ATOM      7  C   UNL     1       4.138   7.060  17.380  0.00  0.00    +0.000 C 
BRANCH   7   8
ATOM      8  C   UNL     1       5.052   5.964  16.957  0.00  0.00    +0.000 A 
ATOM      9  C   UNL     1       5.280   5.324  15.757  0.00  0.00    +0.000 A 
ATOM     10  C   UNL     1       6.311   4.384  15.997  0.00  0.00    +0.000 A 
ATOM     11  C   UNL     1       6.640   4.507  17.327  0.00  0.00    +0.000 A 
ATOM     12  O   UNL     1       5.882   5.466  17.918  0.00  0.00    +0.000 OA
ENDBRANCH   7   8
ENDBRANCH   6   7
ENDBRANCH   1   6
BRANCH   2  13
ATOM     13  C   UNL     1       2.297   2.776  18.393  0.00  0.00    +0.000 C 
ATOM     14  C   UNL     1       3.643   2.293  17.857  0.00  0.00    +0.000 C 
BRANCH  13  15
ATOM     15  N   UNL     1       2.244   2.731  19.844  0.00  0.00    +0.000 N 
ATOM     16  C   UNL     1       3.236   2.421  20.726  0.00  0.00    +0.000 A 
ATOM     17  N   UNL     1       2.765   2.459  21.949  0.00  0.00    +0.000 NA
ATOM     18  C   UNL     1       1.456   2.797  21.766  0.00  0.00    +0.000 A 
ATOM     19  N   UNL     1       1.081   2.958  20.493  0.00  0.00    +0.000 NA
ENDBRANCH  13  15
ENDBRANCH   2  13
TORSDOF 5
ENDMDL
MODEL 3
REMARK VINA RESULT:      -6.7      1.421      2.042
REMARK  Name = 
REMARK  7 active torsions:
REMARK  status: ('A' for Active; 'I' for Inactive)
REMARK    1  A    between atoms: C_1  and  C_2
REMARK    2  A    between atoms: C_2  and  C_3
REMARK    3  A    between atoms: C_2  and  N_9
REMARK    4  A    between atoms: C_3  and  C_4
REMARK    5  A    between atoms: C_10  and  C_12
REMARK    6  A    between atoms: C_12  and  C_13
REMARK    7  A    between atoms: C_12  and  N_14
REMARK                            x       y       z     vdW  Elec       q    Type
REMARK                         _______ _______ _______ _____ _____    ______ ____
ROOT
ATOM      1  N   UNL     1       5.739   5.582  18.891  0.00  0.00    +0.000 N 
ATOM      2  C   UNL     1       4.428   5.828  18.537  0.00  0.00    +0.000 C 
ATOM      3  O   UNL     1       4.122   6.395  17.487  0.00  0.00    +0.000 OA
ATOM      4  H   UNL     1       5.951   5.126  19.773  0.00  0.00    +0.000 HD
ENDROOT
BRANCH   1   6
ATOM      5  C   UNL     1       7.952   6.614  18.773  0.00  0.00    +0.000 C 
ATOM      6  C   UNL     1       6.853   5.888  17.995  0.00  0.00    +0.000 C 
BRANCH   6   7
ATOM      7  C   UNL     1       7.426   4.625  17.328  0.00  0.00    +0.000 C 
BRANCH   7   8
ATOM      8  C   UNL     1       6.967   4.453  15.922  0.00  0.00    +0.000 A 
ATOM      9  C   UNL     1       5.952   3.728  15.334  0.00  0.00    +0.000 A 
ATOM     10  C   UNL     1       6.011   4.014  13.948  0.00  0.00    +0.000 A 
ATOM     11  C   UNL     1       7.060   4.888  13.781  0.00  0.00    +0.000 A 
ATOM     12  O   UNL     1       7.646   5.162  14.976  0.00  0.00    +0.000 OA
ENDBRANCH   7   8
ENDBRANCH   6   7
ENDBRANCH   1   6
BRANCH   2  13
ATOM     13  C   UNL     1       3.385   5.347  19.533  0.00  0.00    +0.000 C 
ATOM     14  C   UNL     1       2.376   6.458  19.820  0.00  0.00    +0.000 C 
BRANCH  13  15
ATOM     15  N   UNL     1       2.740   4.143  19.042  0.00  0.00    +0.000 N 
ATOM     16  C   UNL     1       1.804   4.014  18.059  0.00  0.00    +0.000 A 
ATOM     17  N   UNL     1       1.450   2.757  17.950  0.00  0.00    +0.000 NA
ATOM     18  C   UNL     1       2.203   2.139  18.905  0.00  0.00    +0.000 A 
ATOM     19  N   UNL     1       2.998   2.947  19.615  0.00  0.00    +0.000 NA
ENDBRANCH  13  15
ENDBRANCH   2  13
TORSDOF 5
ENDMDL
MODEL 4
REMARK VINA RESULT:      -6.7      2.345      6.110
REMARK  Name = 
REMARK  7 active torsions:
REMARK  status: ('A' for Active; 'I' for Inactive)
REMARK    1  A    between atoms: C_1  and  C_2
REMARK    2  A    between atoms: C_2  and  C_3
REMARK    3  A    between atoms: C_2  and  N_9
REMARK    4  A    between atoms: C_3  and  C_4
REMARK    5  A    between atoms: C_10  and  C_12
REMARK    6  A    between atoms: C_12  and  C_13
REMARK    7  A    between atoms: C_12  and  N_14
REMARK                            x       y       z     vdW  Elec       q    Type
REMARK                         _______ _______ _______ _____ _____    ______ ____
ROOT
ATOM      1  N   UNL     1       3.461   5.599  18.628  0.00  0.00    +0.000 N 
ATOM      2  C   UNL     1       4.736   5.112  18.834  0.00  0.00    +0.000 C 
ATOM      3  O   UNL     1       5.515   5.618  19.644  0.00  0.00    +0.000 OA
ATOM      4  H   UNL     1       2.856   5.165  17.938  0.00  0.00    +0.000 HD
ENDROOT
BRANCH   1   6
ATOM      5  C   UNL     1       2.338   7.767  18.509  0.00  0.00    +0.000 C 
ATOM      6  C   UNL     1       2.911   6.689  19.431  0.00  0.00    +0.000 C 
BRANCH   6   7
ATOM      7  C   UNL     1       1.827   6.200  20.408  0.00  0.00    +0.000 C 
BRANCH   7   8
ATOM      8  C   UNL     1       1.719   4.716  20.459  0.00  0.00    +0.000 A 
ATOM      9  C   UNL     1       2.131   3.762  21.365  0.00  0.00    +0.000 A 
ATOM     10  C   UNL     1       1.693   2.515  20.857  0.00  0.00    +0.000 A 
ATOM     11  C   UNL     1       1.049   2.789  19.673  0.00  0.00    +0.000 A 
ATOM     12  O   UNL     1       1.058   4.124  19.424  0.00  0.00    +0.000 OA
ENDBRANCH   7   8
ENDBRANCH   6   7
ENDBRANCH   1   6
BRANCH   2  13
ATOM     13  C   UNL     1       5.114   3.904  17.991  0.00  0.00    +0.000 C 
ATOM     14  C   UNL     1       3.858   3.157  17.544  0.00  0.00    +0.000 C 
BRANCH  13  15
ATOM     15  N   UNL     1       5.930   4.315  16.863  0.00  0.00    +0.000 N 
ATOM     16  C   UNL     1       6.932   5.238  16.824  0.00  0.00    +0.000 A 
ATOM     17  N   UNL     1       7.388   5.342  15.599  0.00  0.00    +0.000 NA
ATOM     18  C   UNL     1       6.621   4.452  14.907  0.00  0.00    +0.000 A 
ATOM     19  N   UNL     1       5.698   3.809  15.631  0.00  0.00    +0.000 NA
ENDBRANCH  13  15
ENDBRANCH   2  13
TORSDOF 5
ENDMDL
MODEL 5
REMARK VINA RESULT:      -6.6      2.883      6.260
REMARK  Name = 
REMARK  7 active torsions:
REMARK  status: ('A' for Active; 'I' for Inactive)
REMARK    1  A    between atoms: C_1  and  C_2
REMARK    2  A    between atoms: C_2  and  C_3
REMARK    3  A    between atoms: C_2  and  N_9
REMARK    4  A    between atoms: C_3  and  C_4
REMARK    5  A    between atoms: C_10  and  C_12
REMARK    6  A    between atoms: C_12  and  C_13
REMARK    7  A    between atoms: C_12  and  N_14
REMARK                            x       y       z     vdW  Elec       q    Type
REMARK                         _______ _______ _______ _____ _____    ______ ____
ROOT
ATOM      1  N   UNL     1       4.365   6.626  17.853  0.00  0.00    +0.000 N 
ATOM      2  C   UNL     1       5.399   5.889  18.392  0.00  0.00    +0.000 C 
ATOM      3  O   UNL     1       5.269   5.218  19.418  0.00  0.00    +0.000 OA
ATOM      4  H   UNL     1       4.517   7.180  17.016  0.00  0.00    +0.000 HD
ENDROOT
BRANCH   1   6
ATOM      5  C   UNL     1       2.259   7.857  18.023  0.00  0.00    +0.000 C 
ATOM      6  C   UNL     1       3.013   6.582  18.407  0.00  0.00    +0.000 C 
BRANCH   6   7
ATOM      7  C   UNL     1       2.231   5.344  17.932  0.00  0.00    +0.000 C 
BRANCH   7   8
ATOM      8  C   UNL     1       1.838   4.442  19.049  0.00  0.00    +0.000 A 
ATOM      9  C   UNL     1       1.202   3.221  19.108  0.00  0.00    +0.000 A 
ATOM     10  C   UNL     1       1.155   2.861  20.477  0.00  0.00    +0.000 A 
ATOM     11  C   UNL     1       1.760   3.889  21.164  0.00  0.00    +0.000 A 
ATOM     12  O   UNL     1       2.180   4.853  20.304  0.00  0.00    +0.000 OA
ENDBRANCH   7   8
ENDBRANCH   6   7
ENDBRANCH   1   6
BRANCH   2  13
ATOM     13  C   UNL     1       6.713   5.959  17.630  0.00  0.00    +0.000 C 
ATOM     14  C   UNL     1       7.857   5.435  18.497  0.00  0.00    +0.000 C 
BRANCH  13  15
ATOM     15  N   UNL     1       6.606   5.233  16.378  0.00  0.00    +0.000 N 
ATOM     16  C   UNL     1       5.926   4.083  16.113  0.00  0.00    +0.000 A 
ATOM     17  N   UNL     1       6.118   3.735  14.863  0.00  0.00    +0.000 NA
ATOM     18  C   UNL     1       6.941   4.716  14.392  0.00  0.00    +0.000 A 
ATOM     19  N   UNL     1       7.285   5.650  15.286  0.00  0.00    +0.000 NA
ENDBRANCH  13  15
ENDBRANCH   2  13
TORSDOF 5
ENDMDL
MODEL 6
REMARK VINA RESULT:      -6.5      1.270      1.514
REMARK  Name = 
REMARK  7 active torsions:
REMARK  status: ('A' for Active; 'I' for Inactive)
REMARK    1  A    between atoms: C_1  and  C_2
REMARK    2  A    between atoms: C_2  and  C_3
REMARK    3  A    between atoms: C_2  and  N_9
REMARK    4  A    between atoms: C_3  and  C_4
REMARK    5  A    between atoms: C_10  and  C_12
REMARK    6  A    between atoms: C_12  and  C_13
REMARK    7  A    between atoms: C_12  and  N_14
REMARK                            x       y       z     vdW  Elec       q    Type
REMARK                         _______ _______ _______ _____ _____    ______ ____
ROOT
ATOM      1  N   UNL     1       5.536   4.948  18.664  0.00  0.00    +0.000 N 
ATOM      2  C   UNL     1       4.190   5.170  18.874  0.00  0.00    +0.000 C 
ATOM      3  O   UNL     1       3.746   6.266  19.220  0.00  0.00    +0.000 OA
ATOM      4  H   UNL     1       5.863   4.026  18.396  0.00  0.00    +0.000 HD
ENDROOT
BRANCH   1   6
ATOM      5  C   UNL     1       7.772   5.530  19.462  0.00  0.00    +0.000 C 
ATOM      6  C   UNL     1       6.518   6.028  18.741  0.00  0.00    +0.000 C 
BRANCH   6   7
ATOM      7  C   UNL     1       6.892   6.573  17.351  0.00  0.00    +0.000 C 
BRANCH   7   8
ATOM      8  C   UNL     1       6.450   5.683  16.242  0.00  0.00    +0.000 A 
ATOM      9  C   UNL     1       5.414   5.737  15.334  0.00  0.00    +0.000 A 
ATOM     10  C   UNL     1       5.554   4.599  14.501  0.00  0.00    +0.000 A 
ATOM     11  C   UNL     1       6.662   3.924  14.960  0.00  0.00    +0.000 A 
ATOM     12  O   UNL     1       7.214   4.577  16.016  0.00  0.00    +0.000 OA
ENDBRANCH   7   8
ENDBRANCH   6   7
ENDBRANCH   1   6
BRANCH   2  13
ATOM     13  C   UNL     1       3.290   3.965  18.646  0.00  0.00    +0.000 C 
ATOM     14  C   UNL     1       4.028   2.898  17.840  0.00  0.00    +0.000 C 
BRANCH  13  15
ATOM     15  N   UNL     1       2.811   3.451  19.915  0.00  0.00    +0.000 N 
ATOM     16  C   UNL     1       3.480   2.715  20.847  0.00  0.00    +0.000 A 
ATOM     17  N   UNL     1       2.672   2.417  21.837  0.00  0.00    +0.000 NA
ATOM     18  C   UNL     1       1.496   2.996  21.461  0.00  0.00    +0.000 A 
ATOM     19  N   UNL     1       1.521   3.628  20.282  0.00  0.00    +0.000 NA
ENDBRANCH  13  15
ENDBRANCH   2  13
TORSDOF 5
ENDMDL
MODEL 7
REMARK VINA RESULT:      -6.4      2.364      5.733
REMARK  Name = 
REMARK  7 active torsions:
REMARK  status: ('A' for Active; 'I' for Inactive)
REMARK    1  A    between atoms: C_1  and  C_2
REMARK    2  A    between atoms: C_2  and  C_3
REMARK    3  A    between atoms: C_2  and  N_9
REMARK    4  A    between atoms: C_3  and  C_4
REMARK    5  A    between atoms: C_10  and  C_12
REMARK    6  A    between atoms: C_12  and  C_13
REMARK    7  A    between atoms: C_12  and  N_14
REMARK                            x       y       z     vdW  Elec       q    Type
REMARK                         _______ _______ _______ _____ _____    ______ ____
ROOT
ATOM      1  N   UNL     1       4.977   3.522  17.674  0.00  0.00    +0.000 N 
ATOM      2  C   UNL     1       5.349   4.044  16.452  0.00  0.00    +0.000 C 
ATOM      3  O   UNL     1       4.537   4.266  15.552  0.00  0.00    +0.000 OA
ATOM      4  H   UNL     1       5.678   3.338  18.383  0.00  0.00    +0.000 HD
ENDROOT
BRANCH   1   6
ATOM      5  C   UNL     1       3.321   1.790  18.156  0.00  0.00    +0.000 C 
ATOM      6  C   UNL     1       3.576   3.292  18.021  0.00  0.00    +0.000 C 
BRANCH   6   7
ATOM      7  C   UNL     1       3.174   4.013  19.321  0.00  0.00    +0.000 C 
BRANCH   7   8
ATOM      8  C   UNL     1       2.854   5.452  19.111  0.00  0.00    +0.000 A 
ATOM      9  C   UNL     1       2.920   6.292  18.020  0.00  0.00    +0.000 A 
ATOM     10  C   UNL     1       2.436   7.550  18.457  0.00  0.00    +0.000 A 
ATOM     11  C   UNL     1       2.113   7.395  19.785  0.00  0.00    +0.000 A 
ATOM     12  O   UNL     1       2.361   6.123  20.191  0.00  0.00    +0.000 OA
ENDBRANCH   7   8
ENDBRANCH   6   7
ENDBRANCH   1   6
BRANCH   2  13
ATOM     13  C   UNL     1       6.835   4.327  16.292  0.00  0.00    +0.000 C 
ATOM     14  C   UNL     1       7.120   4.889  14.901  0.00  0.00    +0.000 C 
BRANCH  13  15
ATOM     15  N   UNL     1       7.290   5.222  17.341  0.00  0.00    +0.000 N 
ATOM     16  C   UNL     1       7.436   6.576  17.306  0.00  0.00    +0.000 A 
ATOM     17  N   UNL     1       7.912   6.998  18.453  0.00  0.00    +0.000 NA
ATOM     18  C   UNL     1       8.049   5.847  19.173  0.00  0.00    +0.000 A 
ATOM     19  N   UNL     1       7.698   4.727  18.531  0.00  0.00    +0.000 NA
ENDBRANCH  13  15
ENDBRANCH   2  13
TORSDOF 5
ENDMDL
MODEL 8
REMARK VINA RESULT:      -6.4      1.467      1.648
REMARK  Name = 
REMARK  7 active torsions:
REMARK  status: ('A' for Active; 'I' for Inactive)
REMARK    1  A    between atoms: C_1  and  C_2
REMARK    2  A    between atoms: C_2  and  C_3
REMARK    3  A    between atoms: C_2  and  N_9
REMARK    4  A    between atoms: C_3  and  C_4
REMARK    5  A    between atoms: C_10  and  C_12
REMARK    6  A    between atoms: C_12  and  C_13
REMARK    7  A    between atoms: C_12  and  N_14
REMARK                            x       y       z     vdW  Elec       q    Type
REMARK                         _______ _______ _______ _____ _____    ______ ____
ROOT
ATOM      1  N   UNL     1       4.301   3.734  17.503  0.00  0.00    +0.000 N 
ATOM      2  C   UNL     1       3.003   3.265  17.492  0.00  0.00    +0.000 C 
ATOM      3  O   UNL     1       2.176   3.629  16.654  0.00  0.00    +0.000 OA
ATOM      4  H   UNL     1       4.948   3.423  18.221  0.00  0.00    +0.000 HD
ENDROOT
BRANCH   1   6
ATOM      5  C   UNL     1       4.565   6.077  16.855  0.00  0.00    +0.000 C 
ATOM      6  C   UNL     1       4.812   4.620  16.459  0.00  0.00    +0.000 C 
BRANCH   6   7
ATOM      7  C   UNL     1       6.311   4.395  16.190  0.00  0.00    +0.000 C 
BRANCH   7   8
ATOM      8  C   UNL     1       6.651   4.425  14.741  0.00  0.00    +0.000 A 
ATOM      9  C   UNL     1       6.151   3.777  13.632  0.00  0.00    +0.000 A 
ATOM     10  C   UNL     1       6.881   4.267  12.521  0.00  0.00    +0.000 A 
ATOM     11  C   UNL     1       7.782   5.176  13.026  0.00  0.00    +0.000 A 
ATOM     12  O   UNL     1       7.648   5.280  14.374  0.00  0.00    +0.000 OA
ENDBRANCH   7   8
ENDBRANCH   6   7
ENDBRANCH   1   6
BRANCH   2  13
ATOM     13  C   UNL     1       2.664   2.265  18.586  0.00  0.00    +0.000 C 
ATOM     14  C   UNL     1       3.751   1.197  18.682  0.00  0.00    +0.000 C 
BRANCH  13  15
ATOM     15  N   UNL     1       2.467   2.953  19.849  0.00  0.00    +0.000 N 
ATOM     16  C   UNL     1       2.220   2.424  21.080  0.00  0.00    +0.000 A 
ATOM     17  N   UNL     1       2.065   3.391  21.952  0.00  0.00    +0.000 NA
ATOM     18  C   UNL     1       2.222   4.516  21.198  0.00  0.00    +0.000 A 
ATOM     19  N   UNL     1       2.453   4.303  19.897  0.00  0.00    +0.000 NA
ENDBRANCH  13  15
ENDBRANCH   2  13
TORSDOF 5
ENDMDL
MODEL 9
REMARK VINA RESULT:      -6.4      1.450      1.789
REMARK  Name = 
REMARK  7 active torsions:
REMARK  status: ('A' for Active; 'I' for Inactive)
REMARK    1  A    between atoms: C_1  and  C_2
REMARK    2  A    between atoms: C_2  and  C_3
REMARK    3  A    between atoms: C_2  and  N_9
REMARK    4  A    between atoms: C_3  and  C_4
REMARK    5  A    between atoms: C_10  and  C_12
REMARK    6  A    between atoms: C_12  and  C_13
REMARK    7  A    between atoms: C_12  and  N_14
REMARK                            x       y       z     vdW  Elec       q    Type
REMARK                         _______ _______ _______ _____ _____    ______ ____
ROOT
ATOM      1  N   UNL     1       3.290   4.668  18.076  0.00  0.00    +0.000 N 
ATOM      2  C   UNL     1       2.165   3.915  17.808  0.00  0.00    +0.000 C 
ATOM      3  O   UNL     1       1.224   4.346  17.140  0.00  0.00    +0.000 OA
ATOM      4  H   UNL     1       4.037   4.282  18.645  0.00  0.00    +0.000 HD
ENDROOT
BRANCH   1   6
ATOM      5  C   UNL     1       2.896   7.054  18.432  0.00  0.00    +0.000 C 
ATOM      6  C   UNL     1       3.487   5.996  17.498  0.00  0.00    +0.000 C 
BRANCH   6   7
ATOM      7  C   UNL     1       4.972   6.299  17.231  0.00  0.00    +0.000 C 
BRANCH   7   8
ATOM      8  C   UNL     1       5.554   5.446  16.159  0.00  0.00    +0.000 A 
ATOM      9  C   UNL     1       5.120   4.316  15.500  0.00  0.00    +0.000 A 
ATOM     10  C   UNL     1       6.120   3.999  14.549  0.00  0.00    +0.000 A 
ATOM     11  C   UNL     1       7.101   4.953  14.694  0.00  0.00    +0.000 A 
ATOM     12  O   UNL     1       6.765   5.838  15.668  0.00  0.00    +0.000 OA
ENDBRANCH   7   8
ENDBRANCH   6   7
ENDBRANCH   1   6
BRANCH   2  13
ATOM     13  C   UNL     1       2.168   2.512  18.395  0.00  0.00    +0.000 C 
ATOM     14  C   UNL     1       3.401   1.744  17.925  0.00  0.00    +0.000 C 
BRANCH  13  15
ATOM     15  N   UNL     1       2.089   2.575  19.844  0.00  0.00    +0.000 N 
ATOM     16  C   UNL     1       0.991   2.743  20.633  0.00  0.00    +0.000 A 
ATOM     17  N   UNL     1       1.356   2.784  21.892  0.00  0.00    +0.000 NA
ATOM     18  C   UNL     1       2.711   2.640  21.827  0.00  0.00    +0.000 A 
ATOM     19  N   UNL     1       3.213   2.526  20.592  0.00  0.00    +0.000 NA
ENDBRANCH  13  15
ENDBRANCH   2  13
TORSDOF 5
ENDMDL
