MODEL 1
REMARK VINA RESULT:      -8.6      0.000      0.000
REMARK  Name = 
REMARK  18 active torsions:
REMARK  status: ('A' for Active; 'I' for Inactive)
REMARK    1  A    between atoms: C_1  and  C_2
REMARK    2  A    between atoms: C_2  and  C_3
REMARK    3  A    between atoms: C_2  and  C_4
REMARK    4  A    between atoms: C_2  and  C_5
REMARK    5  A    between atoms: C_8  and  C_9
REMARK    6  A    between atoms: C_10  and  C_11
REMARK    7  A    between atoms: C_13  and  C_14
REMARK    8  A    between atoms: C_14  and  C_15
REMARK    9  A    between atoms: C_14  and  C_16
REMARK   10  A    between atoms: C_14  and  C_17
REMARK   11  A    between atoms: C_19  and  C_20
REMARK   12  A    between atoms: C_20  and  C_21
REMARK   13  A    between atoms: C_20  and  C_22
REMARK   14  A    between atoms: C_20  and  C_23
REMARK   15  A    between atoms: C_26  and  C_27
REMARK   16  A    between atoms: C_27  and  C_28
REMARK   17  A    between atoms: C_27  and  C_29
REMARK   18  A    between atoms: C_27  and  C_30
REMARK                            x       y       z     vdW  Elec       q    Type
REMARK                         _______ _______ _______ _____ _____    ______ ____
ROOT
ATOM      1  C   UNL     1       1.584   9.135  17.992  0.00  0.00    +0.000 C 
ATOM      2  C   UNL     1       1.369  10.318  18.589  0.00  0.00    +0.000 C 
ENDROOT
BRANCH   1   6
ATOM      3  C   UNL     1       2.983   5.224  18.894  0.00  0.00    +0.000 C 
ATOM      4  C   UNL     1       2.507   6.321  18.275  0.00  0.00    +0.000 C 
ATOM      5  C   UNL     1       3.348   7.379  17.743  0.00  0.00    +0.000 C 
ATOM      6  C   UNL     1       2.886   8.640  17.569  0.00  0.00    +0.000 C 
ATOM      7  C   UNL     1       4.686   7.021  17.273  0.00  0.00    +0.000 C 
ATOM      8  C   UNL     1       5.375   5.958  17.744  0.00  0.00    +0.000 C 
ATOM      9  S   UNL     1       4.716   4.989  19.072  0.00  0.00    +0.000 S 
BRANCH   3  11
ATOM     10  C   UNL     1       2.886   3.079  20.192  0.00  0.00    +0.000 C 
ATOM     11  C   UNL     1       2.032   4.156  19.497  0.00  0.00    +0.000 C 
ATOM     12  C   UNL     1       1.162   3.468  18.413  0.00  0.00    +0.000 C 
ATOM     13  C   UNL     1       1.034   4.740  20.527  0.00  0.00    +0.000 C 
ENDBRANCH   3  11
BRANCH   8  14
ATOM     14  C   UNL     1       6.787   5.547  17.235  0.00  0.00    +0.000 C 
ATOM     15  C   UNL     1       6.753   4.746  15.911  0.00  0.00    +0.000 C 
ATOM     16  C   UNL     1       7.660   6.797  16.978  0.00  0.00    +0.000 C 
ATOM     17  C   UNL     1       7.502   4.649  18.273  0.00  0.00    +0.000 C 
ENDBRANCH   8  14
ENDBRANCH   1   6
BRANCH   2  18
ATOM     18  C   UNL     1      -0.002  10.722  18.954  0.00  0.00    +0.000 A 
ATOM     19  C   UNL     1      -1.028  10.591  17.993  0.00  0.00    +0.000 A 
ATOM     20  C   UNL     1      -2.374  10.982  18.163  0.00  0.00    +0.000 A 
ATOM     21  S   UNL     1      -2.885  11.754  19.702  0.00  0.00    +0.000 S 
ATOM     22  C   UNL     1      -1.428  11.751  20.748  0.00  0.00    +0.000 A 
ATOM     23  C   UNL     1      -0.206  11.262  20.242  0.00  0.00    +0.000 A 
BRANCH  20  24
ATOM     24  C   UNL     1      -3.459  10.794  17.090  0.00  0.00    +0.000 C 
ATOM     25  C   UNL     1      -4.648  11.766  17.232  0.00  0.00    +0.000 C 
ATOM     26  C   UNL     1      -2.845  11.019  15.689  0.00  0.00    +0.000 C 
ATOM     27  C   UNL     1      -4.034   9.360  17.159  0.00  0.00    +0.000 C 
ENDBRANCH  20  24
BRANCH  22  28
ATOM     28  C   UNL     1      -1.597  12.301  22.173  0.00  0.00    +0.000 C 
ATOM     29  C   UNL     1      -1.277  11.190  23.198  0.00  0.00    +0.000 C 
ATOM     30  C   UNL     1      -0.672  13.495  22.490  0.00  0.00    +0.000 C 
ATOM     31  C   UNL     1      -3.050  12.781  22.388  0.00  0.00    +0.000 C 
ENDBRANCH  22  28
ENDBRANCH   2  18
TORSDOF 6
ENDMDL
MODEL 2
REMARK VINA RESULT:      -8.6      0.156      1.361
REMARK  Name = 
REMARK  18 active torsions:
REMARK  status: ('A' for Active; 'I' for Inactive)
REMARK    1  A    between atoms: C_1  and  C_2
REMARK    2  A    between atoms: C_2  and  C_3
REMARK    3  A    between atoms: C_2  and  C_4
REMARK    4  A    between atoms: C_2  and  C_5
REMARK    5  A    between atoms: C_8  and  C_9
REMARK    6  A    between atoms: C_10  and  C_11
REMARK    7  A    between atoms: C_13  and  C_14
REMARK    8  A    between atoms: C_14  and  C_15
REMARK    9  A    between atoms: C_14  and  C_16
REMARK   10  A    between atoms: C_14  and  C_17
REMARK   11  A    between atoms: C_19  and  C_20
REMARK   12  A    between atoms: C_20  and  C_21
REMARK   13  A    between atoms: C_20  and  C_22
REMARK   14  A    between atoms: C_20  and  C_23
REMARK   15  A    between atoms: C_26  and  C_27
REMARK   16  A    between atoms: C_27  and  C_28
REMARK   17  A    between atoms: C_27  and  C_29
REMARK   18  A    between atoms: C_27  and  C_30
REMARK                            x       y       z     vdW  Elec       q    Type
REMARK                         _______ _______ _______ _____ _____    ______ ____
ROOT
ATOM      1  C   UNL     1       1.634   9.044  18.104  0.00  0.00    +0.000 C 
ATOM      2  C   UNL     1       1.367  10.328  18.383  0.00  0.00    +0.000 C 
ENDROOT
BRANCH   1   6
ATOM      3  C   UNL     1       2.993   5.100  18.925  0.00  0.00    +0.000 C 
ATOM      4  C   UNL     1       2.525   6.213  18.330  0.00  0.00    +0.000 C 
ATOM      5  C   UNL     1       3.373   7.270  17.806  0.00  0.00    +0.000 C 
ATOM      6  C   UNL     1       2.925   8.540  17.659  0.00  0.00    +0.000 C 
ATOM      7  C   UNL     1       4.701   6.903  17.316  0.00  0.00    +0.000 C 
ATOM      8  C   UNL     1       5.382   5.823  17.762  0.00  0.00    +0.000 C 
ATOM      9  S   UNL     1       4.724   4.841  19.081  0.00  0.00    +0.000 S 
BRANCH   3  11
ATOM     10  C   UNL     1       1.248   3.385  18.367  0.00  0.00    +0.000 C 
ATOM     11  C   UNL     1       2.035   4.035  19.521  0.00  0.00    +0.000 C 
ATOM     12  C   UNL     1       1.021   4.652  20.519  0.00  0.00    +0.000 C 
ATOM     13  C   UNL     1       2.773   2.923  20.307  0.00  0.00    +0.000 C 
ENDBRANCH   3  11
BRANCH   8  14
ATOM     14  C   UNL     1       6.783   5.403  17.231  0.00  0.00    +0.000 C 
ATOM     15  C   UNL     1       7.638   4.654  18.281  0.00  0.00    +0.000 C 
ATOM     16  C   UNL     1       6.645   4.459  16.013  0.00  0.00    +0.000 C 
ATOM     17  C   UNL     1       7.600   6.647  16.804  0.00  0.00    +0.000 C 
ENDBRANCH   8  14
ENDBRANCH   1   6
BRANCH   2  18
ATOM     18  C   UNL     1       0.010  10.725  18.807  0.00  0.00    +0.000 A 
ATOM     19  C   UNL     1      -1.051  10.612  17.882  0.00  0.00    +0.000 A 
ATOM     20  C   UNL     1      -2.390  10.999  18.110  0.00  0.00    +0.000 A 
ATOM     21  S   UNL     1      -2.843  11.740  19.681  0.00  0.00    +0.000 S 
ATOM     22  C   UNL     1      -1.348  11.717  20.673  0.00  0.00    +0.000 A 
ATOM     23  C   UNL     1      -0.146  11.239  20.112  0.00  0.00    +0.000 A 
BRANCH  20  24
ATOM     24  C   UNL     1      -3.514  10.831  17.075  0.00  0.00    +0.000 C 
ATOM     25  C   UNL     1      -3.053  11.045  15.618  0.00  0.00    +0.000 C 
ATOM     26  C   UNL     1      -4.093   9.401  17.168  0.00  0.00    +0.000 C 
ATOM     27  C   UNL     1      -4.646  11.848  17.347  0.00  0.00    +0.000 C 
ENDBRANCH  20  24
BRANCH  22  28
ATOM     28  C   UNL     1      -1.464  12.239  22.113  0.00  0.00    +0.000 C 
ATOM     29  C   UNL     1      -1.127  11.102  23.104  0.00  0.00    +0.000 C 
ATOM     30  C   UNL     1      -0.513  13.414  22.425  0.00  0.00    +0.000 C 
ATOM     31  C   UNL     1      -2.903  12.734  22.385  0.00  0.00    +0.000 C 
ENDBRANCH  22  28
ENDBRANCH   2  18
TORSDOF 6
ENDMDL
MODEL 3
REMARK VINA RESULT:      -8.6      0.131      1.346
REMARK  Name = 
REMARK  18 active torsions:
REMARK  status: ('A' for Active; 'I' for Inactive)
REMARK    1  A    between atoms: C_1  and  C_2
REMARK    2  A    between atoms: C_2  and  C_3
REMARK    3  A    between atoms: C_2  and  C_4
REMARK    4  A    between atoms: C_2  and  C_5
REMARK    5  A    between atoms: C_8  and  C_9
REMARK    6  A    between atoms: C_10  and  C_11
REMARK    7  A    between atoms: C_13  and  C_14
REMARK    8  A    between atoms: C_14  and  C_15
REMARK    9  A    between atoms: C_14  and  C_16
REMARK   10  A    between atoms: C_14  and  C_17
REMARK   11  A    between atoms: C_19  and  C_20
REMARK   12  A    between atoms: C_20  and  C_21
REMARK   13  A    between atoms: C_20  and  C_22
REMARK   14  A    between atoms: C_20  and  C_23
REMARK   15  A    between atoms: C_26  and  C_27
REMARK   16  A    between atoms: C_27  and  C_28
REMARK   17  A    between atoms: C_27  and  C_29
REMARK   18  A    between atoms: C_27  and  C_30
REMARK                            x       y       z     vdW  Elec       q    Type
REMARK                         _______ _______ _______ _____ _____    ______ ____
ROOT
ATOM      1  C   UNL     1       1.625   9.060  18.066  0.00  0.00    +0.000 C 
ATOM      2  C   UNL     1       1.380  10.324  18.444  0.00  0.00    +0.000 C 
ENDROOT
BRANCH   1   6
ATOM      3  C   UNL     1       3.001   5.128  18.910  0.00  0.00    +0.000 C 
ATOM      4  C   UNL     1       2.528   6.236  18.308  0.00  0.00    +0.000 C 
ATOM      5  C   UNL     1       3.371   7.292  17.778  0.00  0.00    +0.000 C 
ATOM      6  C   UNL     1       2.918   8.559  17.623  0.00  0.00    +0.000 C 
ATOM      7  C   UNL     1       4.701   6.929  17.289  0.00  0.00    +0.000 C 
ATOM      8  C   UNL     1       5.387   5.854  17.741  0.00  0.00    +0.000 C 
ATOM      9  S   UNL     1       4.734   4.877  19.066  0.00  0.00    +0.000 S 
BRANCH   3  11
ATOM     10  C   UNL     1       1.244   3.422  18.365  0.00  0.00    +0.000 C 
ATOM     11  C   UNL     1       2.048   4.062  19.512  0.00  0.00    +0.000 C 
ATOM     12  C   UNL     1       1.050   4.676  20.528  0.00  0.00    +0.000 C 
ATOM     13  C   UNL     1       2.793   2.943  20.281  0.00  0.00    +0.000 C 
ENDBRANCH   3  11
BRANCH   8  14
ATOM     14  C   UNL     1       6.790   5.437  17.212  0.00  0.00    +0.000 C 
ATOM     15  C   UNL     1       6.727   4.496  15.985  0.00  0.00    +0.000 C 
ATOM     16  C   UNL     1       7.602   6.681  16.780  0.00  0.00    +0.000 C 
ATOM     17  C   UNL     1       7.583   4.683  18.306  0.00  0.00    +0.000 C 
ENDBRANCH   8  14
ENDBRANCH   1   6
BRANCH   2  18
ATOM     18  C   UNL     1       0.020  10.722  18.854  0.00  0.00    +0.000 A 
ATOM     19  C   UNL     1      -1.033  10.607  17.919  0.00  0.00    +0.000 A 
ATOM     20  C   UNL     1      -2.374  10.994  18.133  0.00  0.00    +0.000 A 
ATOM     21  S   UNL     1      -2.841  11.739  19.699  0.00  0.00    +0.000 S 
ATOM     22  C   UNL     1      -1.356  11.719  20.704  0.00  0.00    +0.000 A 
ATOM     23  C   UNL     1      -0.149  11.239  20.156  0.00  0.00    +0.000 A 
BRANCH  20  24
ATOM     24  C   UNL     1      -3.488  10.824  17.088  0.00  0.00    +0.000 C 
ATOM     25  C   UNL     1      -3.014  11.034  15.635  0.00  0.00    +0.000 C 
ATOM     26  C   UNL     1      -4.069   9.394  17.180  0.00  0.00    +0.000 C 
ATOM     27  C   UNL     1      -4.623  11.842  17.347  0.00  0.00    +0.000 C 
ENDBRANCH  20  24
BRANCH  22  28
ATOM     28  C   UNL     1      -1.486  12.244  22.142  0.00  0.00    +0.000 C 
ATOM     29  C   UNL     1      -0.505  13.419  22.355  0.00  0.00    +0.000 C 
ATOM     30  C   UNL     1      -2.898  12.761  22.488  0.00  0.00    +0.000 C 
ATOM     31  C   UNL     1      -1.153  11.121  23.151  0.00  0.00    +0.000 C 
ENDBRANCH  22  28
ENDBRANCH   2  18
TORSDOF 6
ENDMDL
MODEL 4
REMARK VINA RESULT:      -8.6      0.106      1.069
REMARK  Name = 
REMARK  18 active torsions:
REMARK  status: ('A' for Active; 'I' for Inactive)
REMARK    1  A    between atoms: C_1  and  C_2
REMARK    2  A    between atoms: C_2  and  C_3
REMARK    3  A    between atoms: C_2  and  C_4
REMARK    4  A    between atoms: C_2  and  C_5
REMARK    5  A    between atoms: C_8  and  C_9
REMARK    6  A    between atoms: C_10  and  C_11
REMARK    7  A    between atoms: C_13  and  C_14
REMARK    8  A    between atoms: C_14  and  C_15
REMARK    9  A    between atoms: C_14  and  C_16
REMARK   10  A    between atoms: C_14  and  C_17
REMARK   11  A    between atoms: C_19  and  C_20
REMARK   12  A    between atoms: C_20  and  C_21
REMARK   13  A    between atoms: C_20  and  C_22
REMARK   14  A    between atoms: C_20  and  C_23
REMARK   15  A    between atoms: C_26  and  C_27
REMARK   16  A    between atoms: C_27  and  C_28
REMARK   17  A    between atoms: C_27  and  C_29
REMARK   18  A    between atoms: C_27  and  C_30
REMARK                            x       y       z     vdW  Elec       q    Type
REMARK                         _______ _______ _______ _____ _____    ______ ____
ROOT
ATOM      1  C   UNL     1       1.600   9.091  18.019  0.00  0.00    +0.000 C 
ATOM      2  C   UNL     1       1.379  10.309  18.536  0.00  0.00    +0.000 C 
ENDROOT
BRANCH   1   6
ATOM      3  C   UNL     1       2.960   5.164  18.916  0.00  0.00    +0.000 C 
ATOM      4  C   UNL     1       2.498   6.268  18.298  0.00  0.00    +0.000 C 
ATOM      5  C   UNL     1       3.350   7.320  17.774  0.00  0.00    +0.000 C 
ATOM      6  C   UNL     1       2.901   8.586  17.602  0.00  0.00    +0.000 C 
ATOM      7  C   UNL     1       4.688   6.953  17.311  0.00  0.00    +0.000 C 
ATOM      8  C   UNL     1       5.365   5.881  17.782  0.00  0.00    +0.000 C 
ATOM      9  S   UNL     1       4.690   4.914  19.104  0.00  0.00    +0.000 S 
BRANCH   3  11
ATOM     10  C   UNL     1       2.837   3.029  20.228  0.00  0.00    +0.000 C 
ATOM     11  C   UNL     1       1.997   4.103  19.510  0.00  0.00    +0.000 C 
ATOM     12  C   UNL     1       1.145   3.408  18.416  0.00  0.00    +0.000 C 
ATOM     13  C   UNL     1       0.982   4.696  20.518  0.00  0.00    +0.000 C 
ENDBRANCH   3  11
BRANCH   8  14
ATOM     14  C   UNL     1       6.777   5.460  17.280  0.00  0.00    +0.000 C 
ATOM     15  C   UNL     1       7.636   6.653  16.795  0.00  0.00    +0.000 C 
ATOM     16  C   UNL     1       7.574   4.766  18.410  0.00  0.00    +0.000 C 
ATOM     17  C   UNL     1       6.662   4.485  16.083  0.00  0.00    +0.000 C 
ENDBRANCH   8  14
ENDBRANCH   1   6
BRANCH   2  18
ATOM     18  C   UNL     1       0.011  10.719  18.904  0.00  0.00    +0.000 A 
ATOM     19  C   UNL     1      -1.019  10.585  17.947  0.00  0.00    +0.000 A 
ATOM     20  C   UNL     1      -2.364  10.980  18.119  0.00  0.00    +0.000 A 
ATOM     21  S   UNL     1      -2.868  11.760  19.656  0.00  0.00    +0.000 S 
ATOM     22  C   UNL     1      -1.408  11.759  20.698  0.00  0.00    +0.000 A 
ATOM     23  C   UNL     1      -0.189  11.264  20.190  0.00  0.00    +0.000 A 
BRANCH  20  24
ATOM     24  C   UNL     1      -3.452  10.789  17.051  0.00  0.00    +0.000 C 
ATOM     25  C   UNL     1      -4.617  11.794  17.165  0.00  0.00    +0.000 C 
ATOM     26  C   UNL     1      -2.833  10.962  15.645  0.00  0.00    +0.000 C 
ATOM     27  C   UNL     1      -4.062   9.373  17.157  0.00  0.00    +0.000 C 
ENDBRANCH  20  24
BRANCH  22  28
ATOM     28  C   UNL     1      -1.571  12.315  22.120  0.00  0.00    +0.000 C 
ATOM     29  C   UNL     1      -0.579  13.480  22.338  0.00  0.00    +0.000 C 
ATOM     30  C   UNL     1      -2.985  12.860  22.414  0.00  0.00    +0.000 C 
ATOM     31  C   UNL     1      -1.285  11.209  23.161  0.00  0.00    +0.000 C 
ENDBRANCH  22  28
ENDBRANCH   2  18
TORSDOF 6
ENDMDL
MODEL 5
REMARK VINA RESULT:      -8.6      0.095      1.560
REMARK  Name = 
REMARK  18 active torsions:
REMARK  status: ('A' for Active; 'I' for Inactive)
REMARK    1  A    between atoms: C_1  and  C_2
REMARK    2  A    between atoms: C_2  and  C_3
REMARK    3  A    between atoms: C_2  and  C_4
REMARK    4  A    between atoms: C_2  and  C_5
REMARK    5  A    between atoms: C_8  and  C_9
REMARK    6  A    between atoms: C_10  and  C_11
REMARK    7  A    between atoms: C_13  and  C_14
REMARK    8  A    between atoms: C_14  and  C_15
REMARK    9  A    between atoms: C_14  and  C_16
REMARK   10  A    between atoms: C_14  and  C_17
REMARK   11  A    between atoms: C_19  and  C_20
REMARK   12  A    between atoms: C_20  and  C_21
REMARK   13  A    between atoms: C_20  and  C_22
REMARK   14  A    between atoms: C_20  and  C_23
REMARK   15  A    between atoms: C_26  and  C_27
REMARK   16  A    between atoms: C_27  and  C_28
REMARK   17  A    between atoms: C_27  and  C_29
REMARK   18  A    between atoms: C_27  and  C_30
REMARK                            x       y       z     vdW  Elec       q    Type
REMARK                         _______ _______ _______ _____ _____    ______ ____
ROOT
ATOM      1  C   UNL     1       1.595   9.129  17.980  0.00  0.00    +0.000 C 
ATOM      2  C   UNL     1       1.390  10.302  18.598  0.00  0.00    +0.000 C 
ENDROOT
BRANCH   1   6
ATOM      3  C   UNL     1       2.963   5.217  18.927  0.00  0.00    +0.000 C 
ATOM      4  C   UNL     1       2.498   6.311  18.295  0.00  0.00    +0.000 C 
ATOM      5  C   UNL     1       3.348   7.358  17.756  0.00  0.00    +0.000 C 
ATOM      6  C   UNL     1       2.896   8.621  17.568  0.00  0.00    +0.000 C 
ATOM      7  C   UNL     1       4.685   6.986  17.296  0.00  0.00    +0.000 C 
ATOM      8  C   UNL     1       5.365   5.923  17.781  0.00  0.00    +0.000 C 
ATOM      9  S   UNL     1       4.693   4.972  19.115  0.00  0.00    +0.000 S 
BRANCH   3  11
ATOM     10  C   UNL     1       1.039   4.878  20.502  0.00  0.00    +0.000 C 
ATOM     11  C   UNL     1       2.003   4.162  19.537  0.00  0.00    +0.000 C 
ATOM     12  C   UNL     1       2.763   3.066  20.328  0.00  0.00    +0.000 C 
ATOM     13  C   UNL     1       1.170   3.407  18.472  0.00  0.00    +0.000 C 
ENDBRANCH   3  11
BRANCH   8  14
ATOM     14  C   UNL     1       6.777   5.497  17.282  0.00  0.00    +0.000 C 
ATOM     15  C   UNL     1       7.587   4.705  18.337  0.00  0.00    +0.000 C 
ATOM     16  C   UNL     1       6.664   4.590  16.034  0.00  0.00    +0.000 C 
ATOM     17  C   UNL     1       7.625   6.739  16.917  0.00  0.00    +0.000 C 
ENDBRANCH   8  14
ENDBRANCH   1   6
BRANCH   2  18
ATOM     18  C   UNL     1       0.020  10.722  18.950  0.00  0.00    +0.000 A 
ATOM     19  C   UNL     1      -1.004  10.573  17.989  0.00  0.00    +0.000 A 
ATOM     20  C   UNL     1      -2.349  10.975  18.146  0.00  0.00    +0.000 A 
ATOM     21  S   UNL     1      -2.859  11.785  19.665  0.00  0.00    +0.000 S 
ATOM     22  C   UNL     1      -1.405  11.800  20.715  0.00  0.00    +0.000 A 
ATOM     23  C   UNL     1      -0.185  11.293  20.224  0.00  0.00    +0.000 A 
BRANCH  20  24
ATOM     24  C   UNL     1      -3.431  10.766  17.075  0.00  0.00    +0.000 C 
ATOM     25  C   UNL     1      -4.064   9.360  17.097  0.00  0.00    +0.000 C 
ATOM     26  C   UNL     1      -4.573  11.787  17.289  0.00  0.00    +0.000 C 
ATOM     27  C   UNL     1      -2.834  10.973  15.664  0.00  0.00    +0.000 C 
ENDBRANCH  20  24
BRANCH  22  28
ATOM     28  C   UNL     1      -1.576  12.385  22.125  0.00  0.00    +0.000 C 
ATOM     29  C   UNL     1      -0.554  13.524  22.340  0.00  0.00    +0.000 C 
ATOM     30  C   UNL     1      -2.978  12.974  22.387  0.00  0.00    +0.000 C 
ATOM     31  C   UNL     1      -1.338  11.288  23.188  0.00  0.00    +0.000 C 
ENDBRANCH  22  28
ENDBRANCH   2  18
TORSDOF 6
ENDMDL
MODEL 6
REMARK VINA RESULT:      -8.5      0.216      1.594
REMARK  Name = 
REMARK  18 active torsions:
REMARK  status: ('A' for Active; 'I' for Inactive)
REMARK    1  A    between atoms: C_1  and  C_2
REMARK    2  A    between atoms: C_2  and  C_3
REMARK    3  A    between atoms: C_2  and  C_4
REMARK    4  A    between atoms: C_2  and  C_5
REMARK    5  A    between atoms: C_8  and  C_9
REMARK    6  A    between atoms: C_10  and  C_11
REMARK    7  A    between atoms: C_13  and  C_14
REMARK    8  A    between atoms: C_14  and  C_15
REMARK    9  A    between atoms: C_14  and  C_16
REMARK   10  A    between atoms: C_14  and  C_17
REMARK   11  A    between atoms: C_19  and  C_20
REMARK   12  A    between atoms: C_20  and  C_21
REMARK   13  A    between atoms: C_20  and  C_22
REMARK   14  A    between atoms: C_20  and  C_23
REMARK   15  A    between atoms: C_26  and  C_27
REMARK   16  A    between atoms: C_27  and  C_28
REMARK   17  A    between atoms: C_27  and  C_29
REMARK   18  A    between atoms: C_27  and  C_30
REMARK                            x       y       z     vdW  Elec       q    Type
REMARK                         _______ _______ _______ _____ _____    ______ ____
ROOT
ATOM      1  C   UNL     1       1.627   8.998  18.116  0.00  0.00    +0.000 C 
ATOM      2  C   UNL     1       1.333  10.295  18.295  0.00  0.00    +0.000 C 
ENDROOT
BRANCH   1   6
ATOM      3  C   UNL     1       2.966   5.045  18.921  0.00  0.00    +0.000 C 
ATOM      4  C   UNL     1       2.505   6.163  18.330  0.00  0.00    +0.000 C 
ATOM      5  C   UNL     1       3.358   7.218  17.813  0.00  0.00    +0.000 C 
ATOM      6  C   UNL     1       2.917   8.491  17.671  0.00  0.00    +0.000 C 
ATOM      7  C   UNL     1       4.686   6.848  17.323  0.00  0.00    +0.000 C 
ATOM      8  C   UNL     1       5.361   5.763  17.765  0.00  0.00    +0.000 C 
ATOM      9  S   UNL     1       4.697   4.777  19.078  0.00  0.00    +0.000 S 
BRANCH   3  11
ATOM     10  C   UNL     1       1.047   4.680  20.495  0.00  0.00    +0.000 C 
ATOM     11  C   UNL     1       2.003   3.981  19.510  0.00  0.00    +0.000 C 
ATOM     12  C   UNL     1       2.762   2.863  20.273  0.00  0.00    +0.000 C 
ATOM     13  C   UNL     1       1.162   3.255  18.431  0.00  0.00    +0.000 C 
ENDBRANCH   3  11
BRANCH   8  14
ATOM     14  C   UNL     1       6.761   5.339  17.234  0.00  0.00    +0.000 C 
ATOM     15  C   UNL     1       7.642   4.653  18.307  0.00  0.00    +0.000 C 
ATOM     16  C   UNL     1       6.621   4.336  16.065  0.00  0.00    +0.000 C 
ATOM     17  C   UNL     1       7.553   6.572  16.737  0.00  0.00    +0.000 C 
ENDBRANCH   8  14
ENDBRANCH   1   6
BRANCH   2  18
ATOM     18  C   UNL     1      -0.019  10.693  18.730  0.00  0.00    +0.000 A 
ATOM     19  C   UNL     1      -1.089  10.576  17.816  0.00  0.00    +0.000 A 
ATOM     20  C   UNL     1      -2.426  10.963  18.055  0.00  0.00    +0.000 A 
ATOM     21  S   UNL     1      -2.864  11.710  19.629  0.00  0.00    +0.000 S 
ATOM     22  C   UNL     1      -1.360  11.692  20.605  0.00  0.00    +0.000 A 
ATOM     23  C   UNL     1      -0.163  11.212  20.035  0.00  0.00    +0.000 A 
BRANCH  20  24
ATOM     24  C   UNL     1      -3.560  10.790  17.032  0.00  0.00    +0.000 C 
ATOM     25  C   UNL     1      -3.102  10.943  15.567  0.00  0.00    +0.000 C 
ATOM     26  C   UNL     1      -4.177   9.380  17.177  0.00  0.00    +0.000 C 
ATOM     27  C   UNL     1      -4.663  11.846  17.275  0.00  0.00    +0.000 C 
ENDBRANCH  20  24
BRANCH  22  28
ATOM     28  C   UNL     1      -1.462  12.219  22.045  0.00  0.00    +0.000 C 
ATOM     29  C   UNL     1      -2.878  12.789  22.287  0.00  0.00    +0.000 C 
ATOM     30  C   UNL     1      -1.215  11.139  23.119  0.00  0.00    +0.000 C 
ATOM     31  C   UNL     1      -0.422  13.338  22.277  0.00  0.00    +0.000 C 
ENDBRANCH  22  28
ENDBRANCH   2  18
TORSDOF 6
ENDMDL
MODEL 7
REMARK VINA RESULT:      -8.5      0.249      1.102
REMARK  Name = 
REMARK  18 active torsions:
REMARK  status: ('A' for Active; 'I' for Inactive)
REMARK    1  A    between atoms: C_1  and  C_2
REMARK    2  A    between atoms: C_2  and  C_3
REMARK    3  A    between atoms: C_2  and  C_4
REMARK    4  A    between atoms: C_2  and  C_5
REMARK    5  A    between atoms: C_8  and  C_9
REMARK    6  A    between atoms: C_10  and  C_11
REMARK    7  A    between atoms: C_13  and  C_14
REMARK    8  A    between atoms: C_14  and  C_15
REMARK    9  A    between atoms: C_14  and  C_16
REMARK   10  A    between atoms: C_14  and  C_17
REMARK   11  A    between atoms: C_19  and  C_20
REMARK   12  A    between atoms: C_20  and  C_21
REMARK   13  A    between atoms: C_20  and  C_22
REMARK   14  A    between atoms: C_20  and  C_23
REMARK   15  A    between atoms: C_26  and  C_27
REMARK   16  A    between atoms: C_27  and  C_28
REMARK   17  A    between atoms: C_27  and  C_29
REMARK   18  A    between atoms: C_27  and  C_30
REMARK                            x       y       z     vdW  Elec       q    Type
REMARK                         _______ _______ _______ _____ _____    ______ ____
ROOT
ATOM      1  C   UNL     1       1.617   9.149  17.942  0.00  0.00    +0.000 C 
ATOM      2  C   UNL     1       1.432  10.247  18.690  0.00  0.00    +0.000 C 
ENDROOT
BRANCH   1   6
ATOM      3  C   UNL     1       2.946   5.243  18.968  0.00  0.00    +0.000 C 
ATOM      4  C   UNL     1       2.493   6.329  18.313  0.00  0.00    +0.000 C 
ATOM      5  C   UNL     1       3.355   7.358  17.758  0.00  0.00    +0.000 C 
ATOM      6  C   UNL     1       2.915   8.621  17.544  0.00  0.00    +0.000 C 
ATOM      7  C   UNL     1       4.691   6.966  17.310  0.00  0.00    +0.000 C 
ATOM      8  C   UNL     1       5.359   5.905  17.818  0.00  0.00    +0.000 C 
ATOM      9  S   UNL     1       4.673   4.986  19.168  0.00  0.00    +0.000 S 
BRANCH   3  11
ATOM     10  C   UNL     1       0.982   4.958  20.504  0.00  0.00    +0.000 C 
ATOM     11  C   UNL     1       1.973   4.209  19.593  0.00  0.00    +0.000 C 
ATOM     12  C   UNL     1       2.717   3.148  20.447  0.00  0.00    +0.000 C 
ATOM     13  C   UNL     1       1.171   3.409  18.538  0.00  0.00    +0.000 C 
ENDBRANCH   3  11
BRANCH   8  14
ATOM     14  C   UNL     1       6.768   5.457  17.333  0.00  0.00    +0.000 C 
ATOM     15  C   UNL     1       7.633   6.625  16.800  0.00  0.00    +0.000 C 
ATOM     16  C   UNL     1       7.562   4.806  18.490  0.00  0.00    +0.000 C 
ATOM     17  C   UNL     1       6.649   4.435  16.178  0.00  0.00    +0.000 C 
ENDBRANCH   8  14
ENDBRANCH   1   6
BRANCH   2  18
ATOM     18  C   UNL     1       0.065  10.699  19.012  0.00  0.00    +0.000 A 
ATOM     19  C   UNL     1      -0.963  10.480  18.068  0.00  0.00    +0.000 A 
ATOM     20  C   UNL     1      -2.305  10.899  18.197  0.00  0.00    +0.000 A 
ATOM     21  S   UNL     1      -2.808  11.826  19.651  0.00  0.00    +0.000 S 
ATOM     22  C   UNL     1      -1.351  11.916  20.692  0.00  0.00    +0.000 A 
ATOM     23  C   UNL     1      -0.134  11.367  20.239  0.00  0.00    +0.000 A 
BRANCH  20  24
ATOM     24  C   UNL     1      -3.392  10.613  17.149  0.00  0.00    +0.000 C 
ATOM     25  C   UNL     1      -4.488  11.696  17.079  0.00  0.00    +0.000 C 
ATOM     26  C   UNL     1      -2.747  10.521  15.747  0.00  0.00    +0.000 C 
ATOM     27  C   UNL     1      -4.098   9.274  17.463  0.00  0.00    +0.000 C 
ENDBRANCH  20  24
BRANCH  22  28
ATOM     28  C   UNL     1      -1.515  12.608  22.054  0.00  0.00    +0.000 C 
ATOM     29  C   UNL     1      -1.440  11.554  23.183  0.00  0.00    +0.000 C 
ATOM     30  C   UNL     1      -0.430  13.666  22.346  0.00  0.00    +0.000 C 
ATOM     31  C   UNL     1      -2.881  13.326  22.126  0.00  0.00    +0.000 C 
ENDBRANCH  22  28
ENDBRANCH   2  18
TORSDOF 6
ENDMDL
MODEL 8
REMARK VINA RESULT:      -8.5      0.201      1.326
REMARK  Name = 
REMARK  18 active torsions:
REMARK  status: ('A' for Active; 'I' for Inactive)
REMARK    1  A    between atoms: C_1  and  C_2
REMARK    2  A    between atoms: C_2  and  C_3
REMARK    3  A    between atoms: C_2  and  C_4
REMARK    4  A    between atoms: C_2  and  C_5
REMARK    5  A    between atoms: C_8  and  C_9
REMARK    6  A    between atoms: C_10  and  C_11
REMARK    7  A    between atoms: C_13  and  C_14
REMARK    8  A    between atoms: C_14  and  C_15
REMARK    9  A    between atoms: C_14  and  C_16
REMARK   10  A    between atoms: C_14  and  C_17
REMARK   11  A    between atoms: C_19  and  C_20
REMARK   12  A    between atoms: C_20  and  C_21
REMARK   13  A    between atoms: C_20  and  C_22
REMARK   14  A    between atoms: C_20  and  C_23
REMARK   15  A    between atoms: C_26  and  C_27
REMARK   16  A    between atoms: C_27  and  C_28
REMARK   17  A    between atoms: C_27  and  C_29
REMARK   18  A    between atoms: C_27  and  C_30
REMARK                            x       y       z     vdW  Elec       q    Type
REMARK                         _______ _______ _______ _____ _____    ______ ____
ROOT
ATOM      1  C   UNL     1       1.617   9.019  18.147  0.00  0.00    +0.000 C 
ATOM      2  C   UNL     1       1.312  10.316  18.303  0.00  0.00    +0.000 C 
ENDROOT
BRANCH   1   6
ATOM      3  C   UNL     1       2.974   5.067  18.930  0.00  0.00    +0.000 C 
ATOM      4  C   UNL     1       2.503   6.185  18.346  0.00  0.00    +0.000 C 
ATOM      5  C   UNL     1       3.350   7.244  17.823  0.00  0.00    +0.000 C 
ATOM      6  C   UNL     1       2.904   8.515  17.688  0.00  0.00    +0.000 C 
ATOM      7  C   UNL     1       4.673   6.878  17.320  0.00  0.00    +0.000 C 
ATOM      8  C   UNL     1       5.355   5.793  17.753  0.00  0.00    +0.000 C 
ATOM      9  S   UNL     1       4.706   4.803  19.070  0.00  0.00    +0.000 S 
BRANCH   3  11
ATOM     10  C   UNL     1       1.240   3.342  18.371  0.00  0.00    +0.000 C 
ATOM     11  C   UNL     1       2.019   3.999  19.525  0.00  0.00    +0.000 C 
ATOM     12  C   UNL     1       0.997   4.615  20.517  0.00  0.00    +0.000 C 
ATOM     13  C   UNL     1       2.758   2.894  20.319  0.00  0.00    +0.000 C 
ENDBRANCH   3  11
BRANCH   8  14
ATOM     14  C   UNL     1       6.752   5.374  17.208  0.00  0.00    +0.000 C 
ATOM     15  C   UNL     1       7.597   6.569  16.703  0.00  0.00    +0.000 C 
ATOM     16  C   UNL     1       7.581   4.676  18.311  0.00  0.00    +0.000 C 
ATOM     17  C   UNL     1       6.602   4.404  16.012  0.00  0.00    +0.000 C 
ENDBRANCH   8  14
ENDBRANCH   1   6
BRANCH   2  18
ATOM     18  C   UNL     1      -0.036  10.708  18.756  0.00  0.00    +0.000 A 
ATOM     19  C   UNL     1      -1.116  10.596  17.852  0.00  0.00    +0.000 A 
ATOM     20  C   UNL     1      -2.451  10.979  18.108  0.00  0.00    +0.000 A 
ATOM     21  S   UNL     1      -2.873  11.714  19.691  0.00  0.00    +0.000 S 
ATOM     22  C   UNL     1      -1.359  11.692  20.651  0.00  0.00    +0.000 A 
ATOM     23  C   UNL     1      -0.167  11.218  20.065  0.00  0.00    +0.000 A 
BRANCH  20  24
ATOM     24  C   UNL     1      -3.595  10.812  17.095  0.00  0.00    +0.000 C 
ATOM     25  C   UNL     1      -4.705  11.874  17.232  0.00  0.00    +0.000 C 
ATOM     26  C   UNL     1      -3.033  10.917  15.658  0.00  0.00    +0.000 C 
ATOM     27  C   UNL     1      -4.265   9.430  17.270  0.00  0.00    +0.000 C 
ENDBRANCH  20  24
BRANCH  22  28
ATOM     28  C   UNL     1      -1.447  12.208  22.096  0.00  0.00    +0.000 C 
ATOM     29  C   UNL     1      -2.889  12.680  22.389  0.00  0.00    +0.000 C 
ATOM     30  C   UNL     1      -1.089  11.146  23.157  0.00  0.00    +0.000 C 
ATOM     31  C   UNL     1      -0.479  13.396  22.296  0.00  0.00    +0.000 C 
ENDBRANCH  22  28
ENDBRANCH   2  18
TORSDOF 6
ENDMDL
MODEL 9
REMARK VINA RESULT:      -8.4      0.207      1.085
REMARK  Name = 
REMARK  18 active torsions:
REMARK  status: ('A' for Active; 'I' for Inactive)
REMARK    1  A    between atoms: C_1  and  C_2
REMARK    2  A    between atoms: C_2  and  C_3
REMARK    3  A    between atoms: C_2  and  C_4
REMARK    4  A    between atoms: C_2  and  C_5
REMARK    5  A    between atoms: C_8  and  C_9
REMARK    6  A    between atoms: C_10  and  C_11
REMARK    7  A    between atoms: C_13  and  C_14
REMARK    8  A    between atoms: C_14  and  C_15
REMARK    9  A    between atoms: C_14  and  C_16
REMARK   10  A    between atoms: C_14  and  C_17
REMARK   11  A    between atoms: C_19  and  C_20
REMARK   12  A    between atoms: C_20  and  C_21
REMARK   13  A    between atoms: C_20  and  C_22
REMARK   14  A    between atoms: C_20  and  C_23
REMARK   15  A    between atoms: C_26  and  C_27
REMARK   16  A    between atoms: C_27  and  C_28
REMARK   17  A    between atoms: C_27  and  C_29
REMARK   18  A    between atoms: C_27  and  C_30
REMARK                            x       y       z     vdW  Elec       q    Type
REMARK                         _______ _______ _______ _____ _____    ______ ____
ROOT
ATOM      1  C   UNL     1       1.549   9.192  18.197  0.00  0.00    +0.000 C 
ATOM      2  C   UNL     1       1.196  10.481  18.313  0.00  0.00    +0.000 C 
ENDROOT
BRANCH   1   6
ATOM      3  C   UNL     1       2.985   5.257  18.921  0.00  0.00    +0.000 C 
ATOM      4  C   UNL     1       2.493   6.375  18.354  0.00  0.00    +0.000 C 
ATOM      5  C   UNL     1       3.318   7.458  17.849  0.00  0.00    +0.000 C 
ATOM      6  C   UNL     1       2.846   8.722  17.733  0.00  0.00    +0.000 C 
ATOM      7  C   UNL     1       4.649   7.127  17.342  0.00  0.00    +0.000 C 
ATOM      8  C   UNL     1       5.353   6.050  17.760  0.00  0.00    +0.000 C 
ATOM      9  S   UNL     1       4.722   5.027  19.060  0.00  0.00    +0.000 S 
BRANCH   3  11
ATOM     10  C   UNL     1       2.922   3.083  20.172  0.00  0.00    +0.000 C 
ATOM     11  C   UNL     1       2.051   4.161  19.499  0.00  0.00    +0.000 C 
ATOM     12  C   UNL     1       1.195   3.482  18.398  0.00  0.00    +0.000 C 
ATOM     13  C   UNL     1       1.041   4.705  20.539  0.00  0.00    +0.000 C 
ENDBRANCH   3  11
BRANCH   8  14
ATOM     14  C   UNL     1       6.758   5.668  17.210  0.00  0.00    +0.000 C 
ATOM     15  C   UNL     1       7.488   4.612  18.075  0.00  0.00    +0.000 C 
ATOM     16  C   UNL     1       6.645   5.077  15.785  0.00  0.00    +0.000 C 
ATOM     17  C   UNL     1       7.681   6.910  17.160  0.00  0.00    +0.000 C 
ENDBRANCH   8  14
ENDBRANCH   1   6
BRANCH   2  18
ATOM     18  C   UNL     1      -0.159  10.838  18.776  0.00  0.00    +0.000 A 
ATOM     19  C   UNL     1      -1.240  10.707  17.878  0.00  0.00    +0.000 A 
ATOM     20  C   UNL     1      -2.583  11.056  18.144  0.00  0.00    +0.000 A 
ATOM     21  S   UNL     1      -3.013  11.768  19.736  0.00  0.00    +0.000 S 
ATOM     22  C   UNL     1      -1.493  11.774  20.687  0.00  0.00    +0.000 A 
ATOM     23  C   UNL     1      -0.294  11.333  20.091  0.00  0.00    +0.000 A 
BRANCH  20  24
ATOM     24  C   UNL     1      -3.728  10.870  17.137  0.00  0.00    +0.000 C 
ATOM     25  C   UNL     1      -4.802  11.976  17.206  0.00  0.00    +0.000 C 
ATOM     26  C   UNL     1      -3.158  10.872  15.700  0.00  0.00    +0.000 C 
ATOM     27  C   UNL     1      -4.446   9.524  17.388  0.00  0.00    +0.000 C 
ENDBRANCH  20  24
BRANCH  22  28
ATOM     28  C   UNL     1      -1.585  12.277  22.136  0.00  0.00    +0.000 C 
ATOM     29  C   UNL     1      -3.032  12.731  22.436  0.00  0.00    +0.000 C 
ATOM     30  C   UNL     1      -1.216  11.209  23.188  0.00  0.00    +0.000 C 
ATOM     31  C   UNL     1      -0.628  13.472  22.347  0.00  0.00    +0.000 C 
ENDBRANCH  22  28
ENDBRANCH   2  18
TORSDOF 6
ENDMDL
