MODEL 1
REMARK VINA RESULT:      -8.8      0.000      0.000
REMARK  Name = 
REMARK  8 active torsions:
REMARK  status: ('A' for Active; 'I' for Inactive)
REMARK    1  A    between atoms: C_1  and  N_2
REMARK    2  A    between atoms: C_3  and  C_5
REMARK    3  A    between atoms: C_9  and  N_10
REMARK    4  A    between atoms: C_18  and  C_19
REMARK    5  A    between atoms: C_19  and  O_20
REMARK    6  A    between atoms: O_20  and  C_21
REMARK    7  A    between atoms: C_25  and  O_26
REMARK    8  A    between atoms: O_26  and  C_27
REMARK                            x       y       z     vdW  Elec       q    Type
REMARK                         _______ _______ _______ _____ _____    ______ ____
ROOT
ATOM      1  N   UNL     1       1.665   8.883  17.618  0.00  0.00    +0.000 N 
ATOM      2  C   UNL     1       2.359   7.866  18.281  0.00  0.00    +0.000 A 
ATOM      3  N   UNL     1       1.909   7.360  19.424  0.00  0.00    +0.000 NA
ATOM      4  C   UNL     1       2.685   6.454  19.994  0.00  0.00    +0.000 A 
ATOM      5  N   UNL     1       3.847   6.035  19.530  0.00  0.00    +0.000 NA
ATOM      6  C   UNL     1       4.227   6.584  18.379  0.00  0.00    +0.000 A 
ATOM      7  N   UNL     1       5.457   6.200  17.839  0.00  0.00    +0.000 N 
ATOM      8  C   UNL     1       5.809   6.245  16.458  0.00  0.00    +0.000 C 
ATOM      9  C   UNL     1       6.373   4.826  16.595  0.00  0.00    +0.000 C 
ATOM     10  C   UNL     1       6.132   4.967  18.101  0.00  0.00    +0.000 C 
ATOM     11  N   UNL     1       3.504   7.494  17.718  0.00  0.00    +0.000 NA
ATOM     12  H   UNL     1       2.231   9.211  16.846  0.00  0.00    +0.000 HD
ENDROOT
BRANCH   1  17
ATOM     13  C   UNL     1      -1.577  10.637  18.242  0.00  0.00    +0.000 A 
ATOM     14  C   UNL     1      -1.183  11.576  19.196  0.00  0.00    +0.000 A 
ATOM     15  C   UNL     1       0.148  11.633  19.600  0.00  0.00    +0.000 A 
ATOM     16  C   UNL     1       1.084  10.746  19.056  0.00  0.00    +0.000 A 
ATOM     17  C   UNL     1       0.705   9.781  18.111  0.00  0.00    +0.000 A 
ATOM     18  C   UNL     1      -0.629   9.773  17.688  0.00  0.00    +0.000 A 
BRANCH  13  21
ATOM     19  C   UNL     1      -4.908  11.864  16.929  0.00  0.00    +0.000 C 
ATOM     20  N   UNL     1      -3.534  11.787  17.349  0.00  0.00    +0.000 N 
ATOM     21  C   UNL     1      -2.995  10.598  17.796  0.00  0.00    +0.000 C 
ATOM     22  O   UNL     1      -3.617   9.539  17.818  0.00  0.00    +0.000 OA
ATOM     23  H   UNL     1      -2.942  12.597  17.227  0.00  0.00    +0.000 HD
ENDBRANCH  13  21
ENDBRANCH   1  17
BRANCH   9  24
ATOM     24  C   UNL     1       5.525   3.787  15.876  0.00  0.00    +0.000 C 
BRANCH  24  25
ATOM     25  O   UNL     1       5.138   2.775  16.810  0.00  0.00    +0.000 OA
BRANCH  25  26
ATOM     26  C   UNL     1       3.911   2.942  17.403  0.00  0.00    +0.000 A 
ATOM     27  C   UNL     1       3.011   3.741  16.694  0.00  0.00    +0.000 A 
ATOM     28  C   UNL     1       1.736   3.985  17.203  0.00  0.00    +0.000 A 
ATOM     29  C   UNL     1       1.347   3.407  18.411  0.00  0.00    +0.000 A 
ATOM     30  C   UNL     1       2.227   2.581  19.114  0.00  0.00    +0.000 A 
ATOM     31  C   UNL     1       3.521   2.391  18.628  0.00  0.00    +0.000 A 
BRANCH  30  32
ATOM     32  O   UNL     1       1.738   2.077  20.281  0.00  0.00    +0.000 OA
BRANCH  32  33
ATOM     33  C   UNL     1       1.524   2.943  21.389  0.00  0.00    +0.000 C 
ATOM     34  F   UNL     1       0.748   4.014  21.124  0.00  0.00    +0.000 F 
ATOM     35  F   UNL     1       0.957   2.240  22.395  0.00  0.00    +0.000 F 
ATOM     36  F   UNL     1       2.722   3.399  21.818  0.00  0.00    +0.000 F 
ENDBRANCH  32  33
ENDBRANCH  30  32
ENDBRANCH  25  26
ENDBRANCH  24  25
ENDBRANCH   9  24
TORSDOF 7
ENDMDL
MODEL 2
REMARK VINA RESULT:      -8.4      3.635      9.510
REMARK  Name = 
REMARK  8 active torsions:
REMARK  status: ('A' for Active; 'I' for Inactive)
REMARK    1  A    between atoms: C_1  and  N_2
REMARK    2  A    between atoms: C_3  and  C_5
REMARK    3  A    between atoms: C_9  and  N_10
REMARK    4  A    between atoms: C_18  and  C_19
REMARK    5  A    between atoms: C_19  and  O_20
REMARK    6  A    between atoms: O_20  and  C_21
REMARK    7  A    between atoms: C_25  and  O_26
REMARK    8  A    between atoms: O_26  and  C_27
REMARK                            x       y       z     vdW  Elec       q    Type
REMARK                         _______ _______ _______ _____ _____    ______ ____
ROOT
ATOM      1  N   UNL     1       2.196   6.403  20.383  0.00  0.00    +0.000 N 
ATOM      2  C   UNL     1       1.921   7.569  19.662  0.00  0.00    +0.000 A 
ATOM      3  N   UNL     1       2.100   7.621  18.346  0.00  0.00    +0.000 NA
ATOM      4  C   UNL     1       1.876   8.796  17.782  0.00  0.00    +0.000 A 
ATOM      5  N   UNL     1       1.510   9.894  18.416  0.00  0.00    +0.000 NA
ATOM      6  C   UNL     1       1.347   9.762  19.729  0.00  0.00    +0.000 A 
ATOM      7  N   UNL     1       0.977  10.891  20.465  0.00  0.00    +0.000 N 
ATOM      8  C   UNL     1       0.277  10.880  21.707  0.00  0.00    +0.000 C 
ATOM      9  C   UNL     1      -0.646  11.972  21.153  0.00  0.00    +0.000 C 
ATOM     10  C   UNL     1       0.295  12.035  19.946  0.00  0.00    +0.000 C 
ATOM     11  N   UNL     1       1.531   8.613  20.386  0.00  0.00    +0.000 NA
ATOM     12  H   UNL     1       2.116   6.608  21.371  0.00  0.00    +0.000 HD
ENDROOT
BRANCH   1  17
ATOM     13  C   UNL     1       4.946   4.312  18.956  0.00  0.00    +0.000 A 
ATOM     14  C   UNL     1       4.592   3.052  19.443  0.00  0.00    +0.000 A 
ATOM     15  C   UNL     1       3.440   2.909  20.213  0.00  0.00    +0.000 A 
ATOM     16  C   UNL     1       2.647   4.025  20.501  0.00  0.00    +0.000 A 
ATOM     17  C   UNL     1       2.996   5.302  20.038  0.00  0.00    +0.000 A 
ATOM     18  C   UNL     1       4.133   5.414  19.230  0.00  0.00    +0.000 A 
BRANCH  13  21
ATOM     19  C   UNL     1       7.091   4.531  15.846  0.00  0.00    +0.000 C 
ATOM     20  N   UNL     1       5.974   4.435  16.748  0.00  0.00    +0.000 N 
ATOM     21  C   UNL     1       6.163   4.454  18.114  0.00  0.00    +0.000 C 
ATOM     22  O   UNL     1       7.262   4.600  18.643  0.00  0.00    +0.000 OA
ATOM     23  H   UNL     1       5.038   4.446  16.366  0.00  0.00    +0.000 HD
ENDBRANCH  13  21
ENDBRANCH   1  17
BRANCH   9  24
ATOM     24  C   UNL     1      -2.053  11.463  20.877  0.00  0.00    +0.000 C 
BRANCH  24  25
ATOM     25  O   UNL     1      -2.800  12.491  20.219  0.00  0.00    +0.000 OA
BRANCH  25  26
ATOM     26  C   UNL     1      -3.441  12.122  19.063  0.00  0.00    +0.000 A 
ATOM     27  C   UNL     1      -4.829  12.005  19.165  0.00  0.00    +0.000 A 
ATOM     28  C   UNL     1      -5.586  11.631  18.054  0.00  0.00    +0.000 A 
ATOM     29  C   UNL     1      -4.957  11.399  16.831  0.00  0.00    +0.000 A 
ATOM     30  C   UNL     1      -3.574  11.542  16.709  0.00  0.00    +0.000 A 
ATOM     31  C   UNL     1      -2.818  11.859  17.839  0.00  0.00    +0.000 A 
BRANCH  30  32
ATOM     32  O   UNL     1      -3.074  11.287  15.469  0.00  0.00    +0.000 OA
BRANCH  32  33
ATOM     33  C   UNL     1      -3.187   9.981  14.917  0.00  0.00    +0.000 C 
ATOM     34  F   UNL     1      -2.298   9.704  13.941  0.00  0.00    +0.000 F 
ATOM     35  F   UNL     1      -3.041   9.070  15.904  0.00  0.00    +0.000 F 
ATOM     36  F   UNL     1      -4.427   9.840  14.395  0.00  0.00    +0.000 F 
ENDBRANCH  32  33
ENDBRANCH  30  32
ENDBRANCH  25  26
ENDBRANCH  24  25
ENDBRANCH   9  24
TORSDOF 7
ENDMDL
MODEL 3
REMARK VINA RESULT:      -8.0      1.762      2.235
REMARK  Name = 
REMARK  8 active torsions:
REMARK  status: ('A' for Active; 'I' for Inactive)
REMARK    1  A    between atoms: C_1  and  N_2
REMARK    2  A    between atoms: C_3  and  C_5
REMARK    3  A    between atoms: C_9  and  N_10
REMARK    4  A    between atoms: C_18  and  C_19
REMARK    5  A    between atoms: C_19  and  O_20
REMARK    6  A    between atoms: O_20  and  C_21
REMARK    7  A    between atoms: C_25  and  O_26
REMARK    8  A    between atoms: O_26  and  C_27
REMARK                            x       y       z     vdW  Elec       q    Type
REMARK                         _______ _______ _______ _____ _____    ______ ____
ROOT
ATOM      1  N   UNL     1       1.605   9.231  17.610  0.00  0.00    +0.000 N 
ATOM      2  C   UNL     1       2.227   8.184  18.297  0.00  0.00    +0.000 A 
ATOM      3  N   UNL     1       1.717   7.705  19.425  0.00  0.00    +0.000 NA
ATOM      4  C   UNL     1       2.429   6.764  20.023  0.00  0.00    +0.000 A 
ATOM      5  N   UNL     1       3.584   6.289  19.597  0.00  0.00    +0.000 NA
ATOM      6  C   UNL     1       4.027   6.815  18.459  0.00  0.00    +0.000 A 
ATOM      7  N   UNL     1       5.254   6.370  17.960  0.00  0.00    +0.000 N 
ATOM      8  C   UNL     1       5.652   6.393  16.591  0.00  0.00    +0.000 C 
ATOM      9  C   UNL     1       6.143   4.948  16.749  0.00  0.00    +0.000 C 
ATOM     10  C   UNL     1       5.860   5.107  18.246  0.00  0.00    +0.000 C 
ATOM     11  N   UNL     1       3.371   7.755  17.773  0.00  0.00    +0.000 NA
ATOM     12  H   UNL     1       2.210   9.528  16.855  0.00  0.00    +0.000 HD
ENDROOT
BRANCH   1  17
ATOM     13  C   UNL     1       0.071  12.419  18.820  0.00  0.00    +0.000 A 
ATOM     14  C   UNL     1      -1.269  12.039  18.918  0.00  0.00    +0.000 A 
ATOM     15  C   UNL     1      -1.641  10.733  18.608  0.00  0.00    +0.000 A 
ATOM     16  C   UNL     1      -0.676   9.809  18.193  0.00  0.00    +0.000 A 
ATOM     17  C   UNL     1       0.673  10.176  18.068  0.00  0.00    +0.000 A 
ATOM     18  C   UNL     1       1.029  11.481  18.427  0.00  0.00    +0.000 A 
BRANCH  13  21
ATOM     19  C   UNL     1      -0.025  16.199  18.956  0.00  0.00    +0.000 C 
ATOM     20  N   UNL     1      -0.340  14.820  18.697  0.00  0.00    +0.000 N 
ATOM     21  C   UNL     1       0.465  13.807  19.176  0.00  0.00    +0.000 C 
ATOM     22  O   UNL     1       1.452  14.003  19.881  0.00  0.00    +0.000 OA
ATOM     23  H   UNL     1      -1.211  14.598  18.234  0.00  0.00    +0.000 HD
ENDBRANCH  13  21
ENDBRANCH   1  17
BRANCH   9  24
ATOM     24  C   UNL     1       5.269   3.949  16.006  0.00  0.00    +0.000 C 
BRANCH  24  25
ATOM     25  O   UNL     1       4.877   2.911  16.908  0.00  0.00    +0.000 OA
BRANCH  25  26
ATOM     26  C   UNL     1       3.662   3.079  17.525  0.00  0.00    +0.000 A 
ATOM     27  C   UNL     1       2.785   3.955  16.883  0.00  0.00    +0.000 A 
ATOM     28  C   UNL     1       1.523   4.206  17.421  0.00  0.00    +0.000 A 
ATOM     29  C   UNL     1       1.125   3.559  18.591  0.00  0.00    +0.000 A 
ATOM     30  C   UNL     1       1.982   2.658  19.226  0.00  0.00    +0.000 A 
ATOM     31  C   UNL     1       3.264   2.457  18.714  0.00  0.00    +0.000 A 
BRANCH  30  32
ATOM     32  O   UNL     1       1.486   2.091  20.360  0.00  0.00    +0.000 OA
BRANCH  32  33
ATOM     33  C   UNL     1       1.750   2.690  21.623  0.00  0.00    +0.000 C 
ATOM     34  F   UNL     1       1.796   4.039  21.607  0.00  0.00    +0.000 F 
ATOM     35  F   UNL     1       0.800   2.303  22.503  0.00  0.00    +0.000 F 
ATOM     36  F   UNL     1       2.945   2.243  22.071  0.00  0.00    +0.000 F 
ENDBRANCH  32  33
ENDBRANCH  30  32
ENDBRANCH  25  26
ENDBRANCH  24  25
ENDBRANCH   9  24
TORSDOF 7
ENDMDL
MODEL 4
REMARK VINA RESULT:      -8.0      3.843      5.401
REMARK  Name = 
REMARK  8 active torsions:
REMARK  status: ('A' for Active; 'I' for Inactive)
REMARK    1  A    between atoms: C_1  and  N_2
REMARK    2  A    between atoms: C_3  and  C_5
REMARK    3  A    between atoms: C_9  and  N_10
REMARK    4  A    between atoms: C_18  and  C_19
REMARK    5  A    between atoms: C_19  and  O_20
REMARK    6  A    between atoms: O_20  and  C_21
REMARK    7  A    between atoms: C_25  and  O_26
REMARK    8  A    between atoms: O_26  and  C_27
REMARK                            x       y       z     vdW  Elec       q    Type
REMARK                         _______ _______ _______ _____ _____    ______ ____
ROOT
ATOM      1  N   UNL     1       1.384   8.059  21.525  0.00  0.00    +0.000 N 
ATOM      2  C   UNL     1       1.726   7.470  20.304  0.00  0.00    +0.000 A 
ATOM      3  N   UNL     1       1.858   8.201  19.202  0.00  0.00    +0.000 NA
ATOM      4  C   UNL     1       2.114   7.527  18.094  0.00  0.00    +0.000 A 
ATOM      5  N   UNL     1       2.233   6.216  18.002  0.00  0.00    +0.000 NA
ATOM      6  C   UNL     1       2.093   5.554  19.148  0.00  0.00    +0.000 A 
ATOM      7  N   UNL     1       2.189   4.160  19.120  0.00  0.00    +0.000 N 
ATOM      8  C   UNL     1       2.575   3.332  20.214  0.00  0.00    +0.000 C 
ATOM      9  C   UNL     1       3.513   2.579  19.264  0.00  0.00    +0.000 C 
ATOM     10  C   UNL     1       2.880   3.394  18.131  0.00  0.00    +0.000 C 
ATOM     11  N   UNL     1       1.851   6.147  20.321  0.00  0.00    +0.000 NA
ATOM     12  H   UNL     1       1.212   7.326  22.201  0.00  0.00    +0.000 HD
ENDROOT
BRANCH   1  17
ATOM     13  C   UNL     1       0.419  11.664  21.304  0.00  0.00    +0.000 A 
ATOM     14  C   UNL     1      -0.535  11.739  22.320  0.00  0.00    +0.000 A 
ATOM     15  C   UNL     1      -0.827  10.607  23.077  0.00  0.00    +0.000 A 
ATOM     16  C   UNL     1      -0.171   9.399  22.814  0.00  0.00    +0.000 A 
ATOM     17  C   UNL     1       0.777   9.298  21.784  0.00  0.00    +0.000 A 
ATOM     18  C   UNL     1       1.085  10.459  21.067  0.00  0.00    +0.000 A 
BRANCH  13  21
ATOM     19  C   UNL     1       1.639  15.165  20.545  0.00  0.00    +0.000 C 
ATOM     20  N   UNL     1       1.318  13.929  21.208  0.00  0.00    +0.000 N 
ATOM     21  C   UNL     1       0.745  12.882  20.516  0.00  0.00    +0.000 C 
ATOM     22  O   UNL     1       0.520  12.911  19.309  0.00  0.00    +0.000 OA
ATOM     23  H   UNL     1       1.603  13.805  22.170  0.00  0.00    +0.000 HD
ENDBRANCH  13  21
ENDBRANCH   1  17
BRANCH   9  24
ATOM     24  C   UNL     1       4.982   2.858  19.547  0.00  0.00    +0.000 C 
BRANCH  24  25
ATOM     25  O   UNL     1       5.146   4.253  19.820  0.00  0.00    +0.000 OA
BRANCH  25  26
ATOM     26  C   UNL     1       5.859   4.967  18.889  0.00  0.00    +0.000 A 
ATOM     27  C   UNL     1       6.972   5.648  19.386  0.00  0.00    +0.000 A 
ATOM     28  C   UNL     1       7.769   6.410  18.532  0.00  0.00    +0.000 A 
ATOM     29  C   UNL     1       7.468   6.471  17.171  0.00  0.00    +0.000 A 
ATOM     30  C   UNL     1       6.376   5.770  16.657  0.00  0.00    +0.000 A 
ATOM     31  C   UNL     1       5.550   5.058  17.527  0.00  0.00    +0.000 A 
BRANCH  30  32
ATOM     32  O   UNL     1       6.180   5.908  15.317  0.00  0.00    +0.000 OA
BRANCH  32  33
ATOM     33  C   UNL     1       6.574   4.863  14.435  0.00  0.00    +0.000 C 
ATOM     34  F   UNL     1       7.474   5.228  13.498  0.00  0.00    +0.000 F 
ATOM     35  F   UNL     1       7.094   3.847  15.158  0.00  0.00    +0.000 F 
ATOM     36  F   UNL     1       5.476   4.404  13.793  0.00  0.00    +0.000 F 
ENDBRANCH  32  33
ENDBRANCH  30  32
ENDBRANCH  25  26
ENDBRANCH  24  25
ENDBRANCH   9  24
TORSDOF 7
ENDMDL
MODEL 5
REMARK VINA RESULT:      -8.0      3.355      9.302
REMARK  Name = 
REMARK  8 active torsions:
REMARK  status: ('A' for Active; 'I' for Inactive)
REMARK    1  A    between atoms: C_1  and  N_2
REMARK    2  A    between atoms: C_3  and  C_5
REMARK    3  A    between atoms: C_9  and  N_10
REMARK    4  A    between atoms: C_18  and  C_19
REMARK    5  A    between atoms: C_19  and  O_20
REMARK    6  A    between atoms: O_20  and  C_21
REMARK    7  A    between atoms: C_25  and  O_26
REMARK    8  A    between atoms: O_26  and  C_27
REMARK                            x       y       z     vdW  Elec       q    Type
REMARK                         _______ _______ _______ _____ _____    ______ ____
ROOT
ATOM      1  N   UNL     1       1.535   7.918  19.524  0.00  0.00    +0.000 N 
ATOM      2  C   UNL     1       1.301   9.296  19.499  0.00  0.00    +0.000 A 
ATOM      3  N   UNL     1       1.606  10.025  18.431  0.00  0.00    +0.000 NA
ATOM      4  C   UNL     1       1.406  11.327  18.549  0.00  0.00    +0.000 A 
ATOM      5  N   UNL     1       0.949  11.939  19.625  0.00  0.00    +0.000 NA
ATOM      6  C   UNL     1       0.662  11.142  20.650  0.00  0.00    +0.000 A 
ATOM      7  N   UNL     1       0.191  11.727  21.829  0.00  0.00    +0.000 N 
ATOM      8  C   UNL     1      -0.626  11.086  22.806  0.00  0.00    +0.000 C 
ATOM      9  C   UNL     1      -1.520  12.332  22.820  0.00  0.00    +0.000 C 
ATOM     10  C   UNL     1      -0.467  12.992  21.924  0.00  0.00    +0.000 C 
ATOM     11  N   UNL     1       0.813   9.815  20.622  0.00  0.00    +0.000 NA
ATOM     12  H   UNL     1       1.354   7.576  20.459  0.00  0.00    +0.000 HD
ENDROOT
BRANCH   1  17
ATOM     13  C   UNL     1       3.117   5.006  17.793  0.00  0.00    +0.000 A 
ATOM     14  C   UNL     1       4.121   5.651  17.068  0.00  0.00    +0.000 A 
ATOM     15  C   UNL     1       4.276   7.031  17.182  0.00  0.00    +0.000 A 
ATOM     16  C   UNL     1       3.423   7.766  18.012  0.00  0.00    +0.000 A 
ATOM     17  C   UNL     1       2.395   7.140  18.733  0.00  0.00    +0.000 A 
ATOM     18  C   UNL     1       2.287   5.748  18.638  0.00  0.00    +0.000 A 
BRANCH  13  21
ATOM     19  C   UNL     1       3.705   1.335  18.496  0.00  0.00    +0.000 C 
ATOM     20  N   UNL     1       3.745   2.772  18.542  0.00  0.00    +0.000 N 
ATOM     21  C   UNL     1       2.972   3.530  17.687  0.00  0.00    +0.000 C 
ATOM     22  O   UNL     1       2.180   3.047  16.883  0.00  0.00    +0.000 OA
ATOM     23  H   UNL     1       4.280   3.221  19.273  0.00  0.00    +0.000 HD
ENDBRANCH  13  21
ENDBRANCH   1  17
BRANCH   9  24
ATOM     24  C   UNL     1      -2.879  12.084  22.182  0.00  0.00    +0.000 C 
BRANCH  24  25
ATOM     25  O   UNL     1      -3.105  13.067  21.168  0.00  0.00    +0.000 OA
BRANCH  25  26
ATOM     26  C   UNL     1      -3.659  12.607  19.999  0.00  0.00    +0.000 A 
ATOM     27  C   UNL     1      -5.052  12.684  19.931  0.00  0.00    +0.000 A 
ATOM     28  C   UNL     1      -5.725  12.242  18.792  0.00  0.00    +0.000 A 
ATOM     29  C   UNL     1      -5.004  11.746  17.707  0.00  0.00    +0.000 A 
ATOM     30  C   UNL     1      -3.609  11.692  17.751  0.00  0.00    +0.000 A 
ATOM     31  C   UNL     1      -2.947  12.081  18.916  0.00  0.00    +0.000 A 
BRANCH  30  32
ATOM     32  O   UNL     1      -3.015  11.187  16.635  0.00  0.00    +0.000 OA
BRANCH  32  33
ATOM     33  C   UNL     1      -2.576   9.834  16.620  0.00  0.00    +0.000 C 
ATOM     34  F   UNL     1      -2.646   9.233  15.413  0.00  0.00    +0.000 F 
ATOM     35  F   UNL     1      -1.297   9.780  17.053  0.00  0.00    +0.000 F 
ATOM     36  F   UNL     1      -3.341   9.123  17.478  0.00  0.00    +0.000 F 
ENDBRANCH  32  33
ENDBRANCH  30  32
ENDBRANCH  25  26
ENDBRANCH  24  25
ENDBRANCH   9  24
TORSDOF 7
ENDMDL
MODEL 6
REMARK VINA RESULT:      -8.0      5.285     10.123
REMARK  Name = 
REMARK  8 active torsions:
REMARK  status: ('A' for Active; 'I' for Inactive)
REMARK    1  A    between atoms: C_1  and  N_2
REMARK    2  A    between atoms: C_3  and  C_5
REMARK    3  A    between atoms: C_9  and  N_10
REMARK    4  A    between atoms: C_18  and  C_19
REMARK    5  A    between atoms: C_19  and  O_20
REMARK    6  A    between atoms: O_20  and  C_21
REMARK    7  A    between atoms: C_25  and  O_26
REMARK    8  A    between atoms: O_26  and  C_27
REMARK                            x       y       z     vdW  Elec       q    Type
REMARK                         _______ _______ _______ _____ _____    ______ ____
ROOT
ATOM      1  N   UNL     1       2.555   8.262  17.968  0.00  0.00    +0.000 N 
ATOM      2  C   UNL     1       1.764   8.662  19.050  0.00  0.00    +0.000 A 
ATOM      3  N   UNL     1       1.820   8.025  20.214  0.00  0.00    +0.000 NA
ATOM      4  C   UNL     1       0.976   8.447  21.141  0.00  0.00    +0.000 A 
ATOM      5  N   UNL     1       0.098   9.421  20.993  0.00  0.00    +0.000 NA
ATOM      6  C   UNL     1       0.105  10.013  19.802  0.00  0.00    +0.000 A 
ATOM      7  N   UNL     1      -0.813  11.041  19.571  0.00  0.00    +0.000 N 
ATOM      8  C   UNL     1      -0.652  12.103  18.633  0.00  0.00    +0.000 C 
ATOM      9  C   UNL     1      -1.099  13.083  19.724  0.00  0.00    +0.000 C 
ATOM     10  C   UNL     1      -1.423  11.852  20.576  0.00  0.00    +0.000 C 
ATOM     11  N   UNL     1       0.932   9.670  18.809  0.00  0.00    +0.000 NA
ATOM     12  H   UNL     1       2.275   8.788  17.151  0.00  0.00    +0.000 HD
ENDROOT
BRANCH   1  17
ATOM     13  C   UNL     1       3.222   4.594  17.683  0.00  0.00    +0.000 A 
ATOM     14  C   UNL     1       4.516   4.608  17.160  0.00  0.00    +0.000 A 
ATOM     15  C   UNL     1       5.157   5.823  16.934  0.00  0.00    +0.000 A 
ATOM     16  C   UNL     1       4.501   7.026  17.222  0.00  0.00    +0.000 A 
ATOM     17  C   UNL     1       3.193   7.034  17.730  0.00  0.00    +0.000 A 
ATOM     18  C   UNL     1       2.587   5.801  17.990  0.00  0.00    +0.000 A 
BRANCH  13  21
ATOM     19  C   UNL     1       0.615   2.141  18.909  0.00  0.00    +0.000 C 
ATOM     20  N   UNL     1       1.328   3.346  18.578  0.00  0.00    +0.000 N 
ATOM     21  C   UNL     1       2.553   3.293  17.946  0.00  0.00    +0.000 C 
ATOM     22  O   UNL     1       3.085   2.246  17.587  0.00  0.00    +0.000 OA
ATOM     23  H   UNL     1       0.875   4.237  18.732  0.00  0.00    +0.000 HD
ENDBRANCH  13  21
ENDBRANCH   1  17
BRANCH   9  24
ATOM     24  C   UNL     1       0.039  13.962  20.223  0.00  0.00    +0.000 C 
BRANCH  24  25
ATOM     25  O   UNL     1      -0.123  15.280  19.692  0.00  0.00    +0.000 OA
BRANCH  25  26
ATOM     26  C   UNL     1       0.903  15.740  18.904  0.00  0.00    +0.000 A 
ATOM     27  C   UNL     1       0.694  16.994  18.328  0.00  0.00    +0.000 A 
ATOM     28  C   UNL     1       1.667  17.560  17.503  0.00  0.00    +0.000 A 
ATOM     29  C   UNL     1       2.863  16.882  17.275  0.00  0.00    +0.000 A 
ATOM     30  C   UNL     1       3.097  15.640  17.870  0.00  0.00    +0.000 A 
ATOM     31  C   UNL     1       2.095  15.055  18.645  0.00  0.00    +0.000 A 
BRANCH  30  32
ATOM     32  O   UNL     1       4.299  15.074  17.571  0.00  0.00    +0.000 OA
BRANCH  32  33
ATOM     33  C   UNL     1       5.461  15.462  18.295  0.00  0.00    +0.000 C 
ATOM     34  F   UNL     1       5.544  16.782  18.558  0.00  0.00    +0.000 F 
ATOM     35  F   UNL     1       5.499  14.787  19.465  0.00  0.00    +0.000 F 
ATOM     36  F   UNL     1       6.552  15.116  17.574  0.00  0.00    +0.000 F 
ENDBRANCH  32  33
ENDBRANCH  30  32
ENDBRANCH  25  26
ENDBRANCH  24  25
ENDBRANCH   9  24
TORSDOF 7
ENDMDL
MODEL 7
REMARK VINA RESULT:      -7.9      3.505      9.494
REMARK  Name = 
REMARK  8 active torsions:
REMARK  status: ('A' for Active; 'I' for Inactive)
REMARK    1  A    between atoms: C_1  and  N_2
REMARK    2  A    between atoms: C_3  and  C_5
REMARK    3  A    between atoms: C_9  and  N_10
REMARK    4  A    between atoms: C_18  and  C_19
REMARK    5  A    between atoms: C_19  and  O_20
REMARK    6  A    between atoms: O_20  and  C_21
REMARK    7  A    between atoms: C_25  and  O_26
REMARK    8  A    between atoms: O_26  and  C_27
REMARK                            x       y       z     vdW  Elec       q    Type
REMARK                         _______ _______ _______ _____ _____    ______ ____
ROOT
ATOM      1  N   UNL     1       1.305   7.379  20.838  0.00  0.00    +0.000 N 
ATOM      2  C   UNL     1       1.069   8.671  20.356  0.00  0.00    +0.000 A 
ATOM      3  N   UNL     1       1.330   8.990  19.093  0.00  0.00    +0.000 NA
ATOM      4  C   UNL     1       1.133  10.257  18.770  0.00  0.00    +0.000 A 
ATOM      5  N   UNL     1       0.720  11.204  19.591  0.00  0.00    +0.000 NA
ATOM      6  C   UNL     1       0.476  10.805  20.836  0.00  0.00    +0.000 A 
ATOM      7  N   UNL     1       0.052  11.761  21.764  0.00  0.00    +0.000 N 
ATOM      8  C   UNL     1      -0.724  11.500  22.931  0.00  0.00    +0.000 C 
ATOM      9  C   UNL     1      -1.618  12.688  22.556  0.00  0.00    +0.000 C 
ATOM     10  C   UNL     1      -0.603  12.992  21.450  0.00  0.00    +0.000 C 
ATOM     11  N   UNL     1       0.626   9.545  21.254  0.00  0.00    +0.000 NA
ATOM     12  H   UNL     1       1.162   7.377  21.839  0.00  0.00    +0.000 HD
ENDROOT
BRANCH   1  17
ATOM     13  C   UNL     1       3.961   5.594  18.905  0.00  0.00    +0.000 A 
ATOM     14  C   UNL     1       3.805   4.295  19.392  0.00  0.00    +0.000 A 
ATOM     15  C   UNL     1       2.812   4.024  20.329  0.00  0.00    +0.000 A 
ATOM     16  C   UNL     1       1.980   5.052  20.786  0.00  0.00    +0.000 A 
ATOM     17  C   UNL     1       2.133   6.368  20.325  0.00  0.00    +0.000 A 
ATOM     18  C   UNL     1       3.109   6.607  19.351  0.00  0.00    +0.000 A 
BRANCH  13  21
ATOM     19  C   UNL     1       6.970   5.033  16.680  0.00  0.00    +0.000 C 
ATOM     20  N   UNL     1       5.900   4.853  17.624  0.00  0.00    +0.000 N 
ATOM     21  C   UNL     1       5.007   5.872  17.886  0.00  0.00    +0.000 C 
ATOM     22  O   UNL     1       5.032   6.957  17.311  0.00  0.00    +0.000 OA
ATOM     23  H   UNL     1       5.755   3.937  18.026  0.00  0.00    +0.000 HD
ENDBRANCH  13  21
ENDBRANCH   1  17
BRANCH   9  24
ATOM     24  C   UNL     1      -3.002  12.256  22.093  0.00  0.00    +0.000 C 
BRANCH  24  25
ATOM     25  O   UNL     1      -3.477  13.185  21.114  0.00  0.00    +0.000 OA
BRANCH  25  26
ATOM     26  C   UNL     1      -4.049  12.636  19.993  0.00  0.00    +0.000 A 
ATOM     27  C   UNL     1      -5.445  12.614  19.987  0.00  0.00    +0.000 A 
ATOM     28  C   UNL     1      -6.135  12.076  18.901  0.00  0.00    +0.000 A 
ATOM     29  C   UNL     1      -5.429  11.582  17.805  0.00  0.00    +0.000 A 
ATOM     30  C   UNL     1      -4.033  11.626  17.785  0.00  0.00    +0.000 A 
ATOM     31  C   UNL     1      -3.349  12.112  18.901  0.00  0.00    +0.000 A 
BRANCH  30  32
ATOM     32  O   UNL     1      -3.455  11.113  16.665  0.00  0.00    +0.000 OA
BRANCH  32  33
ATOM     33  C   UNL     1      -2.868   9.817  16.703  0.00  0.00    +0.000 C 
ATOM     34  F   UNL     1      -1.534   9.810  16.898  0.00  0.00    +0.000 F 
ATOM     35  F   UNL     1      -3.451   9.098  17.687  0.00  0.00    +0.000 F 
ATOM     36  F   UNL     1      -3.115   9.198  15.526  0.00  0.00    +0.000 F 
ENDBRANCH  32  33
ENDBRANCH  30  32
ENDBRANCH  25  26
ENDBRANCH  24  25
ENDBRANCH   9  24
TORSDOF 7
ENDMDL
MODEL 8
REMARK VINA RESULT:      -7.9      3.436      9.467
REMARK  Name = 
REMARK  8 active torsions:
REMARK  status: ('A' for Active; 'I' for Inactive)
REMARK    1  A    between atoms: C_1  and  N_2
REMARK    2  A    between atoms: C_3  and  C_5
REMARK    3  A    between atoms: C_9  and  N_10
REMARK    4  A    between atoms: C_18  and  C_19
REMARK    5  A    between atoms: C_19  and  O_20
REMARK    6  A    between atoms: O_20  and  C_21
REMARK    7  A    between atoms: C_25  and  O_26
REMARK    8  A    between atoms: O_26  and  C_27
REMARK                            x       y       z     vdW  Elec       q    Type
REMARK                         _______ _______ _______ _____ _____    ______ ____
ROOT
ATOM      1  N   UNL     1       1.802   6.411  20.825  0.00  0.00    +0.000 N 
ATOM      2  C   UNL     1       1.595   7.642  20.195  0.00  0.00    +0.000 A 
ATOM      3  N   UNL     1       1.766   7.779  18.885  0.00  0.00    +0.000 NA
ATOM      4  C   UNL     1       1.611   9.004  18.412  0.00  0.00    +0.000 A 
ATOM      5  N   UNL     1       1.319  10.073  19.128  0.00  0.00    +0.000 NA
ATOM      6  C   UNL     1       1.159   9.854  20.431  0.00  0.00    +0.000 A 
ATOM      7  N   UNL     1       0.866  10.947  21.252  0.00  0.00    +0.000 N 
ATOM      8  C   UNL     1       0.178  10.887  22.499  0.00  0.00    +0.000 C 
ATOM      9  C   UNL     1      -0.680  12.072  22.038  0.00  0.00    +0.000 C 
ATOM     10  C   UNL     1       0.254  12.166  20.827  0.00  0.00    +0.000 C 
ATOM     11  N   UNL     1       1.277   8.651  20.999  0.00  0.00    +0.000 NA
ATOM     12  H   UNL     1       1.744   6.546  21.826  0.00  0.00    +0.000 HD
ENDROOT
BRANCH   1  17
ATOM     13  C   UNL     1       4.269   4.246  19.035  0.00  0.00    +0.000 A 
ATOM     14  C   UNL     1       3.995   3.007  19.616  0.00  0.00    +0.000 A 
ATOM     15  C   UNL     1       2.985   2.900  20.570  0.00  0.00    +0.000 A 
ATOM     16  C   UNL     1       2.255   4.033  20.948  0.00  0.00    +0.000 A 
ATOM     17  C   UNL     1       2.529   5.291  20.390  0.00  0.00    +0.000 A 
ATOM     18  C   UNL     1       3.518   5.365  19.403  0.00  0.00    +0.000 A 
BRANCH  13  21
ATOM     19  C   UNL     1       7.730   4.560  17.536  0.00  0.00    +0.000 C 
ATOM     20  N   UNL     1       6.632   4.423  18.455  0.00  0.00    +0.000 N 
ATOM     21  C   UNL     1       5.331   4.349  18.000  0.00  0.00    +0.000 C 
ATOM     22  O   UNL     1       5.031   4.344  16.809  0.00  0.00    +0.000 OA
ATOM     23  H   UNL     1       6.833   4.290  19.437  0.00  0.00    +0.000 HD
ENDBRANCH  13  21
ENDBRANCH   1  17
BRANCH   9  24
ATOM     24  C   UNL     1      -2.119  11.673  21.743  0.00  0.00    +0.000 C 
BRANCH  24  25
ATOM     25  O   UNL     1      -2.783  12.765  21.101  0.00  0.00    +0.000 OA
BRANCH  25  26
ATOM     26  C   UNL     1      -3.424  12.469  19.924  0.00  0.00    +0.000 A 
ATOM     27  C   UNL     1      -4.793  12.743  19.907  0.00  0.00    +0.000 A 
ATOM     28  C   UNL     1      -5.549  12.478  18.765  0.00  0.00    +0.000 A 
ATOM     29  C   UNL     1      -4.930  11.964  17.626  0.00  0.00    +0.000 A 
ATOM     30  C   UNL     1      -3.556  11.715  17.620  0.00  0.00    +0.000 A 
ATOM     31  C   UNL     1      -2.818  11.926  18.785  0.00  0.00    +0.000 A 
BRANCH  30  32
ATOM     32  O   UNL     1      -3.066  11.211  16.454  0.00  0.00    +0.000 OA
BRANCH  32  33
ATOM     33  C   UNL     1      -2.984   9.803  16.272  0.00  0.00    +0.000 C 
ATOM     34  F   UNL     1      -3.554   9.075  17.255  0.00  0.00    +0.000 F 
ATOM     35  F   UNL     1      -3.568   9.474  15.099  0.00  0.00    +0.000 F 
ATOM     36  F   UNL     1      -1.679   9.452  16.205  0.00  0.00    +0.000 F 
ENDBRANCH  32  33
ENDBRANCH  30  32
ENDBRANCH  25  26
ENDBRANCH  24  25
ENDBRANCH   9  24
TORSDOF 7
ENDMDL
MODEL 9
REMARK VINA RESULT:      -7.9      5.326     10.530
REMARK  Name = 
REMARK  8 active torsions:
REMARK  status: ('A' for Active; 'I' for Inactive)
REMARK    1  A    between atoms: C_1  and  N_2
REMARK    2  A    between atoms: C_3  and  C_5
REMARK    3  A    between atoms: C_9  and  N_10
REMARK    4  A    between atoms: C_18  and  C_19
REMARK    5  A    between atoms: C_19  and  O_20
REMARK    6  A    between atoms: O_20  and  C_21
REMARK    7  A    between atoms: C_25  and  O_26
REMARK    8  A    between atoms: O_26  and  C_27
REMARK                            x       y       z     vdW  Elec       q    Type
REMARK                         _______ _______ _______ _____ _____    ______ ____
ROOT
ATOM      1  N   UNL     1       2.307   8.347  18.439  0.00  0.00    +0.000 N 
ATOM      2  C   UNL     1       1.467   8.807  19.457  0.00  0.00    +0.000 A 
ATOM      3  N   UNL     1       1.507   8.273  20.673  0.00  0.00    +0.000 NA
ATOM      4  C   UNL     1       0.617   8.739  21.533  0.00  0.00    +0.000 A 
ATOM      5  N   UNL     1      -0.290   9.662  21.276  0.00  0.00    +0.000 NA
ATOM      6  C   UNL     1      -0.264  10.151  20.039  0.00  0.00    +0.000 A 
ATOM      7  N   UNL     1      -1.211  11.119  19.692  0.00  0.00    +0.000 N 
ATOM      8  C   UNL     1      -1.057  12.103  18.672  0.00  0.00    +0.000 C 
ATOM      9  C   UNL     1      -1.576  13.154  19.660  0.00  0.00    +0.000 C 
ATOM     10  C   UNL     1      -1.884  11.988  20.605  0.00  0.00    +0.000 C 
ATOM     11  N   UNL     1       0.607   9.758  19.105  0.00  0.00    +0.000 NA
ATOM     12  H   UNL     1       2.036   8.791  17.570  0.00  0.00    +0.000 HD
ENDROOT
BRANCH   1  17
ATOM     13  C   UNL     1       3.400   4.813  18.980  0.00  0.00    +0.000 A 
ATOM     14  C   UNL     1       4.382   4.693  17.994  0.00  0.00    +0.000 A 
ATOM     15  C   UNL     1       4.684   5.785  17.184  0.00  0.00    +0.000 A 
ATOM     16  C   UNL     1       4.001   6.994  17.354  0.00  0.00    +0.000 A 
ATOM     17  C   UNL     1       2.998   7.130  18.326  0.00  0.00    +0.000 A 
ATOM     18  C   UNL     1       2.742   6.033  19.156  0.00  0.00    +0.000 A 
BRANCH  13  21
ATOM     19  C   UNL     1       1.616   2.698  21.560  0.00  0.00    +0.000 C 
ATOM     20  N   UNL     1       1.975   3.753  20.650  0.00  0.00    +0.000 N 
ATOM     21  C   UNL     1       3.100   3.652  19.857  0.00  0.00    +0.000 C 
ATOM     22  O   UNL     1       3.826   2.662  19.836  0.00  0.00    +0.000 OA
ATOM     23  H   UNL     1       1.340   4.531  20.532  0.00  0.00    +0.000 HD
ENDBRANCH  13  21
ENDBRANCH   1  17
BRANCH   9  24
ATOM     24  C   UNL     1      -0.489  14.115  20.116  0.00  0.00    +0.000 C 
BRANCH  24  25
ATOM     25  O   UNL     1      -0.915  15.457  19.860  0.00  0.00    +0.000 OA
BRANCH  25  26
ATOM     26  C   UNL     1      -0.065  16.222  19.102  0.00  0.00    +0.000 A 
ATOM     27  C   UNL     1      -0.687  17.060  18.174  0.00  0.00    +0.000 A 
ATOM     28  C   UNL     1       0.077  17.881  17.344  0.00  0.00    +0.000 A 
ATOM     29  C   UNL     1       1.467  17.885  17.460  0.00  0.00    +0.000 A 
ATOM     30  C   UNL     1       2.099  17.074  18.405  0.00  0.00    +0.000 A 
ATOM     31  C   UNL     1       1.331  16.213  19.190  0.00  0.00    +0.000 A 
BRANCH  30  32
ATOM     32  O   UNL     1       3.458  17.161  18.424  0.00  0.00    +0.000 OA
BRANCH  32  33
ATOM     33  C   UNL     1       4.243  16.002  18.174  0.00  0.00    +0.000 C 
ATOM     34  F   UNL     1       4.118  15.028  19.099  0.00  0.00    +0.000 F 
ATOM     35  F   UNL     1       3.908  15.494  16.967  0.00  0.00    +0.000 F 
ATOM     36  F   UNL     1       5.545  16.364  18.131  0.00  0.00    +0.000 F 
ENDBRANCH  32  33
ENDBRANCH  30  32
ENDBRANCH  25  26
ENDBRANCH  24  25
ENDBRANCH   9  24
TORSDOF 7
ENDMDL
