MODEL 1
REMARK VINA RESULT:      -7.8      0.000      0.000
REMARK  Name = 
REMARK  4 active torsions:
REMARK  status: ('A' for Active; 'I' for Inactive)
REMARK    1  A    between atoms: C_5  and  S_6
REMARK    2  A    between atoms: S_6  and  C_7
REMARK    3  A    between atoms: C_7  and  C_8
REMARK    4  A    between atoms: C_17  and  O_18
REMARK                            x       y       z     vdW  Elec       q    Type
REMARK                         _______ _______ _______ _____ _____    ______ ____
ROOT
ATOM      1  O   UNL     1       8.454   4.044  17.667  0.00  0.00    +0.000 OA
ATOM      2  C   UNL     1       7.444   4.738  17.677  0.00  0.00    +0.000 A 
ATOM      3  N   UNL     1       6.672   4.871  18.813  0.00  0.00    +0.000 N 
ATOM      4  C   UNL     1       5.520   5.622  18.891  0.00  0.00    +0.000 A 
ATOM      5  C   UNL     1       5.069   6.314  17.830  0.00  0.00    +0.000 A 
ATOM      6  C   UNL     1       5.826   6.226  16.584  0.00  0.00    +0.000 A 
ATOM      7  C   UNL     1       6.950   5.496  16.472  0.00  0.00    +0.000 A 
ATOM      8  H   UNL     1       7.002   4.342  19.610  0.00  0.00    +0.000 HD
ENDROOT
BRANCH   7   9
ATOM      9  O   UNL     1       7.669   5.404  15.295  0.00  0.00    +0.000 OA
ATOM     10  H   UNL     1       7.696   6.277  14.870  0.00  0.00    +0.000 HD
ENDBRANCH   7   9
BRANCH   5  11
ATOM     11  S   UNL     1       3.584   7.221  17.787  0.00  0.00    +0.000 S 
BRANCH  11  12
ATOM     12  C   UNL     1       2.692   6.756  19.297  0.00  0.00    +0.000 C 
BRANCH  12  13
ATOM     13  C   UNL     1       2.081   5.369  19.197  0.00  0.00    +0.000 A 
ATOM     14  C   UNL     1       1.901   4.745  17.949  0.00  0.00    +0.000 A 
ATOM     15  C   UNL     1       1.358   3.454  17.864  0.00  0.00    +0.000 A 
ATOM     16  C   UNL     1       0.986   2.786  19.025  0.00  0.00    +0.000 A 
ATOM     17  F   UNL     1       0.475   1.549  18.938  0.00  0.00    +0.000 F 
ATOM     18  C   UNL     1       1.147   3.395  20.261  0.00  0.00    +0.000 A 
ATOM     19  F   UNL     1       0.793   2.748  21.380  0.00  0.00    +0.000 F 
ATOM     20  C   UNL     1       1.686   4.678  20.355  0.00  0.00    +0.000 A 
ENDBRANCH  12  13
ENDBRANCH  11  12
ENDBRANCH   5  11
TORSDOF 4
ENDMDL
MODEL 2
REMARK VINA RESULT:      -7.5      0.822      1.687
REMARK  Name = 
REMARK  4 active torsions:
REMARK  status: ('A' for Active; 'I' for Inactive)
REMARK    1  A    between atoms: C_5  and  S_6
REMARK    2  A    between atoms: S_6  and  C_7
REMARK    3  A    between atoms: C_7  and  C_8
REMARK    4  A    between atoms: C_17  and  O_18
REMARK                            x       y       z     vdW  Elec       q    Type
REMARK                         _______ _______ _______ _____ _____    ______ ____
ROOT
ATOM      1  O   UNL     1       8.401   4.054  17.592  0.00  0.00    +0.000 OA
ATOM      2  C   UNL     1       7.366   4.703  17.684  0.00  0.00    +0.000 A 
ATOM      3  N   UNL     1       6.612   4.700  18.839  0.00  0.00    +0.000 N 
ATOM      4  C   UNL     1       5.435   5.394  19.006  0.00  0.00    +0.000 A 
ATOM      5  C   UNL     1       4.935   6.162  18.021  0.00  0.00    +0.000 A 
ATOM      6  C   UNL     1       5.670   6.220  16.761  0.00  0.00    +0.000 A 
ATOM      7  C   UNL     1       6.818   5.549  16.563  0.00  0.00    +0.000 A 
ATOM      8  H   UNL     1       6.978   4.114  19.579  0.00  0.00    +0.000 HD
ENDROOT
BRANCH   7   9
ATOM      9  O   UNL     1       7.517   5.595  15.370  0.00  0.00    +0.000 OA
ATOM     10  H   UNL     1       7.006   5.134  14.685  0.00  0.00    +0.000 HD
ENDBRANCH   7   9
BRANCH   5  11
ATOM     11  S   UNL     1       3.416   7.009  18.088  0.00  0.00    +0.000 S 
BRANCH  11  12
ATOM     12  C   UNL     1       2.150   5.754  17.750  0.00  0.00    +0.000 C 
BRANCH  12  13
ATOM     13  C   UNL     1       2.013   4.759  18.890  0.00  0.00    +0.000 A 
ATOM     14  C   UNL     1       1.995   5.189  20.229  0.00  0.00    +0.000 A 
ATOM     15  C   UNL     1       1.845   4.268  21.277  0.00  0.00    +0.000 A 
ATOM     16  C   UNL     1       1.721   2.914  20.990  0.00  0.00    +0.000 A 
ATOM     17  F   UNL     1       1.569   2.038  21.995  0.00  0.00    +0.000 F 
ATOM     18  C   UNL     1       1.749   2.475  19.674  0.00  0.00    +0.000 A 
ATOM     19  F   UNL     1       1.624   1.169  19.398  0.00  0.00    +0.000 F 
ATOM     20  C   UNL     1       1.898   3.383  18.626  0.00  0.00    +0.000 A 
ENDBRANCH  12  13
ENDBRANCH  11  12
ENDBRANCH   5  11
TORSDOF 4
ENDMDL
MODEL 3
REMARK VINA RESULT:      -7.4      1.069      1.630
REMARK  Name = 
REMARK  4 active torsions:
REMARK  status: ('A' for Active; 'I' for Inactive)
REMARK    1  A    between atoms: C_5  and  S_6
REMARK    2  A    between atoms: S_6  and  C_7
REMARK    3  A    between atoms: C_7  and  C_8
REMARK    4  A    between atoms: C_17  and  O_18
REMARK                            x       y       z     vdW  Elec       q    Type
REMARK                         _______ _______ _______ _____ _____    ______ ____
ROOT
ATOM      1  O   UNL     1       7.838   4.563  15.793  0.00  0.00    +0.000 OA
ATOM      2  C   UNL     1       6.864   5.152  16.245  0.00  0.00    +0.000 A 
ATOM      3  N   UNL     1       6.071   5.953  15.449  0.00  0.00    +0.000 N 
ATOM      4  C   UNL     1       4.972   6.654  15.893  0.00  0.00    +0.000 A 
ATOM      5  C   UNL     1       4.575   6.583  17.176  0.00  0.00    +0.000 A 
ATOM      6  C   UNL     1       5.360   5.758  18.090  0.00  0.00    +0.000 A 
ATOM      7  C   UNL     1       6.443   5.068  17.690  0.00  0.00    +0.000 A 
ATOM      8  H   UNL     1       6.374   6.019  14.485  0.00  0.00    +0.000 HD
ENDROOT
BRANCH   7   9
ATOM      9  O   UNL     1       7.195   4.288  18.550  0.00  0.00    +0.000 OA
ATOM     10  H   UNL     1       7.794   3.729  18.031  0.00  0.00    +0.000 HD
ENDBRANCH   7   9
BRANCH   5  11
ATOM     11  S   UNL     1       3.260   7.490  17.867  0.00  0.00    +0.000 S 
BRANCH  11  12
ATOM     12  C   UNL     1       2.899   6.684  19.452  0.00  0.00    +0.000 C 
BRANCH  12  13
ATOM     13  C   UNL     1       2.194   5.352  19.268  0.00  0.00    +0.000 A 
ATOM     14  C   UNL     1       1.923   4.846  17.984  0.00  0.00    +0.000 A 
ATOM     15  C   UNL     1       1.292   3.603  17.819  0.00  0.00    +0.000 A 
ATOM     16  C   UNL     1       0.922   2.867  18.939  0.00  0.00    +0.000 A 
ATOM     17  F   UNL     1       0.327   1.676  18.776  0.00  0.00    +0.000 F 
ATOM     18  C   UNL     1       1.173   3.359  20.211  0.00  0.00    +0.000 A 
ATOM     19  F   UNL     1       0.820   2.646  21.290  0.00  0.00    +0.000 F 
ATOM     20  C   UNL     1       1.799   4.593  20.384  0.00  0.00    +0.000 A 
ENDBRANCH  12  13
ENDBRANCH  11  12
ENDBRANCH   5  11
TORSDOF 4
ENDMDL
MODEL 4
REMARK VINA RESULT:      -7.4      2.061      2.687
REMARK  Name = 
REMARK  4 active torsions:
REMARK  status: ('A' for Active; 'I' for Inactive)
REMARK    1  A    between atoms: C_5  and  S_6
REMARK    2  A    between atoms: S_6  and  C_7
REMARK    3  A    between atoms: C_7  and  C_8
REMARK    4  A    between atoms: C_17  and  O_18
REMARK                            x       y       z     vdW  Elec       q    Type
REMARK                         _______ _______ _______ _____ _____    ______ ____
ROOT
ATOM      1  O   UNL     1       8.518   7.671  18.614  0.00  0.00    +0.000 OA
ATOM      2  C   UNL     1       7.671   6.863  18.254  0.00  0.00    +0.000 A 
ATOM      3  N   UNL     1       7.052   6.966  17.025  0.00  0.00    +0.000 N 
ATOM      4  C   UNL     1       6.085   6.102  16.562  0.00  0.00    +0.000 A 
ATOM      5  C   UNL     1       5.681   5.052  17.299  0.00  0.00    +0.000 A 
ATOM      6  C   UNL     1       6.284   4.869  18.617  0.00  0.00    +0.000 A 
ATOM      7  C   UNL     1       7.225   5.699  19.101  0.00  0.00    +0.000 A 
ATOM      8  H   UNL     1       7.344   7.761  16.472  0.00  0.00    +0.000 HD
ENDROOT
BRANCH   7   9
ATOM      9  O   UNL     1       7.797   5.536  20.350  0.00  0.00    +0.000 OA
ATOM     10  H   UNL     1       8.655   5.988  20.367  0.00  0.00    +0.000 HD
ENDBRANCH   7   9
BRANCH   5  11
ATOM     11  S   UNL     1       4.408   3.950  16.856  0.00  0.00    +0.000 S 
BRANCH  11  12
ATOM     12  C   UNL     1       2.872   4.741  17.412  0.00  0.00    +0.000 C 
BRANCH  12  13
ATOM     13  C   UNL     1       2.329   4.105  18.680  0.00  0.00    +0.000 A 
ATOM     14  C   UNL     1       1.469   2.993  18.623  0.00  0.00    +0.000 A 
ATOM     15  C   UNL     1       0.988   2.395  19.798  0.00  0.00    +0.000 A 
ATOM     16  C   UNL     1       1.359   2.912  21.034  0.00  0.00    +0.000 A 
ATOM     17  F   UNL     1       0.904   2.332  22.154  0.00  0.00    +0.000 F 
ATOM     18  C   UNL     1       2.197   4.016  21.105  0.00  0.00    +0.000 A 
ATOM     19  F   UNL     1       2.557   4.511  22.297  0.00  0.00    +0.000 F 
ATOM     20  C   UNL     1       2.679   4.617  19.942  0.00  0.00    +0.000 A 
ENDBRANCH  12  13
ENDBRANCH  11  12
ENDBRANCH   5  11
TORSDOF 4
ENDMDL
MODEL 5
REMARK VINA RESULT:      -7.0      3.407      4.325
REMARK  Name = 
REMARK  4 active torsions:
REMARK  status: ('A' for Active; 'I' for Inactive)
REMARK    1  A    between atoms: C_5  and  S_6
REMARK    2  A    between atoms: S_6  and  C_7
REMARK    3  A    between atoms: C_7  and  C_8
REMARK    4  A    between atoms: C_17  and  O_18
REMARK                            x       y       z     vdW  Elec       q    Type
REMARK                         _______ _______ _______ _____ _____    ______ ____
ROOT
ATOM      1  O   UNL     1       8.032   4.425  16.750  0.00  0.00    +0.000 OA
ATOM      2  C   UNL     1       6.873   4.600  17.105  0.00  0.00    +0.000 A 
ATOM      3  N   UNL     1       6.395   4.079  18.290  0.00  0.00    +0.000 N 
ATOM      4  C   UNL     1       5.103   4.225  18.744  0.00  0.00    +0.000 A 
ATOM      5  C   UNL     1       4.196   4.929  18.042  0.00  0.00    +0.000 A 
ATOM      6  C   UNL     1       4.618   5.514  16.773  0.00  0.00    +0.000 A 
ATOM      7  C   UNL     1       5.870   5.383  16.298  0.00  0.00    +0.000 A 
ATOM      8  H   UNL     1       7.071   3.538  18.815  0.00  0.00    +0.000 HD
ENDROOT
BRANCH   7   9
ATOM      9  O   UNL     1       6.275   5.929  15.094  0.00  0.00    +0.000 OA
ATOM     10  H   UNL     1       7.152   5.581  14.866  0.00  0.00    +0.000 HD
ENDBRANCH   7   9
BRANCH   5  11
ATOM     11  S   UNL     1       2.519   5.105  18.472  0.00  0.00    +0.000 S 
BRANCH  11  12
ATOM     12  C   UNL     1       2.502   6.231  19.894  0.00  0.00    +0.000 C 
BRANCH  12  13
ATOM     13  C   UNL     1       2.010   7.619  19.519  0.00  0.00    +0.000 A 
ATOM     14  C   UNL     1       2.241   8.147  18.236  0.00  0.00    +0.000 A 
ATOM     15  C   UNL     1       1.765   9.420  17.887  0.00  0.00    +0.000 A 
ATOM     16  C   UNL     1       1.063  10.172  18.823  0.00  0.00    +0.000 A 
ATOM     17  F   UNL     1       0.603  11.385  18.482  0.00  0.00    +0.000 F 
ATOM     18  C   UNL     1       0.839   9.668  20.096  0.00  0.00    +0.000 A 
ATOM     19  F   UNL     1       0.159  10.392  20.996  0.00  0.00    +0.000 F 
ATOM     20  C   UNL     1       1.310   8.404  20.451  0.00  0.00    +0.000 A 
ENDBRANCH  12  13
ENDBRANCH  11  12
ENDBRANCH   5  11
TORSDOF 4
ENDMDL
MODEL 6
REMARK VINA RESULT:      -7.0      1.282      1.548
REMARK  Name = 
REMARK  4 active torsions:
REMARK  status: ('A' for Active; 'I' for Inactive)
REMARK    1  A    between atoms: C_5  and  S_6
REMARK    2  A    between atoms: S_6  and  C_7
REMARK    3  A    between atoms: C_7  and  C_8
REMARK    4  A    between atoms: C_17  and  O_18
REMARK                            x       y       z     vdW  Elec       q    Type
REMARK                         _______ _______ _______ _____ _____    ______ ____
ROOT
ATOM      1  O   UNL     1       8.558   3.993  17.842  0.00  0.00    +0.000 OA
ATOM      2  C   UNL     1       7.539   4.663  17.726  0.00  0.00    +0.000 A 
ATOM      3  N   UNL     1       6.472   4.230  16.966  0.00  0.00    +0.000 N 
ATOM      4  C   UNL     1       5.305   4.937  16.783  0.00  0.00    +0.000 A 
ATOM      5  C   UNL     1       5.117   6.132  17.370  0.00  0.00    +0.000 A 
ATOM      6  C   UNL     1       6.198   6.667  18.192  0.00  0.00    +0.000 A 
ATOM      7  C   UNL     1       7.354   6.006  18.385  0.00  0.00    +0.000 A 
ATOM      8  H   UNL     1       6.614   3.336  16.512  0.00  0.00    +0.000 HD
ENDROOT
BRANCH   7   9
ATOM      9  O   UNL     1       8.385   6.509  19.158  0.00  0.00    +0.000 OA
ATOM     10  H   UNL     1       8.705   7.334  18.760  0.00  0.00    +0.000 HD
ENDBRANCH   7   9
BRANCH   5  11
ATOM     11  S   UNL     1       3.725   7.151  17.139  0.00  0.00    +0.000 S 
BRANCH  11  12
ATOM     12  C   UNL     1       2.713   6.930  18.629  0.00  0.00    +0.000 C 
BRANCH  12  13
ATOM     13  C   UNL     1       2.393   5.468  18.891  0.00  0.00    +0.000 A 
ATOM     14  C   UNL     1       1.794   4.669  17.900  0.00  0.00    +0.000 A 
ATOM     15  C   UNL     1       1.521   3.313  18.138  0.00  0.00    +0.000 A 
ATOM     16  C   UNL     1       1.838   2.755  19.371  0.00  0.00    +0.000 A 
ATOM     17  F   UNL     1       1.582   1.456  19.591  0.00  0.00    +0.000 F 
ATOM     18  C   UNL     1       2.417   3.534  20.362  0.00  0.00    +0.000 A 
ATOM     19  F   UNL     1       2.727   2.994  21.548  0.00  0.00    +0.000 F 
ATOM     20  C   UNL     1       2.692   4.883  20.133  0.00  0.00    +0.000 A 
ENDBRANCH  12  13
ENDBRANCH  11  12
ENDBRANCH   5  11
TORSDOF 4
ENDMDL
MODEL 7
REMARK VINA RESULT:      -6.9      2.714      3.488
REMARK  Name = 
REMARK  4 active torsions:
REMARK  status: ('A' for Active; 'I' for Inactive)
REMARK    1  A    between atoms: C_5  and  S_6
REMARK    2  A    between atoms: S_6  and  C_7
REMARK    3  A    between atoms: C_7  and  C_8
REMARK    4  A    between atoms: C_17  and  O_18
REMARK                            x       y       z     vdW  Elec       q    Type
REMARK                         _______ _______ _______ _____ _____    ______ ____
ROOT
ATOM      1  O   UNL     1       8.228   6.820  18.591  0.00  0.00    +0.000 OA
ATOM      2  C   UNL     1       7.314   6.028  18.395  0.00  0.00    +0.000 A 
ATOM      3  N   UNL     1       6.636   5.436  19.440  0.00  0.00    +0.000 N 
ATOM      4  C   UNL     1       5.610   4.529  19.293  0.00  0.00    +0.000 A 
ATOM      5  C   UNL     1       5.175   4.165  18.073  0.00  0.00    +0.000 A 
ATOM      6  C   UNL     1       5.839   4.744  16.909  0.00  0.00    +0.000 A 
ATOM      7  C   UNL     1       6.850   5.625  17.019  0.00  0.00    +0.000 A 
ATOM      8  H   UNL     1       6.968   5.698  20.360  0.00  0.00    +0.000 HD
ENDROOT
BRANCH   7   9
ATOM      9  O   UNL     1       7.488   6.174  15.921  0.00  0.00    +0.000 OA
ATOM     10  H   UNL     1       6.947   6.899  15.570  0.00  0.00    +0.000 HD
ENDBRANCH   7   9
BRANCH   5  11
ATOM     11  S   UNL     1       3.951   2.966  17.766  0.00  0.00    +0.000 S 
BRANCH  11  12
ATOM     12  C   UNL     1       2.433   3.902  17.430  0.00  0.00    +0.000 C 
BRANCH  12  13
ATOM     13  C   UNL     1       2.258   5.069  18.386  0.00  0.00    +0.000 A 
ATOM     14  C   UNL     1       1.899   4.858  19.730  0.00  0.00    +0.000 A 
ATOM     15  C   UNL     1       1.762   5.938  20.615  0.00  0.00    +0.000 A 
ATOM     16  C   UNL     1       1.974   7.233  20.158  0.00  0.00    +0.000 A 
ATOM     17  F   UNL     1       1.849   8.261  21.010  0.00  0.00    +0.000 F 
ATOM     18  C   UNL     1       2.316   7.457  18.832  0.00  0.00    +0.000 A 
ATOM     19  F   UNL     1       2.525   8.706  18.393  0.00  0.00    +0.000 F 
ATOM     20  C   UNL     1       2.455   6.389  17.945  0.00  0.00    +0.000 A 
ENDBRANCH  12  13
ENDBRANCH  11  12
ENDBRANCH   5  11
TORSDOF 4
ENDMDL
MODEL 8
REMARK VINA RESULT:      -6.9      1.192      2.233
REMARK  Name = 
REMARK  4 active torsions:
REMARK  status: ('A' for Active; 'I' for Inactive)
REMARK    1  A    between atoms: C_5  and  S_6
REMARK    2  A    between atoms: S_6  and  C_7
REMARK    3  A    between atoms: C_7  and  C_8
REMARK    4  A    between atoms: C_17  and  O_18
REMARK                            x       y       z     vdW  Elec       q    Type
REMARK                         _______ _______ _______ _____ _____    ______ ____
ROOT
ATOM      1  O   UNL     1       8.683   4.032  17.873  0.00  0.00    +0.000 OA
ATOM      2  C   UNL     1       7.628   4.655  17.832  0.00  0.00    +0.000 A 
ATOM      3  N   UNL     1       6.880   4.731  16.676  0.00  0.00    +0.000 N 
ATOM      4  C   UNL     1       5.696   5.423  16.555  0.00  0.00    +0.000 A 
ATOM      5  C   UNL     1       5.163   6.077  17.603  0.00  0.00    +0.000 A 
ATOM      6  C   UNL     1       5.892   6.049  18.868  0.00  0.00    +0.000 A 
ATOM      7  C   UNL     1       7.055   5.390  19.017  0.00  0.00    +0.000 A 
ATOM      8  H   UNL     1       7.283   4.251  15.881  0.00  0.00    +0.000 HD
ENDROOT
BRANCH   7   9
ATOM      9  O   UNL     1       7.754   5.363  20.210  0.00  0.00    +0.000 OA
ATOM     10  H   UNL     1       7.202   5.748  20.909  0.00  0.00    +0.000 HD
ENDBRANCH   7   9
BRANCH   5  11
ATOM     11  S   UNL     1       3.724   7.053  17.545  0.00  0.00    +0.000 S 
BRANCH  11  12
ATOM     12  C   UNL     1       2.845   6.708  19.095  0.00  0.00    +0.000 C 
BRANCH  12  13
ATOM     13  C   UNL     1       2.254   5.309  19.117  0.00  0.00    +0.000 A 
ATOM     14  C   UNL     1       1.433   4.885  20.178  0.00  0.00    +0.000 A 
ATOM     15  C   UNL     1       0.871   3.599  20.182  0.00  0.00    +0.000 A 
ATOM     16  C   UNL     1       1.135   2.730  19.130  0.00  0.00    +0.000 A 
ATOM     17  F   UNL     1       0.589   1.505  19.135  0.00  0.00    +0.000 F 
ATOM     18  C   UNL     1       1.953   3.130  18.084  0.00  0.00    +0.000 A 
ATOM     19  F   UNL     1       2.204   2.293  17.067  0.00  0.00    +0.000 F 
ATOM     20  C   UNL     1       2.516   4.407  18.072  0.00  0.00    +0.000 A 
ENDBRANCH  12  13
ENDBRANCH  11  12
ENDBRANCH   5  11
TORSDOF 4
ENDMDL
MODEL 9
REMARK VINA RESULT:      -6.9      1.869      2.529
REMARK  Name = 
REMARK  4 active torsions:
REMARK  status: ('A' for Active; 'I' for Inactive)
REMARK    1  A    between atoms: C_5  and  S_6
REMARK    2  A    between atoms: S_6  and  C_7
REMARK    3  A    between atoms: C_7  and  C_8
REMARK    4  A    between atoms: C_17  and  O_18
REMARK                            x       y       z     vdW  Elec       q    Type
REMARK                         _______ _______ _______ _____ _____    ______ ____
ROOT
ATOM      1  O   UNL     1       7.324   5.288  13.894  0.00  0.00    +0.000 OA
ATOM      2  C   UNL     1       6.990   5.280  15.072  0.00  0.00    +0.000 A 
ATOM      3  N   UNL     1       7.666   4.524  16.008  0.00  0.00    +0.000 N 
ATOM      4  C   UNL     1       7.337   4.457  17.343  0.00  0.00    +0.000 A 
ATOM      5  C   UNL     1       6.309   5.166  17.842  0.00  0.00    +0.000 A 
ATOM      6  C   UNL     1       5.537   5.992  16.919  0.00  0.00    +0.000 A 
ATOM      7  C   UNL     1       5.827   6.074  15.608  0.00  0.00    +0.000 A 
ATOM      8  H   UNL     1       8.433   3.979  15.635  0.00  0.00    +0.000 HD
ENDROOT
BRANCH   7   9
ATOM      9  O   UNL     1       5.097   6.850  14.726  0.00  0.00    +0.000 OA
ATOM     10  H   UNL     1       4.848   6.310  13.959  0.00  0.00    +0.000 HD
ENDBRANCH   7   9
BRANCH   5  11
ATOM     11  S   UNL     1       5.749   5.091  19.489  0.00  0.00    +0.000 S 
BRANCH  11  12
ATOM     12  C   UNL     1       4.069   5.776  19.457  0.00  0.00    +0.000 C 
BRANCH  12  13
ATOM     13  C   UNL     1       3.014   4.697  19.284  0.00  0.00    +0.000 A 
ATOM     14  C   UNL     1       1.874   4.659  20.107  0.00  0.00    +0.000 A 
ATOM     15  C   UNL     1       0.891   3.674  19.927  0.00  0.00    +0.000 A 
ATOM     16  C   UNL     1       1.049   2.718  18.930  0.00  0.00    +0.000 A 
ATOM     17  F   UNL     1       0.103   1.784  18.758  0.00  0.00    +0.000 F 
ATOM     18  C   UNL     1       2.175   2.736  18.120  0.00  0.00    +0.000 A 
ATOM     19  F   UNL     1       2.325   1.817  17.156  0.00  0.00    +0.000 F 
ATOM     20  C   UNL     1       3.157   3.712  18.292  0.00  0.00    +0.000 A 
ENDBRANCH  12  13
ENDBRANCH  11  12
ENDBRANCH   5  11
TORSDOF 4
ENDMDL
