MODEL 1
REMARK VINA RESULT:      -8.4      0.000      0.000
REMARK  Name = 
REMARK  8 active torsions:
REMARK  status: ('A' for Active; 'I' for Inactive)
REMARK    1  A    between atoms: C_1  and  C_2
REMARK    2  A    between atoms: C_2  and  C_3
REMARK    3  A    between atoms: C_2  and  C_4
REMARK    4  A    between atoms: C_2  and  C_5
REMARK    5  A    between atoms: C_8  and  C_9
REMARK    6  A    between atoms: C_15  and  N_16
REMARK    7  A    between atoms: N_19  and  C_20
REMARK    8  A    between atoms: C_20  and  C_21
REMARK                            x       y       z     vdW  Elec       q    Type
REMARK                         _______ _______ _______ _____ _____    ______ ____
ROOT
ATOM      1  C   UNL     1       0.881   9.342  20.668  0.00  0.00    +0.000 A 
ATOM      2  C   UNL     1      -0.130   9.290  21.604  0.00  0.00    +0.000 A 
ATOM      3  N   UNL     1      -0.392  10.593  21.938  0.00  0.00    +0.000 N 
ATOM      4  C   UNL     1      -1.313  11.079  22.859  0.00  0.00    +0.000 A 
ATOM      5  C   UNL     1      -1.398  12.402  23.049  0.00  0.00    +0.000 A 
ATOM      6  C   UNL     1      -0.527  13.271  22.278  0.00  0.00    +0.000 A 
ATOM      7  C   UNL     1       0.375  12.822  21.369  0.00  0.00    +0.000 A 
ATOM      8  C   UNL     1       0.454  11.391  21.183  0.00  0.00    +0.000 A 
ATOM      9  N   UNL     1       1.233  10.646  20.415  0.00  0.00    +0.000 NA
ENDROOT
BRANCH   1  13
ATOM     10  C   UNL     1       2.719   5.940  18.789  0.00  0.00    +0.000 A 
ATOM     11  C   UNL     1       2.631   7.178  18.134  0.00  0.00    +0.000 A 
ATOM     12  C   UNL     1       2.050   8.291  18.747  0.00  0.00    +0.000 A 
ATOM     13  C   UNL     1       1.533   8.206  20.040  0.00  0.00    +0.000 A 
ATOM     14  C   UNL     1       1.637   6.988  20.719  0.00  0.00    +0.000 A 
ATOM     15  C   UNL     1       2.217   5.871  20.101  0.00  0.00    +0.000 A 
BRANCH  10  17
ATOM     16  C   UNL     1       4.170   3.836  19.081  0.00  0.00    +0.000 C 
ATOM     17  C   UNL     1       3.332   4.702  18.113  0.00  0.00    +0.000 C 
ATOM     18  C   UNL     1       4.267   5.135  16.964  0.00  0.00    +0.000 C 
ATOM     19  C   UNL     1       2.211   3.810  17.544  0.00  0.00    +0.000 C 
ENDBRANCH  10  17
ENDBRANCH   1  13
BRANCH   7  20
ATOM     20  N   UNL     1       1.172  13.706  20.633  0.00  0.00    +0.000 N 
ATOM     21  C   UNL     1       0.628  14.587  19.578  0.00  0.00    +0.000 C 
ATOM     22  C   UNL     1       1.282  15.995  19.675  0.00  0.00    +0.000 C 
ATOM     23  N   UNL     1       2.773  16.023  19.730  0.00  0.00    +0.000 NA
ATOM     24  C   UNL     1       3.192  15.074  20.797  0.00  0.00    +0.000 C 
ATOM     25  C   UNL     1       2.637  13.647  20.643  0.00  0.00    +0.000 C 
BRANCH  23  26
ATOM     26  C   UNL     1       3.330  15.666  18.406  0.00  0.00    +0.000 C 
BRANCH  26  27
ATOM     27  C   UNL     1       4.831  15.587  18.341  0.00  0.00    +0.000 A 
ATOM     28  C   UNL     1       5.549  14.542  17.907  0.00  0.00    +0.000 A 
ATOM     29  N   UNL     1       6.910  14.600  17.810  0.00  0.00    +0.000 N 
ATOM     30  C   UNL     1       7.642  15.721  18.087  0.00  0.00    +0.000 A 
ATOM     31  O   UNL     1       8.863  15.742  17.992  0.00  0.00    +0.000 OA
ATOM     32  N   UNL     1       6.921  16.808  18.489  0.00  0.00    +0.000 N 
ATOM     33  C   UNL     1       5.581  16.802  18.758  0.00  0.00    +0.000 A 
ATOM     34  O   UNL     1       5.028  17.749  19.308  0.00  0.00    +0.000 OA
ATOM     35  H   UNL     1       7.438  13.794  17.495  0.00  0.00    +0.000 HD
ATOM     36  H   UNL     1       7.444  17.625  18.759  0.00  0.00    +0.000 HD
ENDBRANCH  26  27
ENDBRANCH  23  26
ENDBRANCH   7  20
TORSDOF 5
ENDMDL
MODEL 2
REMARK VINA RESULT:      -8.3      0.358      1.161
REMARK  Name = 
REMARK  8 active torsions:
REMARK  status: ('A' for Active; 'I' for Inactive)
REMARK    1  A    between atoms: C_1  and  C_2
REMARK    2  A    between atoms: C_2  and  C_3
REMARK    3  A    between atoms: C_2  and  C_4
REMARK    4  A    between atoms: C_2  and  C_5
REMARK    5  A    between atoms: C_8  and  C_9
REMARK    6  A    between atoms: C_15  and  N_16
REMARK    7  A    between atoms: N_19  and  C_20
REMARK    8  A    between atoms: C_20  and  C_21
REMARK                            x       y       z     vdW  Elec       q    Type
REMARK                         _______ _______ _______ _____ _____    ______ ____
ROOT
ATOM      1  C   UNL     1       0.772   9.680  20.701  0.00  0.00    +0.000 A 
ATOM      2  C   UNL     1      -0.254   9.657  21.622  0.00  0.00    +0.000 A 
ATOM      3  N   UNL     1      -0.466  10.964  21.973  0.00  0.00    +0.000 N 
ATOM      4  C   UNL     1      -1.379  11.474  22.890  0.00  0.00    +0.000 A 
ATOM      5  C   UNL     1      -1.411  12.797  23.100  0.00  0.00    +0.000 A 
ATOM      6  C   UNL     1      -0.494  13.639  22.354  0.00  0.00    +0.000 A 
ATOM      7  C   UNL     1       0.402  13.167  21.451  0.00  0.00    +0.000 A 
ATOM      8  C   UNL     1       0.423  11.737  21.243  0.00  0.00    +0.000 A 
ATOM      9  N   UNL     1       1.181  10.971  20.473  0.00  0.00    +0.000 NA
ENDROOT
BRANCH   1  13
ATOM     10  C   UNL     1       2.675   6.309  18.832  0.00  0.00    +0.000 A 
ATOM     11  C   UNL     1       2.181   6.235  20.143  0.00  0.00    +0.000 A 
ATOM     12  C   UNL     1       1.547   7.323  20.749  0.00  0.00    +0.000 A 
ATOM     13  C   UNL     1       1.384   8.528  20.064  0.00  0.00    +0.000 A 
ATOM     14  C   UNL     1       1.845   8.610  18.746  0.00  0.00    +0.000 A 
ATOM     15  C   UNL     1       2.483   7.519  18.140  0.00  0.00    +0.000 A 
BRANCH  10  17
ATOM     16  C   UNL     1       2.429   4.102  17.533  0.00  0.00    +0.000 C 
ATOM     17  C   UNL     1       3.398   5.127  18.166  0.00  0.00    +0.000 C 
ATOM     18  C   UNL     1       4.245   4.368  19.209  0.00  0.00    +0.000 C 
ATOM     19  C   UNL     1       4.322   5.646  17.045  0.00  0.00    +0.000 C 
ENDBRANCH  10  17
ENDBRANCH   1  13
BRANCH   7  20
ATOM     20  N   UNL     1       1.245  14.028  20.740  0.00  0.00    +0.000 N 
ATOM     21  C   UNL     1       0.742  15.026  19.773  0.00  0.00    +0.000 C 
ATOM     22  C   UNL     1       1.523  16.361  19.934  0.00  0.00    +0.000 C 
ATOM     23  N   UNL     1       3.012  16.254  19.921  0.00  0.00    +0.000 NA
ATOM     24  C   UNL     1       3.385  15.199  20.901  0.00  0.00    +0.000 C 
ATOM     25  C   UNL     1       2.698  13.841  20.678  0.00  0.00    +0.000 C 
BRANCH  23  26
ATOM     26  C   UNL     1       3.480  15.945  18.551  0.00  0.00    +0.000 C 
BRANCH  26  27
ATOM     27  C   UNL     1       4.966  15.754  18.409  0.00  0.00    +0.000 A 
ATOM     28  C   UNL     1       5.580  14.670  17.916  0.00  0.00    +0.000 A 
ATOM     29  N   UNL     1       6.935  14.627  17.752  0.00  0.00    +0.000 N 
ATOM     30  C   UNL     1       7.763  15.682  18.017  0.00  0.00    +0.000 A 
ATOM     31  O   UNL     1       8.977  15.613  17.861  0.00  0.00    +0.000 OA
ATOM     32  N   UNL     1       7.149  16.809  18.479  0.00  0.00    +0.000 N 
ATOM     33  C   UNL     1       5.827  16.897  18.816  0.00  0.00    +0.000 A 
ATOM     34  O   UNL     1       5.376  17.868  19.414  0.00  0.00    +0.000 OA
ATOM     35  H   UNL     1       7.383  13.791  17.392  0.00  0.00    +0.000 HD
ATOM     36  H   UNL     1       7.745  17.577  18.741  0.00  0.00    +0.000 HD
ENDBRANCH  26  27
ENDBRANCH  23  26
ENDBRANCH   7  20
TORSDOF 5
ENDMDL
MODEL 3
REMARK VINA RESULT:      -8.2      0.699      1.086
REMARK  Name = 
REMARK  8 active torsions:
REMARK  status: ('A' for Active; 'I' for Inactive)
REMARK    1  A    between atoms: C_1  and  C_2
REMARK    2  A    between atoms: C_2  and  C_3
REMARK    3  A    between atoms: C_2  and  C_4
REMARK    4  A    between atoms: C_2  and  C_5
REMARK    5  A    between atoms: C_8  and  C_9
REMARK    6  A    between atoms: C_15  and  N_16
REMARK    7  A    between atoms: N_19  and  C_20
REMARK    8  A    between atoms: C_20  and  C_21
REMARK                            x       y       z     vdW  Elec       q    Type
REMARK                         _______ _______ _______ _____ _____    ______ ____
ROOT
ATOM      1  C   UNL     1       1.078   8.755  20.534  0.00  0.00    +0.000 A 
ATOM      2  C   UNL     1       0.156   8.638  21.553  0.00  0.00    +0.000 A 
ATOM      3  N   UNL     1      -0.177   9.921  21.899  0.00  0.00    +0.000 N 
ATOM      4  C   UNL     1      -1.051  10.347  22.893  0.00  0.00    +0.000 A 
ATOM      5  C   UNL     1      -1.222  11.662  23.081  0.00  0.00    +0.000 A 
ATOM      6  C   UNL     1      -0.489  12.584  22.232  0.00  0.00    +0.000 A 
ATOM      7  C   UNL     1       0.366  12.194  21.253  0.00  0.00    +0.000 A 
ATOM      8  C   UNL     1       0.538  10.771  21.070  0.00  0.00    +0.000 A 
ATOM      9  N   UNL     1       1.305  10.078  20.243  0.00  0.00    +0.000 NA
ENDROOT
BRANCH   1  13
ATOM     10  C   UNL     1       3.185   5.561  18.573  0.00  0.00    +0.000 A 
ATOM     11  C   UNL     1       2.503   5.353  19.782  0.00  0.00    +0.000 A 
ATOM     12  C   UNL     1       1.803   6.384  20.415  0.00  0.00    +0.000 A 
ATOM     13  C   UNL     1       1.760   7.663  19.860  0.00  0.00    +0.000 A 
ATOM     14  C   UNL     1       2.410   7.882  18.641  0.00  0.00    +0.000 A 
ATOM     15  C   UNL     1       3.114   6.848  18.009  0.00  0.00    +0.000 A 
BRANCH  10  17
ATOM     16  C   UNL     1       4.988   3.743  18.827  0.00  0.00    +0.000 C 
ATOM     17  C   UNL     1       3.981   4.441  17.884  0.00  0.00    +0.000 C 
ATOM     18  C   UNL     1       4.789   5.016  16.701  0.00  0.00    +0.000 C 
ATOM     19  C   UNL     1       3.013   3.361  17.357  0.00  0.00    +0.000 C 
ENDBRANCH  10  17
ENDBRANCH   1  13
BRANCH   7  20
ATOM     20  N   UNL     1       1.026  13.127  20.446  0.00  0.00    +0.000 N 
ATOM     21  C   UNL     1       0.447  13.659  19.195  0.00  0.00    +0.000 C 
ATOM     22  C   UNL     1       0.725  15.184  19.088  0.00  0.00    +0.000 C 
ATOM     23  N   UNL     1       2.143  15.607  19.285  0.00  0.00    +0.000 NA
ATOM     24  C   UNL     1       2.617  14.981  20.549  0.00  0.00    +0.000 C 
ATOM     25  C   UNL     1       2.447  13.454  20.613  0.00  0.00    +0.000 C 
BRANCH  23  26
ATOM     26  C   UNL     1       2.954  15.202  18.115  0.00  0.00    +0.000 C 
BRANCH  26  27
ATOM     27  C   UNL     1       4.436  15.422  18.254  0.00  0.00    +0.000 A 
ATOM     28  C   UNL     1       5.396  14.530  17.976  0.00  0.00    +0.000 A 
ATOM     29  N   UNL     1       6.720  14.854  18.057  0.00  0.00    +0.000 N 
ATOM     30  C   UNL     1       7.175  16.105  18.368  0.00  0.00    +0.000 A 
ATOM     31  O   UNL     1       8.370  16.366  18.435  0.00  0.00    +0.000 OA
ATOM     32  N   UNL     1       6.209  17.038  18.612  0.00  0.00    +0.000 N 
ATOM     33  C   UNL     1       4.871  16.772  18.702  0.00  0.00    +0.000 A 
ATOM     34  O   UNL     1       4.073  17.605  19.121  0.00  0.00    +0.000 OA
ATOM     35  H   UNL     1       7.433  14.161  17.859  0.00  0.00    +0.000 HD
ATOM     36  H   UNL     1       6.520  17.949  18.905  0.00  0.00    +0.000 HD
ENDBRANCH  26  27
ENDBRANCH  23  26
ENDBRANCH   7  20
TORSDOF 5
ENDMDL
MODEL 4
REMARK VINA RESULT:      -8.2      0.866      1.415
REMARK  Name = 
REMARK  8 active torsions:
REMARK  status: ('A' for Active; 'I' for Inactive)
REMARK    1  A    between atoms: C_1  and  C_2
REMARK    2  A    between atoms: C_2  and  C_3
REMARK    3  A    between atoms: C_2  and  C_4
REMARK    4  A    between atoms: C_2  and  C_5
REMARK    5  A    between atoms: C_8  and  C_9
REMARK    6  A    between atoms: C_15  and  N_16
REMARK    7  A    between atoms: N_19  and  C_20
REMARK    8  A    between atoms: C_20  and  C_21
REMARK                            x       y       z     vdW  Elec       q    Type
REMARK                         _______ _______ _______ _____ _____    ______ ____
ROOT
ATOM      1  C   UNL     1       0.972   9.214  20.593  0.00  0.00    +0.000 A 
ATOM      2  C   UNL     1      -0.046   9.197  21.522  0.00  0.00    +0.000 A 
ATOM      3  N   UNL     1      -0.285  10.510  21.833  0.00  0.00    +0.000 N 
ATOM      4  C   UNL     1      -1.202  11.029  22.740  0.00  0.00    +0.000 A 
ATOM      5  C   UNL     1      -1.263  12.356  22.909  0.00  0.00    +0.000 A 
ATOM      6  C   UNL     1      -0.370  13.195  22.129  0.00  0.00    +0.000 A 
ATOM      7  C   UNL     1       0.530  12.714  21.234  0.00  0.00    +0.000 A 
ATOM      8  C   UNL     1       0.581  11.278  21.071  0.00  0.00    +0.000 A 
ATOM      9  N   UNL     1       1.351  10.506  20.321  0.00  0.00    +0.000 NA
ENDROOT
BRANCH   1  13
ATOM     10  C   UNL     1       2.755   5.749  18.778  0.00  0.00    +0.000 A 
ATOM     11  C   UNL     1       2.735   6.989  18.122  0.00  0.00    +0.000 A 
ATOM     12  C   UNL     1       2.172   8.122  18.714  0.00  0.00    +0.000 A 
ATOM     13  C   UNL     1       1.606   8.055  19.988  0.00  0.00    +0.000 A 
ATOM     14  C   UNL     1       1.642   6.834  20.669  0.00  0.00    +0.000 A 
ATOM     15  C   UNL     1       2.205   5.697  20.072  0.00  0.00    +0.000 A 
BRANCH  10  17
ATOM     16  C   UNL     1       2.277   3.575  17.489  0.00  0.00    +0.000 C 
ATOM     17  C   UNL     1       3.349   4.490  18.124  0.00  0.00    +0.000 C 
ATOM     18  C   UNL     1       4.097   3.648  19.179  0.00  0.00    +0.000 C 
ATOM     19  C   UNL     1       4.333   4.896  17.009  0.00  0.00    +0.000 C 
ENDBRANCH  10  17
ENDBRANCH   1  13
BRANCH   7  20
ATOM     20  N   UNL     1       1.348  13.570  20.489  0.00  0.00    +0.000 N 
ATOM     21  C   UNL     1       0.965  14.092  19.161  0.00  0.00    +0.000 C 
ATOM     22  C   UNL     1       1.361  15.591  19.045  0.00  0.00    +0.000 C 
ATOM     23  N   UNL     1       2.770  15.926  19.405  0.00  0.00    +0.000 NA
ATOM     24  C   UNL     1       3.040  15.317  20.736  0.00  0.00    +0.000 C 
ATOM     25  C   UNL     1       2.757  13.808  20.823  0.00  0.00    +0.000 C 
BRANCH  23  26
ATOM     26  C   UNL     1       3.687  15.425  18.357  0.00  0.00    +0.000 C 
BRANCH  26  27
ATOM     27  C   UNL     1       5.116  15.881  18.484  0.00  0.00    +0.000 A 
ATOM     28  C   UNL     1       5.526  17.084  18.908  0.00  0.00    +0.000 A 
ATOM     29  N   UNL     1       6.852  17.374  19.066  0.00  0.00    +0.000 N 
ATOM     30  C   UNL     1       7.854  16.465  18.865  0.00  0.00    +0.000 A 
ATOM     31  O   UNL     1       9.035  16.755  19.014  0.00  0.00    +0.000 OA
ATOM     32  N   UNL     1       7.450  15.222  18.475  0.00  0.00    +0.000 N 
ATOM     33  C   UNL     1       6.167  14.883  18.147  0.00  0.00    +0.000 A 
ATOM     34  O   UNL     1       5.897  13.813  17.611  0.00  0.00    +0.000 OA
ATOM     35  H   UNL     1       7.144  18.295  19.373  0.00  0.00    +0.000 HD
ATOM     36  H   UNL     1       8.173  14.556  18.260  0.00  0.00    +0.000 HD
ENDBRANCH  26  27
ENDBRANCH  23  26
ENDBRANCH   7  20
TORSDOF 5
ENDMDL
MODEL 5
REMARK VINA RESULT:      -8.1      1.870      2.653
REMARK  Name = 
REMARK  8 active torsions:
REMARK  status: ('A' for Active; 'I' for Inactive)
REMARK    1  A    between atoms: C_1  and  C_2
REMARK    2  A    between atoms: C_2  and  C_3
REMARK    3  A    between atoms: C_2  and  C_4
REMARK    4  A    between atoms: C_2  and  C_5
REMARK    5  A    between atoms: C_8  and  C_9
REMARK    6  A    between atoms: C_15  and  N_16
REMARK    7  A    between atoms: N_19  and  C_20
REMARK    8  A    between atoms: C_20  and  C_21
REMARK                            x       y       z     vdW  Elec       q    Type
REMARK                         _______ _______ _______ _____ _____    ______ ____
ROOT
ATOM      1  C   UNL     1       0.751  10.745  19.561  0.00  0.00    +0.000 A 
ATOM      2  C   UNL     1      -0.560  11.133  19.745  0.00  0.00    +0.000 A 
ATOM      3  N   UNL     1      -0.535  12.502  19.802  0.00  0.00    +0.000 N 
ATOM      4  C   UNL     1      -1.598  13.376  19.999  0.00  0.00    +0.000 A 
ATOM      5  C   UNL     1      -1.352  14.693  20.040  0.00  0.00    +0.000 A 
ATOM      6  C   UNL     1       0.017  15.147  19.868  0.00  0.00    +0.000 A 
ATOM      7  C   UNL     1       1.070  14.315  19.668  0.00  0.00    +0.000 A 
ATOM      8  C   UNL     1       0.782  12.898  19.633  0.00  0.00    +0.000 A 
ATOM      9  N   UNL     1       1.571  11.844  19.492  0.00  0.00    +0.000 NA
ENDROOT
BRANCH   1  13
ATOM     10  C   UNL     1       2.297   6.740  19.335  0.00  0.00    +0.000 A 
ATOM     11  C   UNL     1       1.685   7.222  20.502  0.00  0.00    +0.000 A 
ATOM     12  C   UNL     1       1.166   8.518  20.575  0.00  0.00    +0.000 A 
ATOM     13  C   UNL     1       1.241   9.380  19.481  0.00  0.00    +0.000 A 
ATOM     14  C   UNL     1       1.822   8.907  18.300  0.00  0.00    +0.000 A 
ATOM     15  C   UNL     1       2.345   7.608  18.229  0.00  0.00    +0.000 A 
BRANCH  10  17
ATOM     16  C   UNL     1       2.443   4.408  20.413  0.00  0.00    +0.000 C 
ATOM     17  C   UNL     1       2.895   5.326  19.254  0.00  0.00    +0.000 C 
ATOM     18  C   UNL     1       4.436   5.399  19.307  0.00  0.00    +0.000 C 
ATOM     19  C   UNL     1       2.466   4.653  17.934  0.00  0.00    +0.000 C 
ENDBRANCH  10  17
ENDBRANCH   1  13
BRANCH   7  20
ATOM     20  N   UNL     1       2.366  14.808  19.482  0.00  0.00    +0.000 N 
ATOM     21  C   UNL     1       3.206  14.440  18.323  0.00  0.00    +0.000 C 
ATOM     22  C   UNL     1       3.959  15.693  17.795  0.00  0.00    +0.000 C 
ATOM     23  N   UNL     1       4.708  16.485  18.813  0.00  0.00    +0.000 NA
ATOM     24  C   UNL     1       3.769  16.758  19.935  0.00  0.00    +0.000 C 
ATOM     25  C   UNL     1       3.106  15.508  20.537  0.00  0.00    +0.000 C 
BRANCH  23  26
ATOM     26  C   UNL     1       5.908  15.736  19.249  0.00  0.00    +0.000 C 
BRANCH  26  27
ATOM     27  C   UNL     1       7.192  16.131  18.573  0.00  0.00    +0.000 A 
ATOM     28  C   UNL     1       7.760  17.345  18.604  0.00  0.00    +0.000 A 
ATOM     29  N   UNL     1       8.974  17.583  18.025  0.00  0.00    +0.000 N 
ATOM     30  C   UNL     1       9.727  16.614  17.423  0.00  0.00    +0.000 A 
ATOM     31  O   UNL     1      10.813  16.858  16.909  0.00  0.00    +0.000 OA
ATOM     32  N   UNL     1       9.183  15.363  17.420  0.00  0.00    +0.000 N 
ATOM     33  C   UNL     1       7.918  15.060  17.839  0.00  0.00    +0.000 A 
ATOM     34  O   UNL     1       7.411  13.963  17.626  0.00  0.00    +0.000 OA
ATOM     35  H   UNL     1       9.380  18.511  18.045  0.00  0.00    +0.000 HD
ATOM     36  H   UNL     1       9.691  14.647  16.927  0.00  0.00    +0.000 HD
ENDBRANCH  26  27
ENDBRANCH  23  26
ENDBRANCH   7  20
TORSDOF 5
ENDMDL
MODEL 6
REMARK VINA RESULT:      -8.1      2.184      3.414
REMARK  Name = 
REMARK  8 active torsions:
REMARK  status: ('A' for Active; 'I' for Inactive)
REMARK    1  A    between atoms: C_1  and  C_2
REMARK    2  A    between atoms: C_2  and  C_3
REMARK    3  A    between atoms: C_2  and  C_4
REMARK    4  A    between atoms: C_2  and  C_5
REMARK    5  A    between atoms: C_8  and  C_9
REMARK    6  A    between atoms: C_15  and  N_16
REMARK    7  A    between atoms: N_19  and  C_20
REMARK    8  A    between atoms: C_20  and  C_21
REMARK                            x       y       z     vdW  Elec       q    Type
REMARK                         _______ _______ _______ _____ _____    ______ ____
ROOT
ATOM      1  C   UNL     1       1.255  11.287  19.046  0.00  0.00    +0.000 A 
ATOM      2  C   UNL     1       0.027  11.869  18.813  0.00  0.00    +0.000 A 
ATOM      3  N   UNL     1       0.239  13.221  18.885  0.00  0.00    +0.000 N 
ATOM      4  C   UNL     1      -0.688  14.249  18.747  0.00  0.00    +0.000 A 
ATOM      5  C   UNL     1      -0.270  15.515  18.874  0.00  0.00    +0.000 A 
ATOM      6  C   UNL     1       1.136  15.757  19.144  0.00  0.00    +0.000 A 
ATOM      7  C   UNL     1       2.060  14.773  19.278  0.00  0.00    +0.000 A 
ATOM      8  C   UNL     1       1.587  13.414  19.142  0.00  0.00    +0.000 A 
ATOM      9  N   UNL     1       2.212  12.251  19.247  0.00  0.00    +0.000 NA
ENDROOT
BRANCH   1  13
ATOM     10  C   UNL     1       2.179   7.094  19.253  0.00  0.00    +0.000 A 
ATOM     11  C   UNL     1       1.635   7.777  20.350  0.00  0.00    +0.000 A 
ATOM     12  C   UNL     1       1.317   9.136  20.283  0.00  0.00    +0.000 A 
ATOM     13  C   UNL     1       1.534   9.863  19.112  0.00  0.00    +0.000 A 
ATOM     14  C   UNL     1       2.049   9.192  17.998  0.00  0.00    +0.000 A 
ATOM     15  C   UNL     1       2.370   7.829  18.068  0.00  0.00    +0.000 A 
BRANCH  10  17
ATOM     16  C   UNL     1       2.054   4.792  18.111  0.00  0.00    +0.000 C 
ATOM     17  C   UNL     1       2.557   5.605  19.325  0.00  0.00    +0.000 C 
ATOM     18  C   UNL     1       1.943   4.964  20.588  0.00  0.00    +0.000 C 
ATOM     19  C   UNL     1       4.091   5.459  19.378  0.00  0.00    +0.000 C 
ENDBRANCH  10  17
ENDBRANCH   1  13
BRANCH   7  20
ATOM     20  N   UNL     1       3.408  15.065  19.512  0.00  0.00    +0.000 N 
ATOM     21  C   UNL     1       4.363  15.374  18.427  0.00  0.00    +0.000 C 
ATOM     22  C   UNL     1       5.291  16.545  18.855  0.00  0.00    +0.000 C 
ATOM     23  N   UNL     1       5.962  16.399  20.180  0.00  0.00    +0.000 NA
ATOM     24  C   UNL     1       4.907  16.055  21.171  0.00  0.00    +0.000 C 
ATOM     25  C   UNL     1       4.058  14.826  20.806  0.00  0.00    +0.000 C 
BRANCH  23  26
ATOM     26  C   UNL     1       7.018  15.365  20.095  0.00  0.00    +0.000 C 
BRANCH  26  27
ATOM     27  C   UNL     1       8.147  15.677  19.151  0.00  0.00    +0.000 A 
ATOM     28  C   UNL     1       8.984  16.720  19.237  0.00  0.00    +0.000 A 
ATOM     29  N   UNL     1      10.032  16.871  18.374  0.00  0.00    +0.000 N 
ATOM     30  C   UNL     1      10.348  15.962  17.402  0.00  0.00    +0.000 A 
ATOM     31  O   UNL     1      11.294  16.126  16.641  0.00  0.00    +0.000 OA
ATOM     32  N   UNL     1       9.531  14.872  17.329  0.00  0.00    +0.000 N 
ATOM     33  C   UNL     1       8.378  14.710  18.044  0.00  0.00    +0.000 A 
ATOM     34  O   UNL     1       7.581  13.811  17.792  0.00  0.00    +0.000 OA
ATOM     35  H   UNL     1      10.645  17.675  18.444  0.00  0.00    +0.000 HD
ATOM     36  H   UNL     1       9.706  14.222  16.580  0.00  0.00    +0.000 HD
ENDBRANCH  26  27
ENDBRANCH  23  26
ENDBRANCH   7  20
TORSDOF 5
ENDMDL
MODEL 7
REMARK VINA RESULT:      -8.1      0.928      1.474
REMARK  Name = 
REMARK  8 active torsions:
REMARK  status: ('A' for Active; 'I' for Inactive)
REMARK    1  A    between atoms: C_1  and  C_2
REMARK    2  A    between atoms: C_2  and  C_3
REMARK    3  A    between atoms: C_2  and  C_4
REMARK    4  A    between atoms: C_2  and  C_5
REMARK    5  A    between atoms: C_8  and  C_9
REMARK    6  A    between atoms: C_15  and  N_16
REMARK    7  A    between atoms: N_19  and  C_20
REMARK    8  A    between atoms: C_20  and  C_21
REMARK                            x       y       z     vdW  Elec       q    Type
REMARK                         _______ _______ _______ _____ _____    ______ ____
ROOT
ATOM      1  C   UNL     1       0.870   9.493  20.581  0.00  0.00    +0.000 A 
ATOM      2  C   UNL     1      -0.174   9.510  21.482  0.00  0.00    +0.000 A 
ATOM      3  N   UNL     1      -0.353  10.827  21.814  0.00  0.00    +0.000 N 
ATOM      4  C   UNL     1      -1.269  11.374  22.707  0.00  0.00    +0.000 A 
ATOM      5  C   UNL     1      -1.265  12.700  22.902  0.00  0.00    +0.000 A 
ATOM      6  C   UNL     1      -0.309  13.506  22.165  0.00  0.00    +0.000 A 
ATOM      7  C   UNL     1       0.590  12.997  21.285  0.00  0.00    +0.000 A 
ATOM      8  C   UNL     1       0.573  11.565  21.093  0.00  0.00    +0.000 A 
ATOM      9  N   UNL     1       1.323  10.768  20.348  0.00  0.00    +0.000 NA
ENDROOT
BRANCH   1  13
ATOM     10  C   UNL     1       2.709   6.045  18.788  0.00  0.00    +0.000 A 
ATOM     11  C   UNL     1       2.192   6.003  20.091  0.00  0.00    +0.000 A 
ATOM     12  C   UNL     1       1.579   7.116  20.673  0.00  0.00    +0.000 A 
ATOM     13  C   UNL     1       1.460   8.315  19.969  0.00  0.00    +0.000 A 
ATOM     14  C   UNL     1       1.944   8.367  18.658  0.00  0.00    +0.000 A 
ATOM     15  C   UNL     1       2.562   7.251  18.077  0.00  0.00    +0.000 A 
BRANCH  10  17
ATOM     16  C   UNL     1       4.256   4.023  19.156  0.00  0.00    +0.000 C 
ATOM     17  C   UNL     1       3.410   4.835  18.149  0.00  0.00    +0.000 C 
ATOM     18  C   UNL     1       4.363   5.305  17.030  0.00  0.00    +0.000 C 
ATOM     19  C   UNL     1       2.358   3.879  17.550  0.00  0.00    +0.000 C 
ENDBRANCH  10  17
ENDBRANCH   1  13
BRANCH   7  20
ATOM     20  N   UNL     1       1.472  13.824  20.582  0.00  0.00    +0.000 N 
ATOM     21  C   UNL     1       1.131  14.442  19.284  0.00  0.00    +0.000 C 
ATOM     22  C   UNL     1       1.642  15.910  19.244  0.00  0.00    +0.000 C 
ATOM     23  N   UNL     1       3.073  16.115  19.614  0.00  0.00    +0.000 NA
ATOM     24  C   UNL     1       3.296  15.420  20.911  0.00  0.00    +0.000 C 
ATOM     25  C   UNL     1       2.895  13.935  20.921  0.00  0.00    +0.000 C 
BRANCH  23  26
ATOM     26  C   UNL     1       3.948  15.600  18.538  0.00  0.00    +0.000 C 
BRANCH  26  27
ATOM     27  C   UNL     1       5.384  16.043  18.611  0.00  0.00    +0.000 A 
ATOM     28  C   UNL     1       5.827  17.210  19.100  0.00  0.00    +0.000 A 
ATOM     29  N   UNL     1       7.161  17.486  19.198  0.00  0.00    +0.000 N 
ATOM     30  C   UNL     1       8.144  16.595  18.866  0.00  0.00    +0.000 A 
ATOM     31  O   UNL     1       9.333  16.872  18.963  0.00  0.00    +0.000 OA
ATOM     32  N   UNL     1       7.710  15.386  18.407  0.00  0.00    +0.000 N 
ATOM     33  C   UNL     1       6.407  15.074  18.134  0.00  0.00    +0.000 A 
ATOM     34  O   UNL     1       6.099  14.049  17.535  0.00  0.00    +0.000 OA
ATOM     35  H   UNL     1       7.477  18.380  19.556  0.00  0.00    +0.000 HD
ATOM     36  H   UNL     1       8.415  14.737  18.097  0.00  0.00    +0.000 HD
ENDBRANCH  26  27
ENDBRANCH  23  26
ENDBRANCH   7  20
TORSDOF 5
ENDMDL
MODEL 8
REMARK VINA RESULT:      -8.1      1.892      2.408
REMARK  Name = 
REMARK  8 active torsions:
REMARK  status: ('A' for Active; 'I' for Inactive)
REMARK    1  A    between atoms: C_1  and  C_2
REMARK    2  A    between atoms: C_2  and  C_3
REMARK    3  A    between atoms: C_2  and  C_4
REMARK    4  A    between atoms: C_2  and  C_5
REMARK    5  A    between atoms: C_8  and  C_9
REMARK    6  A    between atoms: C_15  and  N_16
REMARK    7  A    between atoms: N_19  and  C_20
REMARK    8  A    between atoms: C_20  and  C_21
REMARK                            x       y       z     vdW  Elec       q    Type
REMARK                         _______ _______ _______ _____ _____    ______ ____
ROOT
ATOM      1  C   UNL     1       1.061   9.948  19.215  0.00  0.00    +0.000 A 
ATOM      2  C   UNL     1      -0.294  10.177  19.321  0.00  0.00    +0.000 A 
ATOM      3  N   UNL     1      -0.433  11.536  19.422  0.00  0.00    +0.000 N 
ATOM      4  C   UNL     1      -1.601  12.276  19.574  0.00  0.00    +0.000 A 
ATOM      5  C   UNL     1      -1.512  13.609  19.673  0.00  0.00    +0.000 A 
ATOM      6  C   UNL     1      -0.198  14.222  19.610  0.00  0.00    +0.000 A 
ATOM      7  C   UNL     1       0.956  13.524  19.458  0.00  0.00    +0.000 A 
ATOM      8  C   UNL     1       0.838  12.087  19.357  0.00  0.00    +0.000 A 
ATOM      9  N   UNL     1       1.751  11.136  19.238  0.00  0.00    +0.000 NA
ENDROOT
BRANCH   1  13
ATOM     10  C   UNL     1       2.896   6.071  18.932  0.00  0.00    +0.000 A 
ATOM     11  C   UNL     1       2.948   6.983  17.867  0.00  0.00    +0.000 A 
ATOM     12  C   UNL     1       2.367   8.251  17.960  0.00  0.00    +0.000 A 
ATOM     13  C   UNL     1       1.712   8.653  19.125  0.00  0.00    +0.000 A 
ATOM     14  C   UNL     1       1.675   7.767  20.207  0.00  0.00    +0.000 A 
ATOM     15  C   UNL     1       2.255   6.494  20.111  0.00  0.00    +0.000 A 
BRANCH  10  17
ATOM     16  C   UNL     1       3.211   3.970  17.481  0.00  0.00    +0.000 C 
ATOM     17  C   UNL     1       3.507   4.663  18.830  0.00  0.00    +0.000 C 
ATOM     18  C   UNL     1       2.938   3.757  19.942  0.00  0.00    +0.000 C 
ATOM     19  C   UNL     1       5.040   4.748  18.982  0.00  0.00    +0.000 C 
ENDBRANCH  10  17
ENDBRANCH   1  13
BRANCH   7  20
ATOM     20  N   UNL     1       2.194  14.169  19.377  0.00  0.00    +0.000 N 
ATOM     21  C   UNL     1       3.093  14.038  18.210  0.00  0.00    +0.000 C 
ATOM     22  C   UNL     1       3.718  15.419  17.865  0.00  0.00    +0.000 C 
ATOM     23  N   UNL     1       4.357  16.151  18.997  0.00  0.00    +0.000 NA
ATOM     24  C   UNL     1       3.371  16.182  20.112  0.00  0.00    +0.000 C 
ATOM     25  C   UNL     1       2.834  14.804  20.534  0.00  0.00    +0.000 C 
BRANCH  23  26
ATOM     26  C   UNL     1       5.620  15.482  19.378  0.00  0.00    +0.000 C 
BRANCH  26  27
ATOM     27  C   UNL     1       6.860  16.033  18.727  0.00  0.00    +0.000 A 
ATOM     28  C   UNL     1       7.356  17.267  18.891  0.00  0.00    +0.000 A 
ATOM     29  N   UNL     1       8.537  17.646  18.318  0.00  0.00    +0.000 N 
ATOM     30  C   UNL     1       9.328  16.803  17.588  0.00  0.00    +0.000 A 
ATOM     31  O   UNL     1      10.383  17.173  17.085  0.00  0.00    +0.000 OA
ATOM     32  N   UNL     1       8.858  15.530  17.448  0.00  0.00    +0.000 N 
ATOM     33  C   UNL     1       7.625  15.102  17.854  0.00  0.00    +0.000 A 
ATOM     34  O   UNL     1       7.179  14.009  17.523  0.00  0.00    +0.000 OA
ATOM     35  H   UNL     1       8.889  18.589  18.440  0.00  0.00    +0.000 HD
ATOM     36  H   UNL     1       9.393  14.910  16.862  0.00  0.00    +0.000 HD
ENDBRANCH  26  27
ENDBRANCH  23  26
ENDBRANCH   7  20
TORSDOF 5
ENDMDL
MODEL 9
REMARK VINA RESULT:      -8.1      4.520      7.610
REMARK  Name = 
REMARK  8 active torsions:
REMARK  status: ('A' for Active; 'I' for Inactive)
REMARK    1  A    between atoms: C_1  and  C_2
REMARK    2  A    between atoms: C_2  and  C_3
REMARK    3  A    between atoms: C_2  and  C_4
REMARK    4  A    between atoms: C_2  and  C_5
REMARK    5  A    between atoms: C_8  and  C_9
REMARK    6  A    between atoms: C_15  and  N_16
REMARK    7  A    between atoms: N_19  and  C_20
REMARK    8  A    between atoms: C_20  and  C_21
REMARK                            x       y       z     vdW  Elec       q    Type
REMARK                         _______ _______ _______ _____ _____    ______ ____
ROOT
ATOM      1  C   UNL     1       1.773   8.934  19.131  0.00  0.00    +0.000 A 
ATOM      2  C   UNL     1       2.529   9.651  18.228  0.00  0.00    +0.000 A 
ATOM      3  N   UNL     1       2.134  10.956  18.370  0.00  0.00    +0.000 N 
ATOM      4  C   UNL     1       2.577  12.072  17.670  0.00  0.00    +0.000 A 
ATOM      5  C   UNL     1       2.042  13.267  17.954  0.00  0.00    +0.000 A 
ATOM      6  C   UNL     1       1.025  13.341  18.988  0.00  0.00    +0.000 A 
ATOM      7  C   UNL     1       0.579  12.268  19.689  0.00  0.00    +0.000 A 
ATOM      8  C   UNL     1       1.167  10.989  19.363  0.00  0.00    +0.000 A 
ATOM      9  N   UNL     1       0.936   9.771  19.827  0.00  0.00    +0.000 NA
ENDROOT
BRANCH   1  13
ATOM     10  C   UNL     1       1.957   4.679  19.716  0.00  0.00    +0.000 A 
ATOM     11  C   UNL     1       1.572   5.543  20.752  0.00  0.00    +0.000 A 
ATOM     12  C   UNL     1       1.494   6.925  20.562  0.00  0.00    +0.000 A 
ATOM     13  C   UNL     1       1.801   7.495  19.326  0.00  0.00    +0.000 A 
ATOM     14  C   UNL     1       2.160   6.646  18.274  0.00  0.00    +0.000 A 
ATOM     15  C   UNL     1       2.241   5.260  18.467  0.00  0.00    +0.000 A 
BRANCH  10  17
ATOM     16  C   UNL     1       3.502   2.622  19.685  0.00  0.00    +0.000 C 
ATOM     17  C   UNL     1       2.072   3.159  19.923  0.00  0.00    +0.000 C 
ATOM     18  C   UNL     1       1.140   2.420  18.940  0.00  0.00    +0.000 C 
ATOM     19  C   UNL     1       1.674   2.798  21.368  0.00  0.00    +0.000 C 
ENDBRANCH  10  17
ENDBRANCH   1  13
BRANCH   7  20
ATOM     20  N   UNL     1      -0.384  12.402  20.694  0.00  0.00    +0.000 N 
ATOM     21  C   UNL     1      -1.666  13.108  20.488  0.00  0.00    +0.000 C 
ATOM     22  C   UNL     1      -2.821  12.322  21.170  0.00  0.00    +0.000 C 
ATOM     23  N   UNL     1      -2.602  11.941  22.597  0.00  0.00    +0.000 NA
ATOM     24  C   UNL     1      -1.273  11.276  22.675  0.00  0.00    +0.000 C 
ATOM     25  C   UNL     1      -0.107  12.100  22.103  0.00  0.00    +0.000 C 
BRANCH  23  26
ATOM     26  C   UNL     1      -2.684  13.144  23.455  0.00  0.00    +0.000 C 
BRANCH  26  27
ATOM     27  C   UNL     1      -4.062  13.728  23.610  0.00  0.00    +0.000 A 
ATOM     28  C   UNL     1      -4.483  14.901  23.118  0.00  0.00    +0.000 A 
ATOM     29  N   UNL     1      -5.782  15.306  23.244  0.00  0.00    +0.000 N 
ATOM     30  C   UNL     1      -6.759  14.544  23.820  0.00  0.00    +0.000 A 
ATOM     31  O   UNL     1      -7.916  14.935  23.920  0.00  0.00    +0.000 OA
ATOM     32  N   UNL     1      -6.356  13.327  24.288  0.00  0.00    +0.000 N 
ATOM     33  C   UNL     1      -5.059  12.901  24.342  0.00  0.00    +0.000 A 
ATOM     34  O   UNL     1      -4.736  11.888  24.955  0.00  0.00    +0.000 OA
ATOM     35  H   UNL     1      -6.078  16.205  22.879  0.00  0.00    +0.000 HD
ATOM     36  H   UNL     1      -7.045  12.775  24.772  0.00  0.00    +0.000 HD
ENDBRANCH  26  27
ENDBRANCH  23  26
ENDBRANCH   7  20
TORSDOF 5
ENDMDL
