MODEL 1
REMARK VINA RESULT:      -9.8      0.000      0.000
REMARK  Name = 
REMARK  4 active torsions:
REMARK  status: ('A' for Active; 'I' for Inactive)
REMARK    1  A    between atoms: N_2  and  C_4
REMARK    2  A    between atoms: C_7  and  C_8
REMARK    3  A    between atoms: C_11  and  C_12
REMARK    4  A    between atoms: C_12  and  N_13
REMARK                            x       y       z     vdW  Elec       q    Type
REMARK                         _______ _______ _______ _____ _____    ______ ____
ROOT
ATOM      1  C   UNL     1       2.198   5.977  19.938  0.00  0.00    +0.000 C 
ATOM      2  N   UNL     1       3.424   5.740  19.551  0.00  0.00    +0.000 NA
ATOM      3  N   UNL     1       3.862   4.459  19.612  0.00  0.00    +0.000 N 
ATOM      4  C   UNL     1       5.031   3.946  19.008  0.00  0.00    +0.000 A 
ATOM      5  N   UNL     1       5.109   2.662  19.452  0.00  0.00    +0.000 NA
ATOM      6  N   UNL     1       4.010   2.353  20.282  0.00  0.00    +0.000 NA
ATOM      7  C   UNL     1       3.255   3.415  20.327  0.00  0.00    +0.000 A 
ATOM      8  S   UNL     1       1.766   3.632  21.221  0.00  0.00    +0.000 S 
ATOM      9  C   UNL     1       1.111   4.936  20.161  0.00  0.00    +0.000 C 
ENDROOT
BRANCH   1  13
ATOM     10  C   UNL     1       0.803   9.952  20.363  0.00  0.00    +0.000 A 
ATOM     11  C   UNL     1       0.711   9.049  21.427  0.00  0.00    +0.000 A 
ATOM     12  C   UNL     1       1.241   7.776  21.285  0.00  0.00    +0.000 A 
ATOM     13  C   UNL     1       1.819   7.396  20.069  0.00  0.00    +0.000 A 
ATOM     14  C   UNL     1       1.891   8.286  18.989  0.00  0.00    +0.000 A 
ATOM     15  C   UNL     1       1.392   9.585  19.140  0.00  0.00    +0.000 A 
BRANCH  10  17
ATOM     16  O   UNL     1      -0.776  11.613  20.068  0.00  0.00    +0.000 OA
ATOM     17  N   UNL     1       0.317  11.329  20.553  0.00  0.00    +0.000 N 
ATOM     18  O   UNL     1       1.045  12.081  21.197  0.00  0.00    +0.000 OA
ENDBRANCH  10  17
ENDBRANCH   1  13
BRANCH   4  19
ATOM     19  C   UNL     1       6.228   4.679  18.018  0.00  0.00    +0.000 C 
BRANCH  19  20
ATOM     20  N   UNL     1       6.397   4.691  16.417  0.00  0.00    +0.000 N 
ATOM     21  N   UNL     1       7.704   4.838  16.200  0.00  0.00    +0.000 NA
ATOM     22  N   UNL     1       7.780   5.414  15.059  0.00  0.00    +0.000 NA
ATOM     23  C   UNL     1       6.929   4.727  14.297  0.00  0.00    +0.000 A 
ATOM     24  C   UNL     1       7.330   4.632  12.884  0.00  0.00    +0.000 A 
ATOM     25  C   UNL     1       6.765   3.945  11.855  0.00  0.00    +0.000 A 
ATOM     26  C   UNL     1       5.630   3.353  12.281  0.00  0.00    +0.000 A 
ATOM     27  C   UNL     1       5.208   3.466  13.749  0.00  0.00    +0.000 A 
ATOM     28  C   UNL     1       5.784   4.071  15.106  0.00  0.00    +0.000 A 
ENDBRANCH  19  20
ENDBRANCH   4  19
TORSDOF 4
ENDMDL
MODEL 2
REMARK VINA RESULT:      -9.7      0.306      1.097
REMARK  Name = 
REMARK  4 active torsions:
REMARK  status: ('A' for Active; 'I' for Inactive)
REMARK    1  A    between atoms: N_2  and  C_4
REMARK    2  A    between atoms: C_7  and  C_8
REMARK    3  A    between atoms: C_11  and  C_12
REMARK    4  A    between atoms: C_12  and  N_13
REMARK                            x       y       z     vdW  Elec       q    Type
REMARK                         _______ _______ _______ _____ _____    ______ ____
ROOT
ATOM      1  C   UNL     1       2.074   5.827  20.010  0.00  0.00    +0.000 C 
ATOM      2  N   UNL     1       3.313   5.666  19.625  0.00  0.00    +0.000 NA
ATOM      3  N   UNL     1       3.827   4.413  19.681  0.00  0.00    +0.000 N 
ATOM      4  C   UNL     1       5.025   3.974  19.076  0.00  0.00    +0.000 A 
ATOM      5  N   UNL     1       5.179   2.695  19.516  0.00  0.00    +0.000 NA
ATOM      6  N   UNL     1       4.100   2.317  20.342  0.00  0.00    +0.000 NA
ATOM      7  C   UNL     1       3.283   3.331  20.390  0.00  0.00    +0.000 A 
ATOM      8  S   UNL     1       1.782   3.455  21.283  0.00  0.00    +0.000 S 
ATOM      9  C   UNL     1       1.051   4.721  20.227  0.00  0.00    +0.000 C 
ENDROOT
BRANCH   1  13
ATOM     10  C   UNL     1       1.051   9.921  20.349  0.00  0.00    +0.000 A 
ATOM     11  C   UNL     1       1.560   9.413  19.150  0.00  0.00    +0.000 A 
ATOM     12  C   UNL     1       1.818   8.055  19.043  0.00  0.00    +0.000 A 
ATOM     13  C   UNL     1       1.610   7.220  20.146  0.00  0.00    +0.000 A 
ATOM     14  C   UNL     1       1.126   7.726  21.361  0.00  0.00    +0.000 A 
ATOM     15  C   UNL     1       0.828   9.091  21.461  0.00  0.00    +0.000 A 
BRANCH  10  17
ATOM     16  O   UNL     1       0.910  11.928  21.488  0.00  0.00    +0.000 OA
ATOM     17  N   UNL     1       0.697  11.349  20.424  0.00  0.00    +0.000 N 
ATOM     18  O   UNL     1       0.226  11.849  19.406  0.00  0.00    +0.000 OA
ENDBRANCH  10  17
ENDBRANCH   1  13
BRANCH   4  19
ATOM     19  C   UNL     1       6.177   4.782  18.092  0.00  0.00    +0.000 C 
BRANCH  19  20
ATOM     20  N   UNL     1       6.362   4.791  16.492  0.00  0.00    +0.000 N 
ATOM     21  N   UNL     1       7.648   5.080  16.287  0.00  0.00    +0.000 NA
ATOM     22  N   UNL     1       7.673   5.645  15.137  0.00  0.00    +0.000 NA
ATOM     23  C   UNL     1       6.912   4.858  14.377  0.00  0.00    +0.000 A 
ATOM     24  C   UNL     1       7.337   4.789  12.970  0.00  0.00    +0.000 A 
ATOM     25  C   UNL     1       6.864   4.029  11.946  0.00  0.00    +0.000 A 
ATOM     26  C   UNL     1       5.796   3.321  12.369  0.00  0.00    +0.000 A 
ATOM     27  C   UNL     1       5.347   3.406  13.831  0.00  0.00    +0.000 A 
ATOM     28  C   UNL     1       5.837   4.089  15.184  0.00  0.00    +0.000 A 
ENDBRANCH  19  20
ENDBRANCH   4  19
TORSDOF 4
ENDMDL
MODEL 3
REMARK VINA RESULT:      -9.5      3.892      9.063
REMARK  Name = 
REMARK  4 active torsions:
REMARK  status: ('A' for Active; 'I' for Inactive)
REMARK    1  A    between atoms: N_2  and  C_4
REMARK    2  A    between atoms: C_7  and  C_8
REMARK    3  A    between atoms: C_11  and  C_12
REMARK    4  A    between atoms: C_12  and  N_13
REMARK                            x       y       z     vdW  Elec       q    Type
REMARK                         _______ _______ _______ _____ _____    ______ ____
ROOT
ATOM      1  C   UNL     1       4.765   4.558  18.118  0.00  0.00    +0.000 C 
ATOM      2  N   UNL     1       3.872   5.498  18.284  0.00  0.00    +0.000 NA
ATOM      3  N   UNL     1       3.059   5.404  19.363  0.00  0.00    +0.000 N 
ATOM      4  C   UNL     1       2.223   6.422  19.872  0.00  0.00    +0.000 A 
ATOM      5  N   UNL     1       1.519   5.820  20.869  0.00  0.00    +0.000 NA
ATOM      6  N   UNL     1       1.916   4.475  21.018  0.00  0.00    +0.000 NA
ATOM      7  C   UNL     1       2.864   4.258  20.150  0.00  0.00    +0.000 A 
ATOM      8  S   UNL     1       3.724   2.762  19.855  0.00  0.00    +0.000 S 
ATOM      9  C   UNL     1       5.196   3.537  19.160  0.00  0.00    +0.000 C 
ENDROOT
BRANCH   1  13
ATOM     10  C   UNL     1       6.860   4.899  14.455  0.00  0.00    +0.000 A 
ATOM     11  C   UNL     1       7.470   5.265  15.658  0.00  0.00    +0.000 A 
ATOM     12  C   UNL     1       6.788   5.075  16.851  0.00  0.00    +0.000 A 
ATOM     13  C   UNL     1       5.486   4.564  16.831  0.00  0.00    +0.000 A 
ATOM     14  C   UNL     1       4.857   4.220  15.627  0.00  0.00    +0.000 A 
ATOM     15  C   UNL     1       5.556   4.374  14.424  0.00  0.00    +0.000 A 
BRANCH  10  17
ATOM     16  O   UNL     1       7.249   4.350  12.243  0.00  0.00    +0.000 OA
ATOM     17  N   UNL     1       7.625   5.022  13.202  0.00  0.00    +0.000 N 
ATOM     18  O   UNL     1       8.574   5.802  13.217  0.00  0.00    +0.000 OA
ENDBRANCH  10  17
ENDBRANCH   1  13
BRANCH   4  19
ATOM     19  C   UNL     1       1.964   8.047  19.378  0.00  0.00    +0.000 C 
BRANCH  19  20
ATOM     20  N   UNL     1       1.127   9.231  20.077  0.00  0.00    +0.000 N 
ATOM     21  N   UNL     1       0.465   9.830  19.086  0.00  0.00    +0.000 NA
ATOM     22  N   UNL     1       0.299  11.034  19.489  0.00  0.00    +0.000 NA
ATOM     23  C   UNL     1      -0.123  10.896  20.746  0.00  0.00    +0.000 A 
ATOM     24  C   UNL     1      -1.066  11.939  21.182  0.00  0.00    +0.000 A 
ATOM     25  C   UNL     1      -1.760  12.065  22.344  0.00  0.00    +0.000 A 
ATOM     26  C   UNL     1      -1.406  11.073  23.188  0.00  0.00    +0.000 A 
ATOM     27  C   UNL     1      -0.414   9.997  22.737  0.00  0.00    +0.000 A 
ATOM     28  C   UNL     1       0.371   9.588  21.412  0.00  0.00    +0.000 A 
ENDBRANCH  19  20
ENDBRANCH   4  19
TORSDOF 4
ENDMDL
MODEL 4
REMARK VINA RESULT:      -9.1      4.016      8.987
REMARK  Name = 
REMARK  4 active torsions:
REMARK  status: ('A' for Active; 'I' for Inactive)
REMARK    1  A    between atoms: N_2  and  C_4
REMARK    2  A    between atoms: C_7  and  C_8
REMARK    3  A    between atoms: C_11  and  C_12
REMARK    4  A    between atoms: C_12  and  N_13
REMARK                            x       y       z     vdW  Elec       q    Type
REMARK                         _______ _______ _______ _____ _____    ______ ____
ROOT
ATOM      1  C   UNL     1       4.253   4.131  17.710  0.00  0.00    +0.000 C 
ATOM      2  N   UNL     1       3.574   5.115  18.239  0.00  0.00    +0.000 NA
ATOM      3  N   UNL     1       2.595   4.795  19.120  0.00  0.00    +0.000 N 
ATOM      4  C   UNL     1       1.932   5.686  19.992  0.00  0.00    +0.000 A 
ATOM      5  N   UNL     1       0.960   4.932  20.576  0.00  0.00    +0.000 NA
ATOM      6  N   UNL     1       1.022   3.598  20.120  0.00  0.00    +0.000 NA
ATOM      7  C   UNL     1       2.027   3.523  19.293  0.00  0.00    +0.000 A 
ATOM      8  S   UNL     1       2.573   2.123  18.396  0.00  0.00    +0.000 S 
ATOM      9  C   UNL     1       4.273   2.690  18.198  0.00  0.00    +0.000 C 
ENDROOT
BRANCH   1  13
ATOM     10  C   UNL     1       6.844   4.838  14.437  0.00  0.00    +0.000 A 
ATOM     11  C   UNL     1       5.545   4.370  14.225  0.00  0.00    +0.000 A 
ATOM     12  C   UNL     1       4.693   4.216  15.308  0.00  0.00    +0.000 A 
ATOM     13  C   UNL     1       5.157   4.487  16.600  0.00  0.00    +0.000 A 
ATOM     14  C   UNL     1       6.467   4.932  16.824  0.00  0.00    +0.000 A 
ATOM     15  C   UNL     1       7.319   5.125  15.729  0.00  0.00    +0.000 A 
BRANCH  10  17
ATOM     16  O   UNL     1       7.431   4.501  12.227  0.00  0.00    +0.000 OA
ATOM     17  N   UNL     1       7.713   5.083  13.272  0.00  0.00    +0.000 N 
ATOM     18  O   UNL     1       8.645   5.864  13.442  0.00  0.00    +0.000 OA
ENDBRANCH  10  17
ENDBRANCH   1  13
BRANCH   4  19
ATOM     19  C   UNL     1       2.121   7.369  20.274  0.00  0.00    +0.000 C 
BRANCH  19  20
ATOM     20  N   UNL     1       1.075   8.460  20.830  0.00  0.00    +0.000 N 
ATOM     21  N   UNL     1       1.533   8.808  22.033  0.00  0.00    +0.000 NA
ATOM     22  N   UNL     1       0.491   9.171  22.684  0.00  0.00    +0.000 NA
ATOM     23  C   UNL     1      -0.158   9.963  21.830  0.00  0.00    +0.000 A 
ATOM     24  C   UNL     1      -0.899  11.060  22.473  0.00  0.00    +0.000 A 
ATOM     25  C   UNL     1      -1.587  12.096  21.923  0.00  0.00    +0.000 A 
ATOM     26  C   UNL     1      -1.594  11.967  20.580  0.00  0.00    +0.000 A 
ATOM     27  C   UNL     1      -0.834  10.815  19.914  0.00  0.00    +0.000 A 
ATOM     28  C   UNL     1       0.131   9.624  20.347  0.00  0.00    +0.000 A 
ENDBRANCH  19  20
ENDBRANCH   4  19
TORSDOF 4
ENDMDL
MODEL 5
REMARK VINA RESULT:      -8.8      4.001      8.967
REMARK  Name = 
REMARK  4 active torsions:
REMARK  status: ('A' for Active; 'I' for Inactive)
REMARK    1  A    between atoms: N_2  and  C_4
REMARK    2  A    between atoms: C_7  and  C_8
REMARK    3  A    between atoms: C_11  and  C_12
REMARK    4  A    between atoms: C_12  and  N_13
REMARK                            x       y       z     vdW  Elec       q    Type
REMARK                         _______ _______ _______ _____ _____    ______ ____
ROOT
ATOM      1  C   UNL     1       4.158   4.103  17.470  0.00  0.00    +0.000 C 
ATOM      2  N   UNL     1       3.631   5.086  18.151  0.00  0.00    +0.000 NA
ATOM      3  N   UNL     1       2.630   4.784  19.013  0.00  0.00    +0.000 N 
ATOM      4  C   UNL     1       2.112   5.626  20.021  0.00  0.00    +0.000 A 
ATOM      5  N   UNL     1       1.053   4.938  20.529  0.00  0.00    +0.000 NA
ATOM      6  N   UNL     1       0.920   3.686  19.893  0.00  0.00    +0.000 NA
ATOM      7  C   UNL     1       1.892   3.590  19.031  0.00  0.00    +0.000 A 
ATOM      8  S   UNL     1       2.223   2.267  17.933  0.00  0.00    +0.000 S 
ATOM      9  C   UNL     1       3.983   2.619  17.755  0.00  0.00    +0.000 C 
ENDROOT
BRANCH   1  13
ATOM     10  C   UNL     1       6.884   4.878  14.324  0.00  0.00    +0.000 A 
ATOM     11  C   UNL     1       5.715   4.149  14.087  0.00  0.00    +0.000 A 
ATOM     12  C   UNL     1       4.804   3.972  15.118  0.00  0.00    +0.000 A 
ATOM     13  C   UNL     1       5.086   4.484  16.388  0.00  0.00    +0.000 A 
ATOM     14  C   UNL     1       6.269   5.192  16.641  0.00  0.00    +0.000 A 
ATOM     15  C   UNL     1       7.174   5.406  15.594  0.00  0.00    +0.000 A 
BRANCH  10  17
ATOM     16  O   UNL     1       8.769   5.863  13.420  0.00  0.00    +0.000 OA
ATOM     17  N   UNL     1       7.803   5.136  13.202  0.00  0.00    +0.000 N 
ATOM     18  O   UNL     1       7.530   4.588  12.137  0.00  0.00    +0.000 OA
ENDBRANCH  10  17
ENDBRANCH   1  13
BRANCH   4  19
ATOM     19  C   UNL     1       2.540   7.211  20.523  0.00  0.00    +0.000 C 
BRANCH  19  20
ATOM     20  N   UNL     1       1.616   8.486  20.859  0.00  0.00    +0.000 N 
ATOM     21  N   UNL     1       1.078   8.851  19.694  0.00  0.00    +0.000 NA
ATOM     22  N   UNL     1       0.856  10.106  19.819  0.00  0.00    +0.000 NA
ATOM     23  C   UNL     1       0.282  10.212  21.017  0.00  0.00    +0.000 A 
ATOM     24  C   UNL     1      -0.713  11.292  21.114  0.00  0.00    +0.000 A 
ATOM     25  C   UNL     1      -1.547  11.629  22.134  0.00  0.00    +0.000 A 
ATOM     26  C   UNL     1      -1.294  10.841  23.200  0.00  0.00    +0.000 A 
ATOM     27  C   UNL     1      -0.247   9.727  23.101  0.00  0.00    +0.000 A 
ATOM     28  C   UNL     1       0.698   9.083  21.992  0.00  0.00    +0.000 A 
ENDBRANCH  19  20
ENDBRANCH   4  19
TORSDOF 4
ENDMDL
MODEL 6
REMARK VINA RESULT:      -8.8      3.897      8.978
REMARK  Name = 
REMARK  4 active torsions:
REMARK  status: ('A' for Active; 'I' for Inactive)
REMARK    1  A    between atoms: N_2  and  C_4
REMARK    2  A    between atoms: C_7  and  C_8
REMARK    3  A    between atoms: C_11  and  C_12
REMARK    4  A    between atoms: C_12  and  N_13
REMARK                            x       y       z     vdW  Elec       q    Type
REMARK                         _______ _______ _______ _____ _____    ______ ____
ROOT
ATOM      1  C   UNL     1       4.581   4.213  18.240  0.00  0.00    +0.000 C 
ATOM      2  N   UNL     1       3.749   5.185  18.507  0.00  0.00    +0.000 NA
ATOM      3  N   UNL     1       2.893   5.007  19.542  0.00  0.00    +0.000 N 
ATOM      4  C   UNL     1       2.111   6.007  20.161  0.00  0.00    +0.000 A 
ATOM      5  N   UNL     1       1.331   5.329  21.048  0.00  0.00    +0.000 NA
ATOM      6  N   UNL     1       1.629   3.951  21.024  0.00  0.00    +0.000 NA
ATOM      7  C   UNL     1       2.591   3.783  20.160  0.00  0.00    +0.000 A 
ATOM      8  S   UNL     1       3.356   2.281  19.688  0.00  0.00    +0.000 S 
ATOM      9  C   UNL     1       4.903   3.032  19.145  0.00  0.00    +0.000 C 
ENDROOT
BRANCH   1  13
ATOM     10  C   UNL     1       6.799   4.893  14.697  0.00  0.00    +0.000 A 
ATOM     11  C   UNL     1       7.358   5.165  15.949  0.00  0.00    +0.000 A 
ATOM     12  C   UNL     1       6.638   4.865  17.095  0.00  0.00    +0.000 A 
ATOM     13  C   UNL     1       5.347   4.338  16.985  0.00  0.00    +0.000 A 
ATOM     14  C   UNL     1       4.768   4.087  15.734  0.00  0.00    +0.000 A 
ATOM     15  C   UNL     1       5.506   4.353  14.575  0.00  0.00    +0.000 A 
BRANCH  10  17
ATOM     16  O   UNL     1       8.579   5.873  13.598  0.00  0.00    +0.000 OA
ATOM     17  N   UNL     1       7.605   5.132  13.488  0.00  0.00    +0.000 N 
ATOM     18  O   UNL     1       7.240   4.556  12.467  0.00  0.00    +0.000 OA
ENDBRANCH  10  17
ENDBRANCH   1  13
BRANCH   4  19
ATOM     19  C   UNL     1       1.983   7.697  19.886  0.00  0.00    +0.000 C 
BRANCH  19  20
ATOM     20  N   UNL     1       1.028   8.798  20.571  0.00  0.00    +0.000 N 
ATOM     21  N   UNL     1       1.430   8.874  21.841  0.00  0.00    +0.000 NA
ATOM     22  N   UNL     1       0.389   9.248  22.487  0.00  0.00    +0.000 NA
ATOM     23  C   UNL     1      -0.100  10.249  21.756  0.00  0.00    +0.000 A 
ATOM     24  C   UNL     1      -0.758  11.304  22.544  0.00  0.00    +0.000 A 
ATOM     25  C   UNL     1      -1.280  12.496  22.152  0.00  0.00    +0.000 A 
ATOM     26  C   UNL     1      -1.199  12.602  20.809  0.00  0.00    +0.000 A 
ATOM     27  C   UNL     1      -0.526  11.496  19.990  0.00  0.00    +0.000 A 
ATOM     28  C   UNL     1       0.261  10.137  20.254  0.00  0.00    +0.000 A 
ENDBRANCH  19  20
ENDBRANCH   4  19
TORSDOF 4
ENDMDL
MODEL 7
REMARK VINA RESULT:      -8.6      4.025      8.425
REMARK  Name = 
REMARK  4 active torsions:
REMARK  status: ('A' for Active; 'I' for Inactive)
REMARK    1  A    between atoms: N_2  and  C_4
REMARK    2  A    between atoms: C_7  and  C_8
REMARK    3  A    between atoms: C_11  and  C_12
REMARK    4  A    between atoms: C_12  and  N_13
REMARK                            x       y       z     vdW  Elec       q    Type
REMARK                         _______ _______ _______ _____ _____    ______ ____
ROOT
ATOM      1  C   UNL     1       4.198   4.065  17.601  0.00  0.00    +0.000 C 
ATOM      2  N   UNL     1       3.584   5.048  18.205  0.00  0.00    +0.000 NA
ATOM      3  N   UNL     1       2.578   4.728  19.055  0.00  0.00    +0.000 N 
ATOM      4  C   UNL     1       1.971   5.590  19.994  0.00  0.00    +0.000 A 
ATOM      5  N   UNL     1       0.945   4.862  20.512  0.00  0.00    +0.000 NA
ATOM      6  N   UNL     1       0.918   3.568  19.952  0.00  0.00    +0.000 NA
ATOM      7  C   UNL     1       1.923   3.489  19.125  0.00  0.00    +0.000 A 
ATOM      8  S   UNL     1       2.378   2.129  18.120  0.00  0.00    +0.000 S 
ATOM      9  C   UNL     1       4.115   2.592  17.972  0.00  0.00    +0.000 C 
ENDROOT
BRANCH   1  13
ATOM     10  C   UNL     1       6.864   4.847  14.406  0.00  0.00    +0.000 A 
ATOM     11  C   UNL     1       5.545   4.463  14.152  0.00  0.00    +0.000 A 
ATOM     12  C   UNL     1       4.672   4.284  15.214  0.00  0.00    +0.000 A 
ATOM     13  C   UNL     1       5.134   4.445  16.525  0.00  0.00    +0.000 A 
ATOM     14  C   UNL     1       6.463   4.803  16.790  0.00  0.00    +0.000 A 
ATOM     15  C   UNL     1       7.337   5.022  15.719  0.00  0.00    +0.000 A 
BRANCH  10  17
ATOM     16  O   UNL     1       7.487   4.586  12.196  0.00  0.00    +0.000 OA
ATOM     17  N   UNL     1       7.759   5.121  13.268  0.00  0.00    +0.000 N 
ATOM     18  O   UNL     1       8.702   5.878  13.485  0.00  0.00    +0.000 OA
ENDBRANCH  10  17
ENDBRANCH   1  13
BRANCH   4  19
ATOM     19  C   UNL     1       2.273   7.229  20.409  0.00  0.00    +0.000 C 
BRANCH  19  20
ATOM     20  N   UNL     1       1.544   8.581  19.928  0.00  0.00    +0.000 N 
ATOM     21  N   UNL     1       1.556   8.535  18.595  0.00  0.00    +0.000 NA
ATOM     22  N   UNL     1       1.540   9.762  18.228  0.00  0.00    +0.000 NA
ATOM     23  C   UNL     1       0.592  10.310  18.987  0.00  0.00    +0.000 A 
ATOM     24  C   UNL     1      -0.150  11.399  18.330  0.00  0.00    +0.000 A 
ATOM     25  C   UNL     1      -1.225  12.112  18.758  0.00  0.00    +0.000 A 
ATOM     26  C   UNL     1      -1.538  11.741  20.016  0.00  0.00    +0.000 A 
ATOM     27  C   UNL     1      -0.755  10.617  20.703  0.00  0.00    +0.000 A 
ATOM     28  C   UNL     1       0.398   9.580  20.339  0.00  0.00    +0.000 A 
ENDBRANCH  19  20
ENDBRANCH   4  19
TORSDOF 4
ENDMDL
MODEL 8
REMARK VINA RESULT:      -8.4      4.088      8.709
REMARK  Name = 
REMARK  4 active torsions:
REMARK  status: ('A' for Active; 'I' for Inactive)
REMARK    1  A    between atoms: N_2  and  C_4
REMARK    2  A    between atoms: C_7  and  C_8
REMARK    3  A    between atoms: C_11  and  C_12
REMARK    4  A    between atoms: C_12  and  N_13
REMARK                            x       y       z     vdW  Elec       q    Type
REMARK                         _______ _______ _______ _____ _____    ______ ____
ROOT
ATOM      1  C   UNL     1       4.840   5.080  18.215  0.00  0.00    +0.000 C 
ATOM      2  N   UNL     1       3.935   6.009  18.371  0.00  0.00    +0.000 NA
ATOM      3  N   UNL     1       3.066   5.868  19.402  0.00  0.00    +0.000 N 
ATOM      4  C   UNL     1       2.199   6.861  19.907  0.00  0.00    +0.000 A 
ATOM      5  N   UNL     1       1.447   6.215  20.840  0.00  0.00    +0.000 NA
ATOM      6  N   UNL     1       1.842   4.866  20.953  0.00  0.00    +0.000 NA
ATOM      7  C   UNL     1       2.836   4.689  20.128  0.00  0.00    +0.000 A 
ATOM      8  S   UNL     1       3.718   3.209  19.817  0.00  0.00    +0.000 S 
ATOM      9  C   UNL     1       5.221   4.017  19.234  0.00  0.00    +0.000 C 
ENDROOT
BRANCH   1  13
ATOM     10  C   UNL     1       6.909   5.022  14.520  0.00  0.00    +0.000 A 
ATOM     11  C   UNL     1       5.557   5.376  14.572  0.00  0.00    +0.000 A 
ATOM     12  C   UNL     1       4.923   5.457  15.803  0.00  0.00    +0.000 A 
ATOM     13  C   UNL     1       5.628   5.142  16.969  0.00  0.00    +0.000 A 
ATOM     14  C   UNL     1       6.976   4.760  16.923  0.00  0.00    +0.000 A 
ATOM     15  C   UNL     1       7.630   4.713  15.687  0.00  0.00    +0.000 A 
BRANCH  10  17
ATOM     16  O   UNL     1       7.156   4.278  12.346  0.00  0.00    +0.000 OA
ATOM     17  N   UNL     1       7.596   5.024  13.218  0.00  0.00    +0.000 N 
ATOM     18  O   UNL     1       8.553   5.788  13.107  0.00  0.00    +0.000 OA
ENDBRANCH  10  17
ENDBRANCH   1  13
BRANCH   4  19
ATOM     19  C   UNL     1       1.958   8.504  19.469  0.00  0.00    +0.000 C 
BRANCH  19  20
ATOM     20  N   UNL     1       0.602   9.359  19.323  0.00  0.00    +0.000 N 
ATOM     21  N   UNL     1       0.797  10.460  20.050  0.00  0.00    +0.000 NA
ATOM     22  N   UNL     1      -0.377  10.820  20.414  0.00  0.00    +0.000 NA
ATOM     23  C   UNL     1      -1.098  10.734  19.297  0.00  0.00    +0.000 A 
ATOM     24  C   UNL     1      -2.176  11.732  19.198  0.00  0.00    +0.000 A 
ATOM     25  C   UNL     1      -3.036  11.998  18.179  0.00  0.00    +0.000 A 
ATOM     26  C   UNL     1      -2.840  11.109  17.183  0.00  0.00    +0.000 A 
ATOM     27  C   UNL     1      -1.727  10.062  17.295  0.00  0.00    +0.000 A 
ATOM     28  C   UNL     1      -0.546   9.689  18.296  0.00  0.00    +0.000 A 
ENDBRANCH  19  20
ENDBRANCH   4  19
TORSDOF 4
ENDMDL
MODEL 9
REMARK VINA RESULT:      -8.4      4.578      7.528
REMARK  Name = 
REMARK  4 active torsions:
REMARK  status: ('A' for Active; 'I' for Inactive)
REMARK    1  A    between atoms: N_2  and  C_4
REMARK    2  A    between atoms: C_7  and  C_8
REMARK    3  A    between atoms: C_11  and  C_12
REMARK    4  A    between atoms: C_12  and  N_13
REMARK                            x       y       z     vdW  Elec       q    Type
REMARK                         _______ _______ _______ _____ _____    ______ ____
ROOT
ATOM      1  C   UNL     1      -2.045  11.046  18.766  0.00  0.00    +0.000 C 
ATOM      2  N   UNL     1      -1.158  10.229  19.270  0.00  0.00    +0.000 NA
ATOM      3  N   UNL     1      -0.516  10.623  20.397  0.00  0.00    +0.000 N 
ATOM      4  C   UNL     1       0.267   9.805  21.242  0.00  0.00    +0.000 A 
ATOM      5  N   UNL     1       0.797  10.666  22.153  0.00  0.00    +0.000 NA
ATOM      6  N   UNL     1       0.342  11.981  21.922  0.00  0.00    +0.000 NA
ATOM      7  C   UNL     1      -0.474  11.930  20.906  0.00  0.00    +0.000 A 
ATOM      8  S   UNL     1      -1.326  13.259  20.150  0.00  0.00    +0.000 S 
ATOM      9  C   UNL     1      -2.656  12.251  19.466  0.00  0.00    +0.000 C 
ENDROOT
BRANCH   1  13
ATOM     10  C   UNL     1      -3.253  10.127  14.813  0.00  0.00    +0.000 A 
ATOM     11  C   UNL     1      -2.209   9.422  15.418  0.00  0.00    +0.000 A 
ATOM     12  C   UNL     1      -1.881   9.693  16.738  0.00  0.00    +0.000 A 
ATOM     13  C   UNL     1      -2.567  10.697  17.431  0.00  0.00    +0.000 A 
ATOM     14  C   UNL     1      -3.597  11.427  16.823  0.00  0.00    +0.000 A 
ATOM     15  C   UNL     1      -3.956  11.130  15.502  0.00  0.00    +0.000 A 
BRANCH  10  17
ATOM     16  O   UNL     1      -2.753   9.529  12.637  0.00  0.00    +0.000 OA
ATOM     17  N   UNL     1      -3.652   9.771  13.440  0.00  0.00    +0.000 N 
ATOM     18  O   UNL     1      -4.859   9.732  13.216  0.00  0.00    +0.000 OA
ENDBRANCH  10  17
ENDBRANCH   1  13
BRANCH   4  19
ATOM     19  C   UNL     1       0.645   8.131  21.189  0.00  0.00    +0.000 C 
BRANCH  19  20
ATOM     20  N   UNL     1       1.772   7.339  20.355  0.00  0.00    +0.000 N 
ATOM     21  N   UNL     1       1.543   6.046  20.590  0.00  0.00    +0.000 NA
ATOM     22  N   UNL     1       2.686   5.485  20.452  0.00  0.00    +0.000 NA
ATOM     23  C   UNL     1       3.165   6.007  19.323  0.00  0.00    +0.000 A 
ATOM     24  C   UNL     1       4.009   5.085  18.545  0.00  0.00    +0.000 A 
ATOM     25  C   UNL     1       4.581   5.239  17.321  0.00  0.00    +0.000 A 
ATOM     26  C   UNL     1       4.340   6.487  16.867  0.00  0.00    +0.000 A 
ATOM     27  C   UNL     1       3.473   7.449  17.686  0.00  0.00    +0.000 A 
ATOM     28  C   UNL     1       2.608   7.420  19.023  0.00  0.00    +0.000 A 
ENDBRANCH  19  20
ENDBRANCH   4  19
TORSDOF 4
ENDMDL
