MODEL 1
REMARK VINA RESULT:      -8.6      0.000      0.000
REMARK  Name = 
REMARK  3 active torsions:
REMARK  status: ('A' for Active; 'I' for Inactive)
REMARK    1  A    between atoms: O_1  and  C_2
REMARK    2  A    between atoms: C_5  and  C_6
REMARK    3  A    between atoms: C_21  and  O_22
REMARK                            x       y       z     vdW  Elec       q    Type
REMARK                         _______ _______ _______ _____ _____    ______ ____
ROOT
ATOM      1  C   UNL     1       3.406   3.149  19.614  0.00  0.00    +0.000 C 
ATOM      2  C   UNL     1       3.219   4.659  19.637  0.00  0.00    +0.000 C 
ATOM      3  C   UNL     1       2.615   5.026  18.270  0.00  0.00    +0.000 C 
ATOM      4  C   UNL     1       2.881   6.469  17.815  0.00  0.00    +0.000 C 
ATOM      5  N   UNL     1       4.319   6.705  17.718  0.00  0.00    +0.000 N 
ATOM      6  C   UNL     1       5.027   5.782  16.932  0.00  0.00    +0.000 A 
ATOM      7  C   UNL     1       6.300   6.136  16.464  0.00  0.00    +0.000 A 
ATOM      8  C   UNL     1       7.056   5.253  15.693  0.00  0.00    +0.000 A 
ATOM      9  C   UNL     1       6.545   3.998  15.384  0.00  0.00    +0.000 A 
ATOM     10  C   UNL     1       5.302   3.618  15.882  0.00  0.00    +0.000 A 
ATOM     11  C   UNL     1       4.561   4.474  16.716  0.00  0.00    +0.000 A 
ATOM     12  C   UNL     1       3.238   4.007  17.293  0.00  0.00    +0.000 C 
ATOM     13  C   UNL     1       3.249   2.715  18.146  0.00  0.00    +0.000 C 
ATOM     14  H   UNL     1       4.541   7.664  17.461  0.00  0.00    +0.000 HD
ENDROOT
BRANCH   4  15
ATOM     15  C   UNL     1       2.240   7.493  18.750  0.00  0.00    +0.000 A 
ATOM     16  C   UNL     1       2.051   7.228  20.118  0.00  0.00    +0.000 A 
ATOM     17  C   UNL     1       1.396   8.143  20.943  0.00  0.00    +0.000 A 
ATOM     18  C   UNL     1       0.924   9.340  20.410  0.00  0.00    +0.000 A 
ATOM     19 CL   UNL     1       0.077  10.447  21.415  0.00  0.00    +0.000 Cl
ATOM     20  C   UNL     1       1.126   9.637  19.066  0.00  0.00    +0.000 A 
ATOM     21  C   UNL     1       1.776   8.716  18.240  0.00  0.00    +0.000 A 
ENDBRANCH   4  15
BRANCH   1  22
ATOM     22  O   UNL     1       4.699   2.802  20.109  0.00  0.00    +0.000 OA
ATOM     23  H   UNL     1       4.966   3.503  20.729  0.00  0.00    +0.000 HD
ENDBRANCH   1  22
BRANCH  13  24
ATOM     24  O   UNL     1       4.218   1.740  17.787  0.00  0.00    +0.000 OA
ATOM     25  H   UNL     1       4.808   2.206  17.154  0.00  0.00    +0.000 HD
ENDBRANCH  13  24
TORSDOF 3
ENDMDL
MODEL 2
REMARK VINA RESULT:      -8.3      0.194      1.047
REMARK  Name = 
REMARK  3 active torsions:
REMARK  status: ('A' for Active; 'I' for Inactive)
REMARK    1  A    between atoms: O_1  and  C_2
REMARK    2  A    between atoms: C_5  and  C_6
REMARK    3  A    between atoms: C_21  and  O_22
REMARK                            x       y       z     vdW  Elec       q    Type
REMARK                         _______ _______ _______ _____ _____    ______ ____
ROOT
ATOM      1  C   UNL     1       3.149   3.163  19.558  0.00  0.00    +0.000 C 
ATOM      2  C   UNL     1       2.985   4.676  19.612  0.00  0.00    +0.000 C 
ATOM      3  C   UNL     1       2.493   5.093  18.215  0.00  0.00    +0.000 C 
ATOM      4  C   UNL     1       2.815   6.544  17.826  0.00  0.00    +0.000 C 
ATOM      5  N   UNL     1       4.260   6.757  17.846  0.00  0.00    +0.000 N 
ATOM      6  C   UNL     1       5.013   5.845  17.090  0.00  0.00    +0.000 A 
ATOM      7  C   UNL     1       6.323   6.190  16.731  0.00  0.00    +0.000 A 
ATOM      8  C   UNL     1       7.122   5.317  15.994  0.00  0.00    +0.000 A 
ATOM      9  C   UNL     1       6.618   4.080  15.609  0.00  0.00    +0.000 A 
ATOM     10  C   UNL     1       5.335   3.707  15.999  0.00  0.00    +0.000 A 
ATOM     11  C   UNL     1       4.544   4.552  16.799  0.00  0.00    +0.000 A 
ATOM     12  C   UNL     1       3.174   4.092  17.258  0.00  0.00    +0.000 C 
ATOM     13  C   UNL     1       3.100   2.775  18.070  0.00  0.00    +0.000 C 
ATOM     14  H   UNL     1       4.517   7.719  17.636  0.00  0.00    +0.000 HD
ENDROOT
BRANCH   4  15
ATOM     15  C   UNL     1       2.120   7.550  18.739  0.00  0.00    +0.000 A 
ATOM     16  C   UNL     1       1.689   8.803  18.267  0.00  0.00    +0.000 A 
ATOM     17  C   UNL     1       1.123   9.741  19.131  0.00  0.00    +0.000 A 
ATOM     18  C   UNL     1       0.975   9.436  20.481  0.00  0.00    +0.000 A 
ATOM     19 CL   UNL     1       0.320  10.608  21.555  0.00  0.00    +0.000 Cl
ATOM     20  C   UNL     1       1.366   8.192  20.966  0.00  0.00    +0.000 A 
ATOM     21  C   UNL     1       1.939   7.256  20.101  0.00  0.00    +0.000 A 
ENDBRANCH   4  15
BRANCH   1  22
ATOM     22  O   UNL     1       4.395   2.779  20.140  0.00  0.00    +0.000 OA
ATOM     23  H   UNL     1       5.000   3.537  20.048  0.00  0.00    +0.000 HD
ENDBRANCH   1  22
BRANCH  13  24
ATOM     24  O   UNL     1       4.078   1.794  17.757  0.00  0.00    +0.000 OA
ATOM     25  H   UNL     1       4.843   2.312  17.421  0.00  0.00    +0.000 HD
ENDBRANCH  13  24
TORSDOF 3
ENDMDL
MODEL 3
REMARK VINA RESULT:      -8.1      1.920      3.371
REMARK  Name = 
REMARK  3 active torsions:
REMARK  status: ('A' for Active; 'I' for Inactive)
REMARK    1  A    between atoms: O_1  and  C_2
REMARK    2  A    between atoms: C_5  and  C_6
REMARK    3  A    between atoms: C_21  and  O_22
REMARK                            x       y       z     vdW  Elec       q    Type
REMARK                         _______ _______ _______ _____ _____    ______ ____
ROOT
ATOM      1  C   UNL     1       5.881   6.193  17.356  0.00  0.00    +0.000 C 
ATOM      2  C   UNL     1       4.521   6.818  17.638  0.00  0.00    +0.000 C 
ATOM      3  C   UNL     1       4.180   6.439  19.090  0.00  0.00    +0.000 C 
ATOM      4  C   UNL     1       2.678   6.419  19.414  0.00  0.00    +0.000 C 
ATOM      5  N   UNL     1       1.995   5.456  18.554  0.00  0.00    +0.000 N 
ATOM      6  C   UNL     1       2.535   4.161  18.555  0.00  0.00    +0.000 A 
ATOM      7  C   UNL     1       1.742   3.102  18.093  0.00  0.00    +0.000 A 
ATOM      8  C   UNL     1       2.232   1.797  18.055  0.00  0.00    +0.000 A 
ATOM      9  C   UNL     1       3.530   1.536  18.478  0.00  0.00    +0.000 A 
ATOM     10  C   UNL     1       4.343   2.586  18.896  0.00  0.00    +0.000 A 
ATOM     11  C   UNL     1       3.882   3.915  18.874  0.00  0.00    +0.000 A 
ATOM     12  C   UNL     1       4.812   5.043  19.277  0.00  0.00    +0.000 C 
ATOM     13  C   UNL     1       6.139   5.188  18.492  0.00  0.00    +0.000 C 
ATOM     14  H   UNL     1       0.989   5.442  18.706  0.00  0.00    +0.000 HD
ENDROOT
BRANCH   4  15
ATOM     15  C   UNL     1       2.043   7.800  19.270  0.00  0.00    +0.000 A 
ATOM     16  C   UNL     1       1.478   8.472  20.370  0.00  0.00    +0.000 A 
ATOM     17  C   UNL     1       0.834   9.700  20.208  0.00  0.00    +0.000 A 
ATOM     18  C   UNL     1       0.751  10.275  18.943  0.00  0.00    +0.000 A 
ATOM     19 CL   UNL     1      -0.081  11.764  18.736  0.00  0.00    +0.000 Cl
ATOM     20  C   UNL     1       1.328   9.643  17.846  0.00  0.00    +0.000 A 
ATOM     21  C   UNL     1       1.966   8.411  18.008  0.00  0.00    +0.000 A 
ENDBRANCH   4  15
BRANCH   1  22
ATOM     22  O   UNL     1       5.871   5.534  16.090  0.00  0.00    +0.000 OA
ATOM     23  H   UNL     1       5.904   6.226  15.406  0.00  0.00    +0.000 HD
ENDBRANCH   1  22
BRANCH  13  24
ATOM     24  O   UNL     1       6.705   3.982  17.999  0.00  0.00    +0.000 OA
ATOM     25  H   UNL     1       7.646   4.022  18.283  0.00  0.00    +0.000 HD
ENDBRANCH  13  24
TORSDOF 3
ENDMDL
MODEL 4
REMARK VINA RESULT:      -8.1      1.919      3.493
REMARK  Name = 
REMARK  3 active torsions:
REMARK  status: ('A' for Active; 'I' for Inactive)
REMARK    1  A    between atoms: O_1  and  C_2
REMARK    2  A    between atoms: C_5  and  C_6
REMARK    3  A    between atoms: C_21  and  O_22
REMARK                            x       y       z     vdW  Elec       q    Type
REMARK                         _______ _______ _______ _____ _____    ______ ____
ROOT
ATOM      1  C   UNL     1       5.884   6.170  17.354  0.00  0.00    +0.000 C 
ATOM      2  C   UNL     1       4.521   6.796  17.612  0.00  0.00    +0.000 C 
ATOM      3  C   UNL     1       4.168   6.444  19.068  0.00  0.00    +0.000 C 
ATOM      4  C   UNL     1       2.664   6.426  19.380  0.00  0.00    +0.000 C 
ATOM      5  N   UNL     1       1.990   5.446  18.533  0.00  0.00    +0.000 N 
ATOM      6  C   UNL     1       2.534   4.152  18.562  0.00  0.00    +0.000 A 
ATOM      7  C   UNL     1       1.748   3.082  18.114  0.00  0.00    +0.000 A 
ATOM      8  C   UNL     1       2.241   1.778  18.105  0.00  0.00    +0.000 A 
ATOM      9  C   UNL     1       3.537   1.528  18.544  0.00  0.00    +0.000 A 
ATOM     10  C   UNL     1       4.343   2.589  18.948  0.00  0.00    +0.000 A 
ATOM     11  C   UNL     1       3.879   3.916  18.898  0.00  0.00    +0.000 A 
ATOM     12  C   UNL     1       4.802   5.054  19.287  0.00  0.00    +0.000 C 
ATOM     13  C   UNL     1       6.135   5.187  18.511  0.00  0.00    +0.000 C 
ATOM     14  H   UNL     1       0.983   5.431  18.676  0.00  0.00    +0.000 HD
ENDROOT
BRANCH   4  15
ATOM     15  C   UNL     1       2.026   7.802  19.205  0.00  0.00    +0.000 A 
ATOM     16  C   UNL     1       2.042   8.474  17.969  0.00  0.00    +0.000 A 
ATOM     17  C   UNL     1       1.521   9.763  17.845  0.00  0.00    +0.000 A 
ATOM     18  C   UNL     1       0.971  10.396  18.956  0.00  0.00    +0.000 A 
ATOM     19 CL   UNL     1       0.370  12.000  18.814  0.00  0.00    +0.000 Cl
ATOM     20  C   UNL     1       0.916   9.740  20.181  0.00  0.00    +0.000 A 
ATOM     21  C   UNL     1       1.444   8.452  20.306  0.00  0.00    +0.000 A 
ENDBRANCH   4  15
BRANCH   1  22
ATOM     22  O   UNL     1       5.886   5.488  16.100  0.00  0.00    +0.000 OA
ATOM     23  H   UNL     1       6.278   4.609  16.253  0.00  0.00    +0.000 HD
ENDBRANCH   1  22
BRANCH  13  24
ATOM     24  O   UNL     1       6.709   3.974  18.044  0.00  0.00    +0.000 OA
ATOM     25  H   UNL     1       6.389   3.895  17.118  0.00  0.00    +0.000 HD
ENDBRANCH  13  24
TORSDOF 3
ENDMDL
MODEL 5
REMARK VINA RESULT:      -8.1      3.187      6.065
REMARK  Name = 
REMARK  3 active torsions:
REMARK  status: ('A' for Active; 'I' for Inactive)
REMARK    1  A    between atoms: O_1  and  C_2
REMARK    2  A    between atoms: C_5  and  C_6
REMARK    3  A    between atoms: C_21  and  O_22
REMARK                            x       y       z     vdW  Elec       q    Type
REMARK                         _______ _______ _______ _____ _____    ______ ____
ROOT
ATOM      1  C   UNL     1       2.143   2.558  18.404  0.00  0.00    +0.000 C 
ATOM      2  C   UNL     1       3.012   3.307  17.404  0.00  0.00    +0.000 C 
ATOM      3  C   UNL     1       4.158   3.922  18.226  0.00  0.00    +0.000 C 
ATOM      4  C   UNL     1       4.803   5.168  17.599  0.00  0.00    +0.000 C 
ATOM      5  N   UNL     1       3.799   6.215  17.425  0.00  0.00    +0.000 N 
ATOM      6  C   UNL     1       3.065   6.542  18.576  0.00  0.00    +0.000 A 
ATOM      7  C   UNL     1       2.383   7.765  18.613  0.00  0.00    +0.000 A 
ATOM      8  C   UNL     1       1.625   8.136  19.724  0.00  0.00    +0.000 A 
ATOM      9  C   UNL     1       1.539   7.279  20.815  0.00  0.00    +0.000 A 
ATOM     10  C   UNL     1       2.174   6.041  20.772  0.00  0.00    +0.000 A 
ATOM     11  C   UNL     1       2.885   5.629  19.630  0.00  0.00    +0.000 A 
ATOM     12  C   UNL     1       3.515   4.250  19.590  0.00  0.00    +0.000 C 
ATOM     13  C   UNL     1       2.581   3.034  19.801  0.00  0.00    +0.000 C 
ATOM     14  H   UNL     1       4.174   7.045  16.972  0.00  0.00    +0.000 HD
ENDROOT
BRANCH   4  15
ATOM     15  C   UNL     1       5.478   4.856  16.266  0.00  0.00    +0.000 A 
ATOM     16  C   UNL     1       6.850   5.087  16.060  0.00  0.00    +0.000 A 
ATOM     17  C   UNL     1       7.436   4.867  14.813  0.00  0.00    +0.000 A 
ATOM     18  C   UNL     1       6.657   4.407  13.755  0.00  0.00    +0.000 A 
ATOM     19 CL   UNL     1       7.368   4.180  12.207  0.00  0.00    +0.000 Cl
ATOM     20  C   UNL     1       5.304   4.142  13.943  0.00  0.00    +0.000 A 
ATOM     21  C   UNL     1       4.717   4.370  15.190  0.00  0.00    +0.000 A 
ENDBRANCH   4  15
BRANCH   1  22
ATOM     22  O   UNL     1       0.764   2.850  18.179  0.00  0.00    +0.000 OA
ATOM     23  H   UNL     1       0.684   3.166  17.262  0.00  0.00    +0.000 HD
ENDBRANCH   1  22
BRANCH  13  24
ATOM     24  O   UNL     1       1.462   3.247  20.650  0.00  0.00    +0.000 OA
ATOM     25  H   UNL     1       1.856   3.380  21.541  0.00  0.00    +0.000 HD
ENDBRANCH  13  24
TORSDOF 3
ENDMDL
MODEL 6
REMARK VINA RESULT:      -7.8      3.218      6.100
REMARK  Name = 
REMARK  3 active torsions:
REMARK  status: ('A' for Active; 'I' for Inactive)
REMARK    1  A    between atoms: O_1  and  C_2
REMARK    2  A    between atoms: C_5  and  C_6
REMARK    3  A    between atoms: C_21  and  O_22
REMARK                            x       y       z     vdW  Elec       q    Type
REMARK                         _______ _______ _______ _____ _____    ______ ____
ROOT
ATOM      1  C   UNL     1       2.169   2.586  18.290  0.00  0.00    +0.000 C 
ATOM      2  C   UNL     1       2.997   3.367  17.279  0.00  0.00    +0.000 C 
ATOM      3  C   UNL     1       4.166   3.972  18.076  0.00  0.00    +0.000 C 
ATOM      4  C   UNL     1       4.779   5.238  17.457  0.00  0.00    +0.000 C 
ATOM      5  N   UNL     1       3.762   6.280  17.343  0.00  0.00    +0.000 N 
ATOM      6  C   UNL     1       3.066   6.573  18.526  0.00  0.00    +0.000 A 
ATOM      7  C   UNL     1       2.376   7.790  18.616  0.00  0.00    +0.000 A 
ATOM      8  C   UNL     1       1.654   8.127  19.760  0.00  0.00    +0.000 A 
ATOM      9  C   UNL     1       1.612   7.244  20.833  0.00  0.00    +0.000 A 
ATOM     10  C   UNL     1       2.255   6.013  20.738  0.00  0.00    +0.000 A 
ATOM     11  C   UNL     1       2.929   5.634  19.563  0.00  0.00    +0.000 A 
ATOM     12  C   UNL     1       3.568   4.262  19.468  0.00  0.00    +0.000 C 
ATOM     13  C   UNL     1       2.651   3.033  19.681  0.00  0.00    +0.000 C 
ATOM     14  H   UNL     1       4.114   7.124  16.897  0.00  0.00    +0.000 HD
ENDROOT
BRANCH   4  15
ATOM     15  C   UNL     1       5.410   4.964  16.095  0.00  0.00    +0.000 A 
ATOM     16  C   UNL     1       4.671   4.404  15.037  0.00  0.00    +0.000 A 
ATOM     17  C   UNL     1       5.281   4.090  13.821  0.00  0.00    +0.000 A 
ATOM     18  C   UNL     1       6.640   4.336  13.646  0.00  0.00    +0.000 A 
ATOM     19 CL   UNL     1       7.401   3.907  12.166  0.00  0.00    +0.000 Cl
ATOM     20  C   UNL     1       7.385   4.917  14.668  0.00  0.00    +0.000 A 
ATOM     21  C   UNL     1       6.774   5.225  15.886  0.00  0.00    +0.000 A 
ENDBRANCH   4  15
BRANCH   1  22
ATOM     22  O   UNL     1       0.781   2.873  18.119  0.00  0.00    +0.000 OA
ATOM     23  H   UNL     1       0.478   3.317  18.931  0.00  0.00    +0.000 HD
ENDBRANCH   1  22
BRANCH  13  24
ATOM     24  O   UNL     1       1.560   3.216  20.573  0.00  0.00    +0.000 OA
ATOM     25  H   UNL     1       0.776   2.911  20.064  0.00  0.00    +0.000 HD
ENDBRANCH  13  24
TORSDOF 3
ENDMDL
MODEL 7
REMARK VINA RESULT:      -7.5      5.011      8.363
REMARK  Name = 
REMARK  3 active torsions:
REMARK  status: ('A' for Active; 'I' for Inactive)
REMARK    1  A    between atoms: O_1  and  C_2
REMARK    2  A    between atoms: C_5  and  C_6
REMARK    3  A    between atoms: C_21  and  O_22
REMARK                            x       y       z     vdW  Elec       q    Type
REMARK                         _______ _______ _______ _____ _____    ______ ____
ROOT
ATOM      1  C   UNL     1      -2.274  10.473  17.514  0.00  0.00    +0.000 C 
ATOM      2  C   UNL     1      -0.870   9.908  17.678  0.00  0.00    +0.000 C 
ATOM      3  C   UNL     1      -0.526  10.069  19.169  0.00  0.00    +0.000 C 
ATOM      4  C   UNL     1       0.977  10.141  19.479  0.00  0.00    +0.000 C 
ATOM      5  N   UNL     1       1.576  11.276  18.783  0.00  0.00    +0.000 N 
ATOM      6  C   UNL     1       0.948  12.513  19.000  0.00  0.00    +0.000 A 
ATOM      7  C   UNL     1       1.658  13.686  18.710  0.00  0.00    +0.000 A 
ATOM      8  C   UNL     1       1.080  14.942  18.891  0.00  0.00    +0.000 A 
ATOM      9  C   UNL     1      -0.224  15.039  19.363  0.00  0.00    +0.000 A 
ATOM     10  C   UNL     1      -0.955  13.880  19.610  0.00  0.00    +0.000 A 
ATOM     11  C   UNL     1      -0.405  12.608  19.367  0.00  0.00    +0.000 A 
ATOM     12  C   UNL     1      -1.248  11.367  19.588  0.00  0.00    +0.000 C 
ATOM     13  C   UNL     1      -2.577  11.259  18.802  0.00  0.00    +0.000 C 
ATOM     14  H   UNL     1       2.582  11.337  18.925  0.00  0.00    +0.000 HD
ENDROOT
BRANCH   4  15
ATOM     15  C   UNL     1       1.702   8.850  19.106  0.00  0.00    +0.000 A 
ATOM     16  C   UNL     1       1.761   7.754  19.986  0.00  0.00    +0.000 A 
ATOM     17  C   UNL     1       2.491   6.610  19.661  0.00  0.00    +0.000 A 
ATOM     18  C   UNL     1       3.169   6.545  18.446  0.00  0.00    +0.000 A 
ATOM     19 CL   UNL     1       4.106   5.155  18.065  0.00  0.00    +0.000 Cl
ATOM     20  C   UNL     1       3.100   7.604  17.547  0.00  0.00    +0.000 A 
ATOM     21  C   UNL     1       2.375   8.752  17.877  0.00  0.00    +0.000 A 
ENDBRANCH   4  15
BRANCH   1  22
ATOM     22  O   UNL     1      -2.335  11.328  16.373  0.00  0.00    +0.000 OA
ATOM     23  H   UNL     1      -1.629  11.991  16.474  0.00  0.00    +0.000 HD
ENDBRANCH   1  22
BRANCH  13  24
ATOM     24  O   UNL     1      -3.235  12.486  18.517  0.00  0.00    +0.000 OA
ATOM     25  H   UNL     1      -3.978  12.231  17.925  0.00  0.00    +0.000 HD
ENDBRANCH  13  24
TORSDOF 3
ENDMDL
MODEL 8
REMARK VINA RESULT:      -7.5      1.071      1.152
REMARK  Name = 
REMARK  3 active torsions:
REMARK  status: ('A' for Active; 'I' for Inactive)
REMARK    1  A    between atoms: O_1  and  C_2
REMARK    2  A    between atoms: C_5  and  C_6
REMARK    3  A    between atoms: C_21  and  O_22
REMARK                            x       y       z     vdW  Elec       q    Type
REMARK                         _______ _______ _______ _____ _____    ______ ____
ROOT
ATOM      1  C   UNL     1       2.090   3.870  20.054  0.00  0.00    +0.000 C 
ATOM      2  C   UNL     1       2.189   5.387  19.972  0.00  0.00    +0.000 C 
ATOM      3  C   UNL     1       1.845   5.749  18.516  0.00  0.00    +0.000 C 
ATOM      4  C   UNL     1       2.433   7.082  18.029  0.00  0.00    +0.000 C 
ATOM      5  N   UNL     1       3.890   7.049  18.123  0.00  0.00    +0.000 N 
ATOM      6  C   UNL     1       4.508   5.957  17.495  0.00  0.00    +0.000 A 
ATOM      7  C   UNL     1       5.874   6.041  17.192  0.00  0.00    +0.000 A 
ATOM      8  C   UNL     1       6.545   4.981  16.583  0.00  0.00    +0.000 A 
ATOM      9  C   UNL     1       5.853   3.816  16.271  0.00  0.00    +0.000 A 
ATOM     10  C   UNL     1       4.506   3.704  16.608  0.00  0.00    +0.000 A 
ATOM     11  C   UNL     1       3.837   4.740  17.283  0.00  0.00    +0.000 A 
ATOM     12  C   UNL     1       2.387   4.563  17.691  0.00  0.00    +0.000 C 
ATOM     13  C   UNL     1       2.046   3.359  18.603  0.00  0.00    +0.000 C 
ATOM     14  H   UNL     1       4.320   7.931  17.850  0.00  0.00    +0.000 HD
ENDROOT
BRANCH   4  15
ATOM     15  C   UNL     1       1.880   8.272  18.808  0.00  0.00    +0.000 A 
ATOM     16  C   UNL     1       1.456   8.149  20.144  0.00  0.00    +0.000 A 
ATOM     17  C   UNL     1       0.883   9.228  20.819  0.00  0.00    +0.000 A 
ATOM     18  C   UNL     1       0.731  10.449  20.167  0.00  0.00    +0.000 A 
ATOM     19 CL   UNL     1      -0.017  11.764  20.982  0.00  0.00    +0.000 Cl
ATOM     20  C   UNL     1       1.170  10.603  18.856  0.00  0.00    +0.000 A 
ATOM     21  C   UNL     1       1.737   9.520  18.179  0.00  0.00    +0.000 A 
ENDBRANCH   4  15
BRANCH   1  22
ATOM     22  O   UNL     1       3.220   3.337  20.744  0.00  0.00    +0.000 OA
ATOM     23  H   UNL     1       2.962   2.463  21.086  0.00  0.00    +0.000 HD
ENDBRANCH   1  22
BRANCH  13  24
ATOM     24  O   UNL     1       2.853   2.202  18.437  0.00  0.00    +0.000 OA
ATOM     25  H   UNL     1       3.712   2.551  18.110  0.00  0.00    +0.000 HD
ENDBRANCH  13  24
TORSDOF 3
ENDMDL
MODEL 9
REMARK VINA RESULT:      -7.5      5.028      8.451
REMARK  Name = 
REMARK  3 active torsions:
REMARK  status: ('A' for Active; 'I' for Inactive)
REMARK    1  A    between atoms: O_1  and  C_2
REMARK    2  A    between atoms: C_5  and  C_6
REMARK    3  A    between atoms: C_21  and  O_22
REMARK                            x       y       z     vdW  Elec       q    Type
REMARK                         _______ _______ _______ _____ _____    ______ ____
ROOT
ATOM      1  C   UNL     1      -2.269  10.456  17.458  0.00  0.00    +0.000 C 
ATOM      2  C   UNL     1      -0.857   9.923  17.653  0.00  0.00    +0.000 C 
ATOM      3  C   UNL     1      -0.551  10.090  19.152  0.00  0.00    +0.000 C 
ATOM      4  C   UNL     1       0.943  10.195  19.495  0.00  0.00    +0.000 C 
ATOM      5  N   UNL     1       1.532  11.345  18.814  0.00  0.00    +0.000 N 
ATOM      6  C   UNL     1       0.872  12.567  19.017  0.00  0.00    +0.000 A 
ATOM      7  C   UNL     1       1.562  13.756  18.745  0.00  0.00    +0.000 A 
ATOM      8  C   UNL     1       0.952  14.999  18.913  0.00  0.00    +0.000 A 
ATOM      9  C   UNL     1      -0.364  15.066  19.356  0.00  0.00    +0.000 A 
ATOM     10  C   UNL     1      -1.075  13.890  19.585  0.00  0.00    +0.000 A 
ATOM     11  C   UNL     1      -0.491  12.631  19.354  0.00  0.00    +0.000 A 
ATOM     12  C   UNL     1      -1.310  11.371  19.555  0.00  0.00    +0.000 C 
ATOM     13  C   UNL     1      -2.619  11.234  18.739  0.00  0.00    +0.000 C 
ATOM     14  H   UNL     1       2.533  11.427  18.979  0.00  0.00    +0.000 HD
ENDROOT
BRANCH   4  15
ATOM     15  C   UNL     1       1.705   8.922  19.138  0.00  0.00    +0.000 A 
ATOM     16  C   UNL     1       2.346   8.767  17.896  0.00  0.00    +0.000 A 
ATOM     17  C   UNL     1       2.974   7.568  17.555  0.00  0.00    +0.000 A 
ATOM     18  C   UNL     1       2.975   6.508  18.457  0.00  0.00    +0.000 A 
ATOM     19 CL   UNL     1       3.709   5.016  18.021  0.00  0.00    +0.000 Cl
ATOM     20  C   UNL     1       2.374   6.648  19.705  0.00  0.00    +0.000 A 
ATOM     21  C   UNL     1       1.739   7.846  20.041  0.00  0.00    +0.000 A 
ENDBRANCH   4  15
BRANCH   1  22
ATOM     22  O   UNL     1      -2.323  11.311  16.317  0.00  0.00    +0.000 OA
ATOM     23  H   UNL     1      -1.627  11.015  15.703  0.00  0.00    +0.000 HD
ENDBRANCH   1  22
BRANCH  13  24
ATOM     24  O   UNL     1      -3.297  12.446  18.440  0.00  0.00    +0.000 OA
ATOM     25  H   UNL     1      -4.155  12.368  18.915  0.00  0.00    +0.000 HD
ENDBRANCH  13  24
TORSDOF 3
ENDMDL
