MODEL 1
REMARK VINA RESULT:      -8.2      0.000      0.000
REMARK  Name = 
REMARK  6 active torsions:
REMARK  status: ('A' for Active; 'I' for Inactive)
REMARK    1  A    between atoms: C_1  and  N_2
REMARK    2  A    between atoms: N_2  and  C_3
REMARK    3  A    between atoms: C_3  and  C_4
REMARK    4  A    between atoms: C_9  and  N_10
REMARK    5  A    between atoms: C_16  and  C_18
REMARK    6  A    between atoms: C_19  and  C_20
REMARK                            x       y       z     vdW  Elec       q    Type
REMARK                         _______ _______ _______ _____ _____    ______ ____
ROOT
ATOM      1  C   UNL     1      -0.820  10.671  22.899  0.00  0.00    +0.000 C 
ATOM      2  N   UNL     1      -0.203   9.948  21.793  0.00  0.00    +0.000 N 
ATOM      3  C   UNL     1       0.962   9.249  22.073  0.00  0.00    +0.000 C 
ATOM      4  O   UNL     1       1.463   9.232  23.198  0.00  0.00    +0.000 OA
ENDROOT
BRANCH   3   5
ATOM      5  C   UNL     1       1.600   8.486  20.968  0.00  0.00    +0.000 C 
ATOM      6  C   UNL     1       1.466   7.151  20.918  0.00  0.00    +0.000 C 
BRANCH   6   7
ATOM      7  C   UNL     1       1.953   6.402  19.813  0.00  0.00    +0.000 A 
ATOM      8  C   UNL     1       2.531   6.727  18.591  0.00  0.00    +0.000 A 
ATOM      9 CL   UNL     1       2.861   8.286  17.973  0.00  0.00    +0.000 Cl
ATOM     10  N   UNL     1       2.792   5.615  17.837  0.00  0.00    +0.000 NA
ATOM     11  C   UNL     1       2.364   4.603  18.555  0.00  0.00    +0.000 A 
ATOM     12  C   UNL     1       2.355   3.210  18.263  0.00  0.00    +0.000 A 
ATOM     13  C   UNL     1       1.861   2.340  19.161  0.00  0.00    +0.000 A 
ATOM     14  C   UNL     1       1.336   2.791  20.439  0.00  0.00    +0.000 A 
ATOM     15  C   UNL     1       1.339   4.106  20.721  0.00  0.00    +0.000 A 
ATOM     16  N   UNL     1       1.839   5.015  19.779  0.00  0.00    +0.000 N 
ENDBRANCH   6   7
ENDBRANCH   3   5
BRANCH   2  17
ATOM     17  C   UNL     1      -0.783  10.159  20.459  0.00  0.00    +0.000 C 
BRANCH  17  18
ATOM     18  C   UNL     1      -0.413  11.441  19.732  0.00  0.00    +0.000 A 
ATOM     19  C   UNL     1       0.668  12.213  20.232  0.00  0.00    +0.000 A 
ATOM     20  C   UNL     1       1.065  13.408  19.642  0.00  0.00    +0.000 A 
ATOM     21  C   UNL     1       0.371  13.878  18.547  0.00  0.00    +0.000 A 
ATOM     22  C   UNL     1      -0.691  13.130  18.033  0.00  0.00    +0.000 A 
ATOM     23  C   UNL     1      -1.105  11.885  18.570  0.00  0.00    +0.000 A 
BRANCH  23  24
ATOM     24  N   UNL     1      -2.095  11.177  17.904  0.00  0.00    +0.000 N 
ATOM     25  C   UNL     1      -1.923  10.074  16.945  0.00  0.00    +0.000 C 
ATOM     26  C   UNL     1      -2.736  10.382  15.674  0.00  0.00    +0.000 C 
ATOM     27  O   UNL     1      -4.130  10.558  15.983  0.00  0.00    +0.000 OA
ATOM     28  C   UNL     1      -4.301  11.636  16.919  0.00  0.00    +0.000 C 
ATOM     29  C   UNL     1      -3.528  11.382  18.225  0.00  0.00    +0.000 C 
ENDBRANCH  23  24
ENDBRANCH  17  18
ENDBRANCH   2  17
TORSDOF 5
ENDMDL
MODEL 2
REMARK VINA RESULT:      -7.6      2.860      4.347
REMARK  Name = 
REMARK  6 active torsions:
REMARK  status: ('A' for Active; 'I' for Inactive)
REMARK    1  A    between atoms: C_1  and  N_2
REMARK    2  A    between atoms: N_2  and  C_3
REMARK    3  A    between atoms: C_3  and  C_4
REMARK    4  A    between atoms: C_9  and  N_10
REMARK    5  A    between atoms: C_16  and  C_18
REMARK    6  A    between atoms: C_19  and  C_20
REMARK                            x       y       z     vdW  Elec       q    Type
REMARK                         _______ _______ _______ _____ _____    ______ ____
ROOT
ATOM      1  C   UNL     1       0.886  12.565  18.491  0.00  0.00    +0.000 C 
ATOM      2  N   UNL     1       0.874  11.110  18.581  0.00  0.00    +0.000 N 
ATOM      3  C   UNL     1       1.937  10.436  17.997  0.00  0.00    +0.000 C 
ATOM      4  O   UNL     1       2.854  11.027  17.426  0.00  0.00    +0.000 OA
ENDROOT
BRANCH   3   5
ATOM      5  C   UNL     1       1.959   8.953  18.093  0.00  0.00    +0.000 C 
ATOM      6  C   UNL     1       3.113   8.292  17.904  0.00  0.00    +0.000 C 
BRANCH   6   7
ATOM      7  C   UNL     1       3.201   6.888  18.110  0.00  0.00    +0.000 A 
ATOM      8  C   UNL     1       2.682   6.005  19.050  0.00  0.00    +0.000 A 
ATOM      9 CL   UNL     1       1.684   6.369  20.387  0.00  0.00    +0.000 Cl
ATOM     10  N   UNL     1       3.107   4.721  18.833  0.00  0.00    +0.000 NA
ATOM     11  C   UNL     1       3.902   4.793  17.791  0.00  0.00    +0.000 A 
ATOM     12  C   UNL     1       4.646   3.773  17.134  0.00  0.00    +0.000 A 
ATOM     13  C   UNL     1       5.406   4.078  16.068  0.00  0.00    +0.000 A 
ATOM     14  C   UNL     1       5.481   5.437  15.559  0.00  0.00    +0.000 A 
ATOM     15  C   UNL     1       4.782   6.406  16.175  0.00  0.00    +0.000 A 
ATOM     16  N   UNL     1       4.003   6.093  17.297  0.00  0.00    +0.000 N 
ENDBRANCH   6   7
ENDBRANCH   3   5
BRANCH   2  17
ATOM     17  C   UNL     1      -0.337  10.492  19.139  0.00  0.00    +0.000 C 
BRANCH  17  18
ATOM     18  C   UNL     1      -0.440  10.398  20.652  0.00  0.00    +0.000 A 
ATOM     19  C   UNL     1       0.211   9.321  21.307  0.00  0.00    +0.000 A 
ATOM     20  C   UNL     1       0.156   9.145  22.686  0.00  0.00    +0.000 A 
ATOM     21  C   UNL     1      -0.576  10.033  23.446  0.00  0.00    +0.000 A 
ATOM     22  C   UNL     1      -1.218  11.106  22.822  0.00  0.00    +0.000 A 
ATOM     23  C   UNL     1      -1.155  11.354  21.428  0.00  0.00    +0.000 A 
BRANCH  23  24
ATOM     24  N   UNL     1      -1.733  12.516  20.939  0.00  0.00    +0.000 N 
ATOM     25  C   UNL     1      -1.189  13.883  20.988  0.00  0.00    +0.000 C 
ATOM     26  C   UNL     1      -2.257  14.828  21.567  0.00  0.00    +0.000 C 
ATOM     27  O   UNL     1      -3.457  14.801  20.775  0.00  0.00    +0.000 OA
ATOM     28  C   UNL     1      -3.992  13.466  20.726  0.00  0.00    +0.000 C 
ATOM     29  C   UNL     1      -2.979  12.470  20.136  0.00  0.00    +0.000 C 
ENDBRANCH  23  24
ENDBRANCH  17  18
ENDBRANCH   2  17
TORSDOF 5
ENDMDL
MODEL 3
REMARK VINA RESULT:      -7.6      3.039      8.615
REMARK  Name = 
REMARK  6 active torsions:
REMARK  status: ('A' for Active; 'I' for Inactive)
REMARK    1  A    between atoms: C_1  and  N_2
REMARK    2  A    between atoms: N_2  and  C_3
REMARK    3  A    between atoms: C_3  and  C_4
REMARK    4  A    between atoms: C_9  and  N_10
REMARK    5  A    between atoms: C_16  and  C_18
REMARK    6  A    between atoms: C_19  and  C_20
REMARK                            x       y       z     vdW  Elec       q    Type
REMARK                         _______ _______ _______ _____ _____    ______ ____
ROOT
ATOM      1  C   UNL     1       3.277   7.260  17.148  0.00  0.00    +0.000 C 
ATOM      2  N   UNL     1       2.680   7.584  18.438  0.00  0.00    +0.000 N 
ATOM      3  C   UNL     1       1.849   8.692  18.485  0.00  0.00    +0.000 C 
ATOM      4  O   UNL     1       1.617   9.381  17.491  0.00  0.00    +0.000 OA
ENDROOT
BRANCH   3   5
ATOM      5  C   UNL     1       1.212   9.032  19.784  0.00  0.00    +0.000 C 
ATOM      6  C   UNL     1       0.768  10.282  20.000  0.00  0.00    +0.000 C 
BRANCH   6   7
ATOM      7  C   UNL     1       0.043  10.614  21.177  0.00  0.00    +0.000 A 
ATOM      8  C   UNL     1       0.130  10.246  22.514  0.00  0.00    +0.000 A 
ATOM      9 CL   UNL     1       1.244   9.165  23.230  0.00  0.00    +0.000 Cl
ATOM     10  N   UNL     1      -0.855  10.824  23.269  0.00  0.00    +0.000 NA
ATOM     11  C   UNL     1      -1.570  11.525  22.422  0.00  0.00    +0.000 A 
ATOM     12  C   UNL     1      -2.735  12.315  22.639  0.00  0.00    +0.000 A 
ATOM     13  C   UNL     1      -3.311  12.958  21.608  0.00  0.00    +0.000 A 
ATOM     14  C   UNL     1      -2.765  12.871  20.264  0.00  0.00    +0.000 A 
ATOM     15  C   UNL     1      -1.666  12.126  20.051  0.00  0.00    +0.000 A 
ATOM     16  N   UNL     1      -1.074  11.442  21.121  0.00  0.00    +0.000 N 
ENDBRANCH   6   7
ENDBRANCH   3   5
BRANCH   2  17
ATOM     17  C   UNL     1       3.142   6.802  19.595  0.00  0.00    +0.000 C 
BRANCH  17  18
ATOM     18  C   UNL     1       2.668   5.363  19.699  0.00  0.00    +0.000 A 
ATOM     19  C   UNL     1       1.389   5.113  20.261  0.00  0.00    +0.000 A 
ATOM     20  C   UNL     1       0.881   3.827  20.413  0.00  0.00    +0.000 A 
ATOM     21  C   UNL     1       1.653   2.751  20.027  0.00  0.00    +0.000 A 
ATOM     22  C   UNL     1       2.912   2.975  19.464  0.00  0.00    +0.000 A 
ATOM     23  C   UNL     1       3.455   4.266  19.247  0.00  0.00    +0.000 A 
BRANCH  23  24
ATOM     24  N   UNL     1       4.662   4.368  18.572  0.00  0.00    +0.000 N 
ATOM     25  C   UNL     1       5.930   4.926  19.071  0.00  0.00    +0.000 C 
ATOM     26  C   UNL     1       6.462   5.952  18.055  0.00  0.00    +0.000 C 
ATOM     27  O   UNL     1       6.661   5.347  16.764  0.00  0.00    +0.000 OA
ATOM     28  C   UNL     1       5.424   4.802  16.273  0.00  0.00    +0.000 C 
ATOM     29  C   UNL     1       4.845   3.751  17.236  0.00  0.00    +0.000 C 
ENDBRANCH  23  24
ENDBRANCH  17  18
ENDBRANCH   2  17
TORSDOF 5
ENDMDL
MODEL 4
REMARK VINA RESULT:      -7.6      2.072      3.110
REMARK  Name = 
REMARK  6 active torsions:
REMARK  status: ('A' for Active; 'I' for Inactive)
REMARK    1  A    between atoms: C_1  and  N_2
REMARK    2  A    between atoms: N_2  and  C_3
REMARK    3  A    between atoms: C_3  and  C_4
REMARK    4  A    between atoms: C_9  and  N_10
REMARK    5  A    between atoms: C_16  and  C_18
REMARK    6  A    between atoms: C_19  and  C_20
REMARK                            x       y       z     vdW  Elec       q    Type
REMARK                         _______ _______ _______ _____ _____    ______ ____
ROOT
ATOM      1  C   UNL     1      -0.912  11.351  22.808  0.00  0.00    +0.000 C 
ATOM      2  N   UNL     1      -0.353  10.655  21.654  0.00  0.00    +0.000 N 
ATOM      3  C   UNL     1       0.165   9.388  21.877  0.00  0.00    +0.000 C 
ATOM      4  O   UNL     1       0.162   8.864  22.990  0.00  0.00    +0.000 OA
ENDROOT
BRANCH   3   5
ATOM      5  C   UNL     1       0.723   8.650  20.713  0.00  0.00    +0.000 C 
ATOM      6  C   UNL     1       1.658   7.706  20.912  0.00  0.00    +0.000 C 
BRANCH   6   7
ATOM      7  C   UNL     1       2.123   6.892  19.843  0.00  0.00    +0.000 A 
ATOM      8  C   UNL     1       2.532   7.136  18.537  0.00  0.00    +0.000 A 
ATOM      9 CL   UNL     1       2.603   8.639  17.727  0.00  0.00    +0.000 Cl
ATOM     10  N   UNL     1       2.855   5.980  17.878  0.00  0.00    +0.000 NA
ATOM     11  C   UNL     1       2.629   5.017  18.741  0.00  0.00    +0.000 A 
ATOM     12  C   UNL     1       2.766   3.607  18.599  0.00  0.00    +0.000 A 
ATOM     13  C   UNL     1       2.474   2.798  19.632  0.00  0.00    +0.000 A 
ATOM     14  C   UNL     1       2.026   3.332  20.906  0.00  0.00    +0.000 A 
ATOM     15  C   UNL     1       1.893   4.663  21.048  0.00  0.00    +0.000 A 
ATOM     16  N   UNL     1       2.180   5.507  19.967  0.00  0.00    +0.000 N 
ENDBRANCH   6   7
ENDBRANCH   3   5
BRANCH   2  17
ATOM     17  C   UNL     1      -0.248  11.424  20.406  0.00  0.00    +0.000 C 
BRANCH  17  18
ATOM     18  C   UNL     1      -1.305  11.177  19.343  0.00  0.00    +0.000 A 
ATOM     19  C   UNL     1      -1.117  10.096  18.443  0.00  0.00    +0.000 A 
ATOM     20  C   UNL     1      -2.023   9.806  17.428  0.00  0.00    +0.000 A 
ATOM     21  C   UNL     1      -3.133  10.609  17.270  0.00  0.00    +0.000 A 
ATOM     22  C   UNL     1      -3.342  11.673  18.151  0.00  0.00    +0.000 A 
ATOM     23  C   UNL     1      -2.473  11.982  19.228  0.00  0.00    +0.000 A 
BRANCH  23  24
ATOM     24  N   UNL     1      -2.846  12.988  20.107  0.00  0.00    +0.000 N 
ATOM     25  C   UNL     1      -2.169  14.273  20.345  0.00  0.00    +0.000 C 
ATOM     26  C   UNL     1      -1.953  14.455  21.858  0.00  0.00    +0.000 C 
ATOM     27  O   UNL     1      -3.204  14.415  22.567  0.00  0.00    +0.000 OA
ATOM     28  C   UNL     1      -3.867  13.160  22.338  0.00  0.00    +0.000 C 
ATOM     29  C   UNL     1      -4.133  12.923  20.841  0.00  0.00    +0.000 C 
ENDBRANCH  23  24
ENDBRANCH  17  18
ENDBRANCH   2  17
TORSDOF 5
ENDMDL
MODEL 5
REMARK VINA RESULT:      -7.5      2.816      8.605
REMARK  Name = 
REMARK  6 active torsions:
REMARK  status: ('A' for Active; 'I' for Inactive)
REMARK    1  A    between atoms: C_1  and  N_2
REMARK    2  A    between atoms: N_2  and  C_3
REMARK    3  A    between atoms: C_3  and  C_4
REMARK    4  A    between atoms: C_9  and  N_10
REMARK    5  A    between atoms: C_16  and  C_18
REMARK    6  A    between atoms: C_19  and  C_20
REMARK                            x       y       z     vdW  Elec       q    Type
REMARK                         _______ _______ _______ _____ _____    ______ ____
ROOT
ATOM      1  C   UNL     1       2.563   5.678  21.068  0.00  0.00    +0.000 C 
ATOM      2  N   UNL     1       2.141   6.723  20.143  0.00  0.00    +0.000 N 
ATOM      3  C   UNL     1       1.528   7.839  20.695  0.00  0.00    +0.000 C 
ATOM      4  O   UNL     1       1.342   7.954  21.907  0.00  0.00    +0.000 OA
ENDROOT
BRANCH   3   5
ATOM      5  C   UNL     1       1.107   8.928  19.775  0.00  0.00    +0.000 C 
ATOM      6  C   UNL     1       0.050   9.693  20.093  0.00  0.00    +0.000 C 
BRANCH   6   7
ATOM      7  C   UNL     1      -0.308  10.822  19.305  0.00  0.00    +0.000 A 
ATOM      8  C   UNL     1      -1.101  11.015  18.180  0.00  0.00    +0.000 A 
ATOM      9 CL   UNL     1      -1.974   9.838  17.302  0.00  0.00    +0.000 Cl
ATOM     10  N   UNL     1      -1.089  12.320  17.766  0.00  0.00    +0.000 NA
ATOM     11  C   UNL     1      -0.283  12.938  18.596  0.00  0.00    +0.000 A 
ATOM     12  C   UNL     1       0.127  14.301  18.633  0.00  0.00    +0.000 A 
ATOM     13  C   UNL     1       0.973  14.722  19.589  0.00  0.00    +0.000 A 
ATOM     14  C   UNL     1       1.480  13.811  20.601  0.00  0.00    +0.000 A 
ATOM     15  C   UNL     1       1.099  12.522  20.572  0.00  0.00    +0.000 A 
ATOM     16  N   UNL     1       0.230  12.078  19.566  0.00  0.00    +0.000 N 
ENDBRANCH   6   7
ENDBRANCH   3   5
BRANCH   2  17
ATOM     17  C   UNL     1       2.260   6.425  18.709  0.00  0.00    +0.000 C 
BRANCH  17  18
ATOM     18  C   UNL     1       2.462   4.972  18.313  0.00  0.00    +0.000 A 
ATOM     19  C   UNL     1       1.356   4.088  18.402  0.00  0.00    +0.000 A 
ATOM     20  C   UNL     1       1.453   2.739  18.077  0.00  0.00    +0.000 A 
ATOM     21  C   UNL     1       2.671   2.231  17.678  0.00  0.00    +0.000 A 
ATOM     22  C   UNL     1       3.771   3.086  17.575  0.00  0.00    +0.000 A 
ATOM     23  C   UNL     1       3.714   4.475  17.850  0.00  0.00    +0.000 A 
BRANCH  23  24
ATOM     24  N   UNL     1       4.840   5.244  17.599  0.00  0.00    +0.000 N 
ATOM     25  C   UNL     1       5.155   6.011  16.383  0.00  0.00    +0.000 C 
ATOM     26  C   UNL     1       6.573   5.642  15.909  0.00  0.00    +0.000 C 
ATOM     27  O   UNL     1       7.547   5.913  16.932  0.00  0.00    +0.000 OA
ATOM     28  C   UNL     1       7.243   5.164  18.121  0.00  0.00    +0.000 C 
ATOM     29  C   UNL     1       5.842   5.501  18.662  0.00  0.00    +0.000 C 
ENDBRANCH  23  24
ENDBRANCH  17  18
ENDBRANCH   2  17
TORSDOF 5
ENDMDL
MODEL 6
REMARK VINA RESULT:      -7.5      1.918      3.199
REMARK  Name = 
REMARK  6 active torsions:
REMARK  status: ('A' for Active; 'I' for Inactive)
REMARK    1  A    between atoms: C_1  and  N_2
REMARK    2  A    between atoms: N_2  and  C_3
REMARK    3  A    between atoms: C_3  and  C_4
REMARK    4  A    between atoms: C_9  and  N_10
REMARK    5  A    between atoms: C_16  and  C_18
REMARK    6  A    between atoms: C_19  and  C_20
REMARK                            x       y       z     vdW  Elec       q    Type
REMARK                         _______ _______ _______ _____ _____    ______ ____
ROOT
ATOM      1  C   UNL     1       0.123  11.084  21.683  0.00  0.00    +0.000 C 
ATOM      2  N   UNL     1       0.567  10.206  20.608  0.00  0.00    +0.000 N 
ATOM      3  C   UNL     1       1.225   9.043  20.979  0.00  0.00    +0.000 C 
ATOM      4  O   UNL     1       1.432   8.754  22.158  0.00  0.00    +0.000 OA
ENDROOT
BRANCH   3   5
ATOM      5  C   UNL     1       1.671   8.120  19.902  0.00  0.00    +0.000 C 
ATOM      6  C   UNL     1       2.197   6.927  20.226  0.00  0.00    +0.000 C 
BRANCH   6   7
ATOM      7  C   UNL     1       2.518   5.968  19.227  0.00  0.00    +0.000 A 
ATOM      8  C   UNL     1       3.249   5.996  18.045  0.00  0.00    +0.000 A 
ATOM      9 CL   UNL     1       4.063   7.329  17.351  0.00  0.00    +0.000 Cl
ATOM     10  N   UNL     1       3.224   4.789  17.400  0.00  0.00    +0.000 NA
ATOM     11  C   UNL     1       2.470   4.016  18.145  0.00  0.00    +0.000 A 
ATOM     12  C   UNL     1       2.073   2.662  17.953  0.00  0.00    +0.000 A 
ATOM     13  C   UNL     1       1.284   2.060  18.860  0.00  0.00    +0.000 A 
ATOM     14  C   UNL     1       0.827   2.762  20.048  0.00  0.00    +0.000 A 
ATOM     15  C   UNL     1       1.197   4.041  20.234  0.00  0.00    +0.000 A 
ATOM     16  N   UNL     1       2.005   4.675  19.282  0.00  0.00    +0.000 N 
ENDBRANCH   6   7
ENDBRANCH   3   5
BRANCH   2  17
ATOM     17  C   UNL     1       0.418  10.712  19.236  0.00  0.00    +0.000 C 
BRANCH  17  18
ATOM     18  C   UNL     1      -0.993  10.831  18.685  0.00  0.00    +0.000 A 
ATOM     19  C   UNL     1      -1.616   9.666  18.168  0.00  0.00    +0.000 A 
ATOM     20  C   UNL     1      -2.898   9.685  17.628  0.00  0.00    +0.000 A 
ATOM     21  C   UNL     1      -3.583  10.880  17.568  0.00  0.00    +0.000 A 
ATOM     22  C   UNL     1      -2.992  12.038  18.079  0.00  0.00    +0.000 A 
ATOM     23  C   UNL     1      -1.707  12.063  18.680  0.00  0.00    +0.000 A 
BRANCH  23  24
ATOM     24  N   UNL     1      -1.274  13.246  19.258  0.00  0.00    +0.000 N 
ATOM     25  C   UNL     1      -0.185  14.126  18.803  0.00  0.00    +0.000 C 
ATOM     26  C   UNL     1       0.757  14.413  19.986  0.00  0.00    +0.000 C 
ATOM     27  O   UNL     1       0.047  15.027  21.075  0.00  0.00    +0.000 OA
ATOM     28  C   UNL     1      -1.018  14.170  21.524  0.00  0.00    +0.000 C 
ATOM     29  C   UNL     1      -2.011  13.858  20.390  0.00  0.00    +0.000 C 
ENDBRANCH  23  24
ENDBRANCH  17  18
ENDBRANCH   2  17
TORSDOF 5
ENDMDL
MODEL 7
REMARK VINA RESULT:      -7.5      2.534      4.272
REMARK  Name = 
REMARK  6 active torsions:
REMARK  status: ('A' for Active; 'I' for Inactive)
REMARK    1  A    between atoms: C_1  and  N_2
REMARK    2  A    between atoms: N_2  and  C_3
REMARK    3  A    between atoms: C_3  and  C_4
REMARK    4  A    between atoms: C_9  and  N_10
REMARK    5  A    between atoms: C_16  and  C_18
REMARK    6  A    between atoms: C_19  and  C_20
REMARK                            x       y       z     vdW  Elec       q    Type
REMARK                         _______ _______ _______ _____ _____    ______ ____
ROOT
ATOM      1  C   UNL     1       0.605   9.984  21.447  0.00  0.00    +0.000 C 
ATOM      2  N   UNL     1       1.102   9.245  20.292  0.00  0.00    +0.000 N 
ATOM      3  C   UNL     1       1.586   7.967  20.527  0.00  0.00    +0.000 C 
ATOM      4  O   UNL     1       1.602   7.467  21.652  0.00  0.00    +0.000 OA
ENDROOT
BRANCH   3   5
ATOM      5  C   UNL     1       2.081   7.184  19.363  0.00  0.00    +0.000 C 
ATOM      6  C   UNL     1       2.600   5.962  19.558  0.00  0.00    +0.000 C 
BRANCH   6   7
ATOM      7  C   UNL     1       2.967   5.133  18.462  0.00  0.00    +0.000 A 
ATOM      8  C   UNL     1       2.474   3.950  17.924  0.00  0.00    +0.000 A 
ATOM      9 CL   UNL     1       1.145   3.027  18.473  0.00  0.00    +0.000 Cl
ATOM     10  N   UNL     1       3.225   3.519  16.864  0.00  0.00    +0.000 NA
ATOM     11  C   UNL     1       4.193   4.397  16.747  0.00  0.00    +0.000 A 
ATOM     12  C   UNL     1       5.283   4.444  15.833  0.00  0.00    +0.000 A 
ATOM     13  C   UNL     1       6.168   5.454  15.897  0.00  0.00    +0.000 A 
ATOM     14  C   UNL     1       6.034   6.514  16.881  0.00  0.00    +0.000 A 
ATOM     15  C   UNL     1       5.008   6.476  17.749  0.00  0.00    +0.000 A 
ATOM     16  N   UNL     1       4.094   5.415  17.695  0.00  0.00    +0.000 N 
ENDBRANCH   6   7
ENDBRANCH   3   5
BRANCH   2  17
ATOM     17  C   UNL     1       1.191   9.983  19.024  0.00  0.00    +0.000 C 
BRANCH  17  18
ATOM     18  C   UNL     1      -0.105  10.507  18.429  0.00  0.00    +0.000 A 
ATOM     19  C   UNL     1      -0.925   9.608  17.700  0.00  0.00    +0.000 A 
ATOM     20  C   UNL     1      -2.119  10.004  17.106  0.00  0.00    +0.000 A 
ATOM     21  C   UNL     1      -2.513  11.322  17.206  0.00  0.00    +0.000 A 
ATOM     22  C   UNL     1      -1.724  12.222  17.927  0.00  0.00    +0.000 A 
ATOM     23  C   UNL     1      -0.524  11.859  18.588  0.00  0.00    +0.000 A 
BRANCH  23  24
ATOM     24  N   UNL     1       0.111  12.810  19.371  0.00  0.00    +0.000 N 
ATOM     25  C   UNL     1       1.478  13.335  19.221  0.00  0.00    +0.000 C 
ATOM     26  C   UNL     1       2.204  13.241  20.575  0.00  0.00    +0.000 C 
ATOM     27  O   UNL     1       1.500  13.977  21.591  0.00  0.00    +0.000 OA
ATOM     28  C   UNL     1       0.164  13.466  21.741  0.00  0.00    +0.000 C 
ATOM     29  C   UNL     1      -0.627  13.548  20.424  0.00  0.00    +0.000 C 
ENDBRANCH  23  24
ENDBRANCH  17  18
ENDBRANCH   2  17
TORSDOF 5
ENDMDL
MODEL 8
REMARK VINA RESULT:      -7.5      2.870      4.427
REMARK  Name = 
REMARK  6 active torsions:
REMARK  status: ('A' for Active; 'I' for Inactive)
REMARK    1  A    between atoms: C_1  and  N_2
REMARK    2  A    between atoms: N_2  and  C_3
REMARK    3  A    between atoms: C_3  and  C_4
REMARK    4  A    between atoms: C_9  and  N_10
REMARK    5  A    between atoms: C_16  and  C_18
REMARK    6  A    between atoms: C_19  and  C_20
REMARK                            x       y       z     vdW  Elec       q    Type
REMARK                         _______ _______ _______ _____ _____    ______ ____
ROOT
ATOM      1  C   UNL     1       0.791  12.502  18.649  0.00  0.00    +0.000 C 
ATOM      2  N   UNL     1       0.824  11.048  18.750  0.00  0.00    +0.000 N 
ATOM      3  C   UNL     1       1.867  10.398  18.106  0.00  0.00    +0.000 C 
ATOM      4  O   UNL     1       2.730  11.008  17.474  0.00  0.00    +0.000 OA
ENDROOT
BRANCH   3   5
ATOM      5  C   UNL     1       1.935   8.916  18.211  0.00  0.00    +0.000 C 
ATOM      6  C   UNL     1       3.067   8.279  17.872  0.00  0.00    +0.000 C 
BRANCH   6   7
ATOM      7  C   UNL     1       3.214   6.879  18.077  0.00  0.00    +0.000 A 
ATOM      8  C   UNL     1       2.737   5.974  19.018  0.00  0.00    +0.000 A 
ATOM      9 CL   UNL     1       1.731   6.296  20.361  0.00  0.00    +0.000 Cl
ATOM     10  N   UNL     1       3.213   4.709  18.798  0.00  0.00    +0.000 NA
ATOM     11  C   UNL     1       3.999   4.815  17.753  0.00  0.00    +0.000 A 
ATOM     12  C   UNL     1       4.782   3.827  17.091  0.00  0.00    +0.000 A 
ATOM     13  C   UNL     1       5.523   4.164  16.021  0.00  0.00    +0.000 A 
ATOM     14  C   UNL     1       5.540   5.525  15.514  0.00  0.00    +0.000 A 
ATOM     15  C   UNL     1       4.804   6.464  16.134  0.00  0.00    +0.000 A 
ATOM     16  N   UNL     1       4.044   6.118  17.259  0.00  0.00    +0.000 N 
ENDBRANCH   6   7
ENDBRANCH   3   5
BRANCH   2  17
ATOM     17  C   UNL     1      -0.333  10.403  19.387  0.00  0.00    +0.000 C 
BRANCH  17  18
ATOM     18  C   UNL     1      -1.703  10.687  18.796  0.00  0.00    +0.000 A 
ATOM     19  C   UNL     1      -2.116   9.942  17.661  0.00  0.00    +0.000 A 
ATOM     20  C   UNL     1      -3.345  10.147  17.043  0.00  0.00    +0.000 A 
ATOM     21  C   UNL     1      -4.187  11.124  17.531  0.00  0.00    +0.000 A 
ATOM     22  C   UNL     1      -3.804  11.864  18.653  0.00  0.00    +0.000 A 
ATOM     23  C   UNL     1      -2.583  11.663  19.345  0.00  0.00    +0.000 A 
BRANCH  23  24
ATOM     24  N   UNL     1      -2.364  12.374  20.515  0.00  0.00    +0.000 N 
ATOM     25  C   UNL     1      -1.902  11.855  21.813  0.00  0.00    +0.000 C 
ATOM     26  C   UNL     1      -2.856  12.344  22.918  0.00  0.00    +0.000 C 
ATOM     27  O   UNL     1      -2.915  13.781  22.952  0.00  0.00    +0.000 OA
ATOM     28  C   UNL     1      -3.367  14.291  21.686  0.00  0.00    +0.000 C 
ATOM     29  C   UNL     1      -2.444  13.855  20.535  0.00  0.00    +0.000 C 
ENDBRANCH  23  24
ENDBRANCH  17  18
ENDBRANCH   2  17
TORSDOF 5
ENDMDL
MODEL 9
REMARK VINA RESULT:      -7.5      2.006      3.045
REMARK  Name = 
REMARK  6 active torsions:
REMARK  status: ('A' for Active; 'I' for Inactive)
REMARK    1  A    between atoms: C_1  and  N_2
REMARK    2  A    between atoms: N_2  and  C_3
REMARK    3  A    between atoms: C_3  and  C_4
REMARK    4  A    between atoms: C_9  and  N_10
REMARK    5  A    between atoms: C_16  and  C_18
REMARK    6  A    between atoms: C_19  and  C_20
REMARK                            x       y       z     vdW  Elec       q    Type
REMARK                         _______ _______ _______ _____ _____    ______ ____
ROOT
ATOM      1  C   UNL     1      -0.060  11.217  22.117  0.00  0.00    +0.000 C 
ATOM      2  N   UNL     1       0.414  10.402  21.005  0.00  0.00    +0.000 N 
ATOM      3  C   UNL     1       0.908   9.144  21.316  0.00  0.00    +0.000 C 
ATOM      4  O   UNL     1       0.950   8.722  22.472  0.00  0.00    +0.000 OA
ENDROOT
BRANCH   3   5
ATOM      5  C   UNL     1       1.379   8.284  20.198  0.00  0.00    +0.000 C 
ATOM      6  C   UNL     1       2.015   7.133  20.468  0.00  0.00    +0.000 C 
BRANCH   6   7
ATOM      7  C   UNL     1       2.368   6.225  19.433  0.00  0.00    +0.000 A 
ATOM      8  C   UNL     1       3.061   6.335  18.232  0.00  0.00    +0.000 A 
ATOM      9 CL   UNL     1       3.766   7.737  17.558  0.00  0.00    +0.000 Cl
ATOM     10  N   UNL     1       3.096   5.147  17.552  0.00  0.00    +0.000 NA
ATOM     11  C   UNL     1       2.415   4.305  18.294  0.00  0.00    +0.000 A 
ATOM     12  C   UNL     1       2.102   2.934  18.073  0.00  0.00    +0.000 A 
ATOM     13  C   UNL     1       1.381   2.256  18.982  0.00  0.00    +0.000 A 
ATOM     14  C   UNL     1       0.914   2.893  20.202  0.00  0.00    +0.000 A 
ATOM     15  C   UNL     1       1.205   4.188  20.417  0.00  0.00    +0.000 A 
ATOM     16  N   UNL     1       1.942   4.901  19.462  0.00  0.00    +0.000 N 
ENDBRANCH   6   7
ENDBRANCH   3   5
BRANCH   2  17
ATOM     17  C   UNL     1       0.472  11.051  19.687  0.00  0.00    +0.000 C 
BRANCH  17  18
ATOM     18  C   UNL     1      -0.784  11.011  18.834  0.00  0.00    +0.000 A 
ATOM     19  C   UNL     1      -0.930   9.956  17.897  0.00  0.00    +0.000 A 
ATOM     20  C   UNL     1      -2.037   9.849  17.062  0.00  0.00    +0.000 A 
ATOM     21  C   UNL     1      -3.020  10.814  17.126  0.00  0.00    +0.000 A 
ATOM     22  C   UNL     1      -2.901  11.858  18.047  0.00  0.00    +0.000 A 
ATOM     23  C   UNL     1      -1.815  11.986  18.950  0.00  0.00    +0.000 A 
BRANCH  23  24
ATOM     24  N   UNL     1      -1.864  12.995  19.899  0.00  0.00    +0.000 N 
ATOM     25  C   UNL     1      -2.814  13.139  21.014  0.00  0.00    +0.000 C 
ATOM     26  C   UNL     1      -3.413  14.557  20.985  0.00  0.00    +0.000 C 
ATOM     27  O   UNL     1      -2.383  15.556  21.079  0.00  0.00    +0.000 OA
ATOM     28  C   UNL     1      -1.454  15.419  19.990  0.00  0.00    +0.000 C 
ATOM     29  C   UNL     1      -0.801  14.026  19.973  0.00  0.00    +0.000 C 
ENDBRANCH  23  24
ENDBRANCH  17  18
ENDBRANCH   2  17
TORSDOF 5
ENDMDL
