MODEL 1
REMARK VINA RESULT:      -6.9      0.000      0.000
REMARK  Name = 
REMARK  6 active torsions:
REMARK  status: ('A' for Active; 'I' for Inactive)
REMARK    1  A    between atoms: C_1  and  C_2
REMARK    2  A    between atoms: C_2  and  C_3
REMARK    3  A    between atoms: C_2  and  N_9
REMARK    4  A    between atoms: C_3  and  N_4
REMARK    5  A    between atoms: N_9  and  C_10
REMARK    6  A    between atoms: C_10  and  C_11
REMARK                            x       y       z     vdW  Elec       q    Type
REMARK                         _______ _______ _______ _____ _____    ______ ____
ROOT
ATOM      1  N   UNL     1       3.338   5.262  20.294  0.00  0.00    +0.000 NA
ATOM      2  H   UNL     1       3.699   4.342  20.035  0.00  0.00    +0.000 HD
ENDROOT
BRANCH   1   4
ATOM      3  C   UNL     1       1.233   6.425  20.715  0.00  0.00    +0.000 C 
ATOM      4  C   UNL     1       1.999   5.105  20.890  0.00  0.00    +0.000 C 
BRANCH   4   5
ATOM      5  C   UNL     1       1.183   3.913  20.348  0.00  0.00    +0.000 C 
BRANCH   5   6
ATOM      6  N   UNL     1       1.898   3.066  19.424  0.00  0.00    +0.000 N 
ATOM      7  C   UNL     1       1.652   2.881  18.096  0.00  0.00    +0.000 A 
ATOM      8  N   UNL     1       2.537   2.056  17.593  0.00  0.00    +0.000 NA
ATOM      9  C   UNL     1       3.328   1.769  18.669  0.00  0.00    +0.000 A 
ATOM     10  N   UNL     1       3.000   2.386  19.806  0.00  0.00    +0.000 NA
ENDBRANCH   5   6
ENDBRANCH   4   5
ENDBRANCH   1   4
BRANCH   1  11
ATOM     11  C   UNL     1       3.372   6.129  19.119  0.00  0.00    +0.000 C 
BRANCH  11  12
ATOM     12  C   UNL     1       4.617   5.829  18.308  0.00  0.00    +0.000 A 
ATOM     13  C   UNL     1       5.697   5.119  18.924  0.00  0.00    +0.000 A 
ATOM     14  C   UNL     1       6.849   4.695  18.232  0.00  0.00    +0.000 A 
ATOM     15  C   UNL     1       6.842   4.989  16.859  0.00  0.00    +0.000 A 
ATOM     16  N   UNL     1       7.741   4.676  15.918  0.00  0.00    +0.000 NA
ATOM     17  O   UNL     1       7.235   5.177  14.729  0.00  0.00    +0.000 OA
ATOM     18  N   UNL     1       6.037   5.843  14.920  0.00  0.00    +0.000 NA
ATOM     19  C   UNL     1       5.758   5.725  16.224  0.00  0.00    +0.000 A 
ATOM     20  C   UNL     1       4.638   6.184  16.937  0.00  0.00    +0.000 A 
ENDBRANCH  11  12
ENDBRANCH   1  11
TORSDOF 5
ENDMDL
MODEL 2
REMARK VINA RESULT:      -6.8      2.838      6.203
REMARK  Name = 
REMARK  6 active torsions:
REMARK  status: ('A' for Active; 'I' for Inactive)
REMARK    1  A    between atoms: C_1  and  C_2
REMARK    2  A    between atoms: C_2  and  C_3
REMARK    3  A    between atoms: C_2  and  N_9
REMARK    4  A    between atoms: C_3  and  N_4
REMARK    5  A    between atoms: N_9  and  C_10
REMARK    6  A    between atoms: C_10  and  C_11
REMARK                            x       y       z     vdW  Elec       q    Type
REMARK                         _______ _______ _______ _____ _____    ______ ____
ROOT
ATOM      1  N   UNL     1       5.422   3.503  16.514  0.00  0.00    +0.000 NA
ATOM      2  H   UNL     1       6.022   3.559  17.338  0.00  0.00    +0.000 HD
ENDROOT
BRANCH   1   4
ATOM      3  C   UNL     1       5.286   4.118  14.155  0.00  0.00    +0.000 C 
ATOM      4  C   UNL     1       6.232   3.749  15.308  0.00  0.00    +0.000 C 
BRANCH   4   5
ATOM      5  C   UNL     1       7.342   4.807  15.477  0.00  0.00    +0.000 C 
BRANCH   5   6
ATOM      6  N   UNL     1       7.485   5.320  16.818  0.00  0.00    +0.000 N 
ATOM      7  C   UNL     1       7.257   6.589  17.258  0.00  0.00    +0.000 A 
ATOM      8  N   UNL     1       7.471   6.655  18.549  0.00  0.00    +0.000 NA
ATOM      9  C   UNL     1       7.820   5.373  18.862  0.00  0.00    +0.000 A 
ATOM     10  N   UNL     1       7.813   4.509  17.846  0.00  0.00    +0.000 NA
ENDBRANCH   5   6
ENDBRANCH   4   5
ENDBRANCH   1   4
BRANCH   1  11
ATOM     11  C   UNL     1       4.303   4.429  16.683  0.00  0.00    +0.000 C 
BRANCH  11  12
ATOM     12  C   UNL     1       3.693   4.235  18.056  0.00  0.00    +0.000 A 
ATOM     13  C   UNL     1       2.460   4.891  18.371  0.00  0.00    +0.000 A 
ATOM     14  C   UNL     1       1.754   4.692  19.574  0.00  0.00    +0.000 A 
ATOM     15  C   UNL     1       2.338   3.755  20.442  0.00  0.00    +0.000 A 
ATOM     16  N   UNL     1       1.898   3.297  21.620  0.00  0.00    +0.000 NA
ATOM     17  O   UNL     1       2.836   2.366  22.039  0.00  0.00    +0.000 OA
ATOM     18  N   UNL     1       3.891   2.262  21.149  0.00  0.00    +0.000 NA
ATOM     19  C   UNL     1       3.600   3.094  20.141  0.00  0.00    +0.000 A 
ATOM     20  C   UNL     1       4.318   3.339  18.958  0.00  0.00    +0.000 A 
ENDBRANCH  11  12
ENDBRANCH   1  11
TORSDOF 5
ENDMDL
MODEL 3
REMARK VINA RESULT:      -6.8      2.968      6.423
REMARK  Name = 
REMARK  6 active torsions:
REMARK  status: ('A' for Active; 'I' for Inactive)
REMARK    1  A    between atoms: C_1  and  C_2
REMARK    2  A    between atoms: C_2  and  C_3
REMARK    3  A    between atoms: C_2  and  N_9
REMARK    4  A    between atoms: C_3  and  N_4
REMARK    5  A    between atoms: N_9  and  C_10
REMARK    6  A    between atoms: C_10  and  C_11
REMARK                            x       y       z     vdW  Elec       q    Type
REMARK                         _______ _______ _______ _____ _____    ______ ____
ROOT
ATOM      1  N   UNL     1       4.747   4.688  16.628  0.00  0.00    +0.000 NA
ATOM      2  H   UNL     1       4.574   5.624  16.259  0.00  0.00    +0.000 HD
ENDROOT
BRANCH   1   4
ATOM      3  C   UNL     1       5.653   4.527  14.367  0.00  0.00    +0.000 C 
ATOM      4  C   UNL     1       5.786   4.031  15.815  0.00  0.00    +0.000 C 
BRANCH   4   5
ATOM      5  C   UNL     1       7.227   4.212  16.335  0.00  0.00    +0.000 C 
BRANCH   5   6
ATOM      6  N   UNL     1       7.439   5.404  17.120  0.00  0.00    +0.000 N 
ATOM      7  C   UNL     1       7.750   5.491  18.444  0.00  0.00    +0.000 A 
ATOM      8  N   UNL     1       7.890   6.748  18.784  0.00  0.00    +0.000 NA
ATOM      9  C   UNL     1       7.664   7.405  17.608  0.00  0.00    +0.000 A 
ATOM     10  N   UNL     1       7.417   6.629  16.553  0.00  0.00    +0.000 NA
ENDBRANCH   5   6
ENDBRANCH   4   5
ENDBRANCH   1   4
BRANCH   1  11
ATOM     11  C   UNL     1       3.480   3.961  16.682  0.00  0.00    +0.000 C 
BRANCH  11  12
ATOM     12  C   UNL     1       3.048   3.811  18.127  0.00  0.00    +0.000 A 
ATOM     13  C   UNL     1       1.791   4.358  18.540  0.00  0.00    +0.000 A 
ATOM     14  C   UNL     1       1.247   4.180  19.827  0.00  0.00    +0.000 A 
ATOM     15  C   UNL     1       2.022   3.377  20.679  0.00  0.00    +0.000 A 
ATOM     16  N   UNL     1       1.766   2.967  21.927  0.00  0.00    +0.000 NA
ATOM     17  O   UNL     1       2.841   2.172  22.293  0.00  0.00    +0.000 OA
ATOM     18  N   UNL     1       3.798   2.110  21.295  0.00  0.00    +0.000 NA
ATOM     19  C   UNL     1       3.309   2.828  20.276  0.00  0.00    +0.000 A 
ATOM     20  C   UNL     1       3.862   3.055  19.005  0.00  0.00    +0.000 A 
ENDBRANCH  11  12
ENDBRANCH   1  11
TORSDOF 5
ENDMDL
MODEL 4
REMARK VINA RESULT:      -6.7      1.025      1.790
REMARK  Name = 
REMARK  6 active torsions:
REMARK  status: ('A' for Active; 'I' for Inactive)
REMARK    1  A    between atoms: C_1  and  C_2
REMARK    2  A    between atoms: C_2  and  C_3
REMARK    3  A    between atoms: C_2  and  N_9
REMARK    4  A    between atoms: C_3  and  N_4
REMARK    5  A    between atoms: N_9  and  C_10
REMARK    6  A    between atoms: C_10  and  C_11
REMARK                            x       y       z     vdW  Elec       q    Type
REMARK                         _______ _______ _______ _____ _____    ______ ____
ROOT
ATOM      1  N   UNL     1       3.109   5.605  20.278  0.00  0.00    +0.000 NA
ATOM      2  H   UNL     1       3.502   4.713  19.974  0.00  0.00    +0.000 HD
ENDROOT
BRANCH   1   4
ATOM      3  C   UNL     1       1.020   6.693  20.924  0.00  0.00    +0.000 C 
ATOM      4  C   UNL     1       1.796   5.367  20.903  0.00  0.00    +0.000 C 
BRANCH   4   5
ATOM      5  C   UNL     1       0.961   4.244  20.251  0.00  0.00    +0.000 C 
BRANCH   5   6
ATOM      6  N   UNL     1       1.699   3.390  19.354  0.00  0.00    +0.000 N 
ATOM      7  C   UNL     1       2.499   2.333  19.672  0.00  0.00    +0.000 A 
ATOM      8  N   UNL     1       2.972   1.790  18.577  0.00  0.00    +0.000 NA
ATOM      9  C   UNL     1       2.411   2.555  17.595  0.00  0.00    +0.000 A 
ATOM     10  N   UNL     1       1.598   3.526  18.015  0.00  0.00    +0.000 NA
ENDBRANCH   5   6
ENDBRANCH   4   5
ENDBRANCH   1   4
BRANCH   1  11
ATOM     11  C   UNL     1       3.071   6.515  19.135  0.00  0.00    +0.000 C 
BRANCH  11  12
ATOM     12  C   UNL     1       4.155   6.130  18.149  0.00  0.00    +0.000 A 
ATOM     13  C   UNL     1       4.191   6.766  16.867  0.00  0.00    +0.000 A 
ATOM     14  C   UNL     1       5.216   6.562  15.921  0.00  0.00    +0.000 A 
ATOM     15  C   UNL     1       6.240   5.704  16.353  0.00  0.00    +0.000 A 
ATOM     16  N   UNL     1       7.373   5.353  15.732  0.00  0.00    +0.000 NA
ATOM     17  O   UNL     1       8.041   4.512  16.609  0.00  0.00    +0.000 OA
ATOM     18  N   UNL     1       7.316   4.297  17.768  0.00  0.00    +0.000 NA
ATOM     19  C   UNL     1       6.207   5.038  17.647  0.00  0.00    +0.000 A 
ATOM     20  C   UNL     1       5.153   5.214  18.560  0.00  0.00    +0.000 A 
ENDBRANCH  11  12
ENDBRANCH   1  11
TORSDOF 5
ENDMDL
MODEL 5
REMARK VINA RESULT:      -6.7      2.759      6.108
REMARK  Name = 
REMARK  6 active torsions:
REMARK  status: ('A' for Active; 'I' for Inactive)
REMARK    1  A    between atoms: C_1  and  C_2
REMARK    2  A    between atoms: C_2  and  C_3
REMARK    3  A    between atoms: C_2  and  N_9
REMARK    4  A    between atoms: C_3  and  N_4
REMARK    5  A    between atoms: N_9  and  C_10
REMARK    6  A    between atoms: C_10  and  C_11
REMARK                            x       y       z     vdW  Elec       q    Type
REMARK                         _______ _______ _______ _____ _____    ______ ____
ROOT
ATOM      1  N   UNL     1       5.487   6.096  18.303  0.00  0.00    +0.000 NA
ATOM      2  H   UNL     1       5.363   7.025  18.709  0.00  0.00    +0.000 HD
ENDROOT
BRANCH   1   4
ATOM      3  C   UNL     1       7.871   6.583  18.511  0.00  0.00    +0.000 C 
ATOM      4  C   UNL     1       6.771   6.053  17.580  0.00  0.00    +0.000 C 
BRANCH   4   5
ATOM      5  C   UNL     1       7.146   4.668  17.008  0.00  0.00    +0.000 C 
BRANCH   5   6
ATOM      6  N   UNL     1       6.975   4.540  15.582  0.00  0.00    +0.000 N 
ATOM      7  C   UNL     1       6.123   3.713  14.912  0.00  0.00    +0.000 A 
ATOM      8  N   UNL     1       6.240   3.909  13.621  0.00  0.00    +0.000 NA
ATOM      9  C   UNL     1       7.183   4.894  13.550  0.00  0.00    +0.000 A 
ATOM     10  N   UNL     1       7.640   5.339  14.722  0.00  0.00    +0.000 NA
ENDBRANCH   5   6
ENDBRANCH   4   5
ENDBRANCH   1   4
BRANCH   1  11
ATOM     11  C   UNL     1       4.323   5.786  17.476  0.00  0.00    +0.000 C 
BRANCH  11  12
ATOM     12  C   UNL     1       3.304   5.031  18.305  0.00  0.00    +0.000 A 
ATOM     13  C   UNL     1       2.308   4.244  17.642  0.00  0.00    +0.000 A 
ATOM     14  C   UNL     1       1.386   3.421  18.316  0.00  0.00    +0.000 A 
ATOM     15  C   UNL     1       1.543   3.395  19.711  0.00  0.00    +0.000 A 
ATOM     16  N   UNL     1       0.881   2.680  20.628  0.00  0.00    +0.000 NA
ATOM     17  O   UNL     1       1.451   3.008  21.849  0.00  0.00    +0.000 OA
ATOM     18  N   UNL     1       2.446   3.960  21.713  0.00  0.00    +0.000 NA
ATOM     19  C   UNL     1       2.540   4.204  20.399  0.00  0.00    +0.000 A 
ATOM     20  C   UNL     1       3.422   5.058  19.716  0.00  0.00    +0.000 A 
ENDBRANCH  11  12
ENDBRANCH   1  11
TORSDOF 5
ENDMDL
MODEL 6
REMARK VINA RESULT:      -6.7      1.534      2.775
REMARK  Name = 
REMARK  6 active torsions:
REMARK  status: ('A' for Active; 'I' for Inactive)
REMARK    1  A    between atoms: C_1  and  C_2
REMARK    2  A    between atoms: C_2  and  C_3
REMARK    3  A    between atoms: C_2  and  N_9
REMARK    4  A    between atoms: C_3  and  N_4
REMARK    5  A    between atoms: N_9  and  C_10
REMARK    6  A    between atoms: C_10  and  C_11
REMARK                            x       y       z     vdW  Elec       q    Type
REMARK                         _______ _______ _______ _____ _____    ______ ____
ROOT
ATOM      1  N   UNL     1       3.347   2.555  18.997  0.00  0.00    +0.000 NA
ATOM      2  H   UNL     1       3.170   3.113  18.160  0.00  0.00    +0.000 HD
ENDROOT
BRANCH   1   4
ATOM      3  C   UNL     1       2.603   2.648  21.321  0.00  0.00    +0.000 C 
ATOM      4  C   UNL     1       2.149   2.577  19.855  0.00  0.00    +0.000 C 
BRANCH   4   5
ATOM      5  C   UNL     1       1.141   3.700  19.530  0.00  0.00    +0.000 C 
BRANCH   5   6
ATOM      6  N   UNL     1       1.738   4.982  19.248  0.00  0.00    +0.000 N 
ATOM      7  C   UNL     1       2.094   5.954  20.135  0.00  0.00    +0.000 A 
ATOM      8  N   UNL     1       2.633   6.962  19.494  0.00  0.00    +0.000 NA
ATOM      9  C   UNL     1       2.597   6.546  18.194  0.00  0.00    +0.000 A 
ATOM     10  N   UNL     1       2.090   5.329  17.992  0.00  0.00    +0.000 NA
ENDBRANCH   5   6
ENDBRANCH   4   5
ENDBRANCH   1   4
BRANCH   1  11
ATOM     11  C   UNL     1       4.558   3.052  19.646  0.00  0.00    +0.000 C 
BRANCH  11  12
ATOM     12  C   UNL     1       5.271   4.011  18.714  0.00  0.00    +0.000 A 
ATOM     13  C   UNL     1       5.957   5.141  19.265  0.00  0.00    +0.000 A 
ATOM     14  C   UNL     1       6.739   6.029  18.501  0.00  0.00    +0.000 A 
ATOM     15  C   UNL     1       6.833   5.696  17.140  0.00  0.00    +0.000 A 
ATOM     16  N   UNL     1       7.535   6.288  16.167  0.00  0.00    +0.000 NA
ATOM     17  O   UNL     1       7.299   5.542  15.023  0.00  0.00    +0.000 OA
ATOM     18  N   UNL     1       6.416   4.503  15.258  0.00  0.00    +0.000 NA
ATOM     19  C   UNL     1       6.126   4.560  16.564  0.00  0.00    +0.000 A 
ATOM     20  C   UNL     1       5.310   3.712  17.331  0.00  0.00    +0.000 A 
ENDBRANCH  11  12
ENDBRANCH   1  11
TORSDOF 5
ENDMDL
MODEL 7
REMARK VINA RESULT:      -6.7      2.657      5.921
REMARK  Name = 
REMARK  6 active torsions:
REMARK  status: ('A' for Active; 'I' for Inactive)
REMARK    1  A    between atoms: C_1  and  C_2
REMARK    2  A    between atoms: C_2  and  C_3
REMARK    3  A    between atoms: C_2  and  N_9
REMARK    4  A    between atoms: C_3  and  N_4
REMARK    5  A    between atoms: N_9  and  C_10
REMARK    6  A    between atoms: C_10  and  C_11
REMARK                            x       y       z     vdW  Elec       q    Type
REMARK                         _______ _______ _______ _____ _____    ______ ____
ROOT
ATOM      1  N   UNL     1       5.406   6.859  17.838  0.00  0.00    +0.000 NA
ATOM      2  H   UNL     1       5.283   7.846  18.069  0.00  0.00    +0.000 HD
ENDROOT
BRANCH   1   4
ATOM      3  C   UNL     1       7.778   7.434  17.878  0.00  0.00    +0.000 C 
ATOM      4  C   UNL     1       6.677   6.686  17.112  0.00  0.00    +0.000 C 
BRANCH   4   5
ATOM      5  C   UNL     1       7.079   5.219  16.850  0.00  0.00    +0.000 C 
BRANCH   5   6
ATOM      6  N   UNL     1       6.933   4.790  15.481  0.00  0.00    +0.000 N 
ATOM      7  C   UNL     1       6.094   3.836  14.988  0.00  0.00    +0.000 A 
ATOM      8  N   UNL     1       6.232   3.753  13.688  0.00  0.00    +0.000 NA
ATOM      9  C   UNL     1       7.175   4.706  13.425  0.00  0.00    +0.000 A 
ATOM     10  N   UNL     1       7.612   5.392  14.482  0.00  0.00    +0.000 NA
ENDBRANCH   5   6
ENDBRANCH   4   5
ENDBRANCH   1   4
BRANCH   1  11
ATOM     11  C   UNL     1       4.229   6.398  17.104  0.00  0.00    +0.000 C 
BRANCH  11  12
ATOM     12  C   UNL     1       3.362   5.559  18.020  0.00  0.00    +0.000 A 
ATOM     13  C   UNL     1       3.091   6.025  19.346  0.00  0.00    +0.000 A 
ATOM     14  C   UNL     1       2.212   5.379  20.238  0.00  0.00    +0.000 A 
ATOM     15  C   UNL     1       1.577   4.245  19.707  0.00  0.00    +0.000 A 
ATOM     16  N   UNL     1       0.653   3.451  20.260  0.00  0.00    +0.000 NA
ATOM     17  O   UNL     1       0.344   2.502  19.298  0.00  0.00    +0.000 OA
ATOM     18  N   UNL     1       1.099   2.667  18.151  0.00  0.00    +0.000 NA
ATOM     19  C   UNL     1       1.856   3.750  18.366  0.00  0.00    +0.000 A 
ATOM     20  C   UNL     1       2.773   4.378  17.505  0.00  0.00    +0.000 A 
ENDBRANCH  11  12
ENDBRANCH   1  11
TORSDOF 5
ENDMDL
MODEL 8
REMARK VINA RESULT:      -6.5      2.140      3.825
REMARK  Name = 
REMARK  6 active torsions:
REMARK  status: ('A' for Active; 'I' for Inactive)
REMARK    1  A    between atoms: C_1  and  C_2
REMARK    2  A    between atoms: C_2  and  C_3
REMARK    3  A    between atoms: C_2  and  N_9
REMARK    4  A    between atoms: C_3  and  N_4
REMARK    5  A    between atoms: N_9  and  C_10
REMARK    6  A    between atoms: C_10  and  C_11
REMARK                            x       y       z     vdW  Elec       q    Type
REMARK                         _______ _______ _______ _____ _____    ______ ____
ROOT
ATOM      1  N   UNL     1       1.735   4.165  18.447  0.00  0.00    +0.000 NA
ATOM      2  H   UNL     1       2.166   5.056  18.192  0.00  0.00    +0.000 HD
ENDROOT
BRANCH   1   4
ATOM      3  C   UNL     1       1.323   2.864  20.471  0.00  0.00    +0.000 C 
ATOM      4  C   UNL     1       1.220   4.253  19.825  0.00  0.00    +0.000 C 
BRANCH   4   5
ATOM      5  C   UNL     1       1.898   5.327  20.703  0.00  0.00    +0.000 C 
BRANCH   5   6
ATOM      6  N   UNL     1       1.845   6.664  20.166  0.00  0.00    +0.000 N 
ATOM      7  C   UNL     1       1.312   7.778  20.744  0.00  0.00    +0.000 A 
ATOM      8  N   UNL     1       1.483   8.810  19.956  0.00  0.00    +0.000 NA
ATOM      9  C   UNL     1       2.151   8.272  18.894  0.00  0.00    +0.000 A 
ATOM     10  N   UNL     1       2.427   6.970  18.987  0.00  0.00    +0.000 NA
ENDBRANCH   5   6
ENDBRANCH   4   5
ENDBRANCH   1   4
BRANCH   1  11
ATOM     11  C   UNL     1       2.708   3.095  18.239  0.00  0.00    +0.000 C 
BRANCH  11  12
ATOM     12  C   UNL     1       4.078   3.699  18.004  0.00  0.00    +0.000 A 
ATOM     13  C   UNL     1       4.515   3.937  16.662  0.00  0.00    +0.000 A 
ATOM     14  C   UNL     1       5.720   4.592  16.337  0.00  0.00    +0.000 A 
ATOM     15  C   UNL     1       6.455   5.039  17.447  0.00  0.00    +0.000 A 
ATOM     16  N   UNL     1       7.595   5.738  17.486  0.00  0.00    +0.000 NA
ATOM     17  O   UNL     1       7.870   5.940  18.830  0.00  0.00    +0.000 OA
ATOM     18  N   UNL     1       6.929   5.335  19.644  0.00  0.00    +0.000 NA
ATOM     19  C   UNL     1       6.029   4.787  18.817  0.00  0.00    +0.000 A 
ATOM     20  C   UNL     1       4.849   4.090  19.125  0.00  0.00    +0.000 A 
ENDBRANCH  11  12
ENDBRANCH   1  11
TORSDOF 5
ENDMDL
MODEL 9
REMARK VINA RESULT:      -6.4      0.874      1.085
REMARK  Name = 
REMARK  6 active torsions:
REMARK  status: ('A' for Active; 'I' for Inactive)
REMARK    1  A    between atoms: C_1  and  C_2
REMARK    2  A    between atoms: C_2  and  C_3
REMARK    3  A    between atoms: C_2  and  N_9
REMARK    4  A    between atoms: C_3  and  N_4
REMARK    5  A    between atoms: N_9  and  C_10
REMARK    6  A    between atoms: C_10  and  C_11
REMARK                            x       y       z     vdW  Elec       q    Type
REMARK                         _______ _______ _______ _____ _____    ______ ____
ROOT
ATOM      1  N   UNL     1       2.344   5.744  18.866  0.00  0.00    +0.000 NA
ATOM      2  H   UNL     1       1.385   5.923  18.563  0.00  0.00    +0.000 HD
ENDROOT
BRANCH   1   4
ATOM      3  C   UNL     1       1.188   6.298  20.944  0.00  0.00    +0.000 C 
ATOM      4  C   UNL     1       2.357   5.520  20.323  0.00  0.00    +0.000 C 
BRANCH   4   5
ATOM      5  C   UNL     1       2.328   4.037  20.750  0.00  0.00    +0.000 C 
BRANCH   5   6
ATOM      6  N   UNL     1       2.615   3.100  19.692  0.00  0.00    +0.000 N 
ATOM      7  C   UNL     1       3.716   2.311  19.547  0.00  0.00    +0.000 A 
ATOM      8  N   UNL     1       3.595   1.574  18.471  0.00  0.00    +0.000 NA
ATOM      9  C   UNL     1       2.372   1.944  17.989  0.00  0.00    +0.000 A 
ATOM     10  N   UNL     1       1.717   2.850  18.716  0.00  0.00    +0.000 NA
ENDBRANCH   5   6
ENDBRANCH   4   5
ENDBRANCH   1   4
BRANCH   1  11
ATOM     11  C   UNL     1       3.191   6.850  18.423  0.00  0.00    +0.000 C 
BRANCH  11  12
ATOM     12  C   UNL     1       4.507   6.301  17.911  0.00  0.00    +0.000 A 
ATOM     13  C   UNL     1       5.356   5.573  18.805  0.00  0.00    +0.000 A 
ATOM     14  C   UNL     1       6.544   4.930  18.406  0.00  0.00    +0.000 A 
ATOM     15  C   UNL     1       6.820   5.021  17.032  0.00  0.00    +0.000 A 
ATOM     16  N   UNL     1       7.820   4.479  16.328  0.00  0.00    +0.000 NA
ATOM     17  O   UNL     1       7.604   4.855  15.011  0.00  0.00    +0.000 OA
ATOM     18  N   UNL     1       6.492   5.669  14.884  0.00  0.00    +0.000 NA
ATOM     19  C   UNL     1       5.974   5.772  16.115  0.00  0.00    +0.000 A 
ATOM     20  C   UNL     1       4.818   6.450  16.537  0.00  0.00    +0.000 A 
ENDBRANCH  11  12
ENDBRANCH   1  11
TORSDOF 5
ENDMDL
