MODEL 1
REMARK VINA RESULT:      -6.4      0.000      0.000
REMARK  Name = 
REMARK  10 active torsions:
REMARK  status: ('A' for Active; 'I' for Inactive)
REMARK    1  A    between atoms: C_2  and  C_3
REMARK    2  A    between atoms: C_3  and  N_4
REMARK    3  A    between atoms: N_9  and  C_10
REMARK    4  A    between atoms: C_10  and  C_11
REMARK    5  A    between atoms: C_15  and  C_16
REMARK    6  A    between atoms: C_16  and  C_18
REMARK    7  A    between atoms: C_18  and  C_19
REMARK    8  A    between atoms: C_27  and  C_28
REMARK    9  A    between atoms: C_28  and  C_30
REMARK   10  A    between atoms: C_30  and  C_31
REMARK                            x       y       z     vdW  Elec       q    Type
REMARK                         _______ _______ _______ _____ _____    ______ ____
ROOT
ATOM      1  N   UNL     1       2.025  13.183  18.920  0.00  0.00    +0.000 NA
ATOM      2  C   UNL     1       2.091  13.706  20.307  0.00  0.00    +0.000 C 
ATOM      3  C   UNL     1       1.006  12.838  21.172  0.00  0.00    +0.000 C 
ATOM      4  C   UNL     1       0.426  11.398  20.813  0.00  0.00    +0.000 C 
ATOM      5  C   UNL     1      -0.695  10.965  21.839  0.00  0.00    +0.000 C 
ATOM      6  N   UNL     1      -1.845  11.873  21.814  0.00  0.00    +0.000 NA
ATOM      7  C   UNL     1      -1.672  12.785  20.697  0.00  0.00    +0.000 C 
ATOM      8  C   UNL     1      -1.536  11.796  19.462  0.00  0.00    +0.000 C 
ATOM      9  C   UNL     1      -0.017  11.545  19.331  0.00  0.00    +0.000 C 
ATOM     10  C   UNL     1       0.592  12.875  18.649  0.00  0.00    +0.000 C 
ATOM     11  C   UNL     1      -0.207  14.082  19.244  0.00  0.00    +0.000 C 
ATOM     12  C   UNL     1      -0.338  13.676  20.745  0.00  0.00    +0.000 C 
ENDROOT
BRANCH   9  13
ATOM     13  C   UNL     1       0.276  10.354  18.419  0.00  0.00    +0.000 C 
ATOM     14  O   UNL     1      -0.641   9.788  17.817  0.00  0.00    +0.000 OA
BRANCH  13  15
ATOM     15  C   UNL     1       1.723   9.926  18.185  0.00  0.00    +0.000 C 
BRANCH  15  16
ATOM     16  C   UNL     1       1.990   8.556  18.755  0.00  0.00    +0.000 A 
ATOM     17  C   UNL     1       2.499   7.535  17.941  0.00  0.00    +0.000 A 
ATOM     18  C   UNL     1       2.606   6.232  18.413  0.00  0.00    +0.000 A 
ATOM     19  C   UNL     1       2.185   5.933  19.711  0.00  0.00    +0.000 A 
ATOM     20  C   UNL     1       1.729   6.948  20.546  0.00  0.00    +0.000 A 
ATOM     21  C   UNL     1       1.655   8.253  20.080  0.00  0.00    +0.000 A 
ENDBRANCH  15  16
ENDBRANCH  13  15
ENDBRANCH   9  13
BRANCH  12  22
ATOM     22  C   UNL     1      -0.329  14.692  21.926  0.00  0.00    +0.000 C 
ATOM     23  O   UNL     1       0.316  14.368  22.944  0.00  0.00    +0.000 OA
BRANCH  22  24
ATOM     24  C   UNL     1      -0.970  16.067  21.954  0.00  0.00    +0.000 C 
BRANCH  24  25
ATOM     25  C   UNL     1      -2.298  16.087  22.726  0.00  0.00    +0.000 A 
ATOM     26  C   UNL     1      -2.313  16.167  24.124  0.00  0.00    +0.000 A 
ATOM     27  C   UNL     1      -3.521  16.145  24.838  0.00  0.00    +0.000 A 
ATOM     28  C   UNL     1      -4.737  16.049  24.172  0.00  0.00    +0.000 A 
ATOM     29  C   UNL     1      -4.755  16.014  22.783  0.00  0.00    +0.000 A 
ATOM     30  C   UNL     1      -3.548  16.050  22.071  0.00  0.00    +0.000 A 
ENDBRANCH  24  25
ENDBRANCH  22  24
ENDBRANCH  12  22
BRANCH   1  31
ATOM     31  C   UNL     1       2.501  14.105  17.862  0.00  0.00    +0.000 C 
BRANCH  31  33
ATOM     32  C   UNL     1       5.005  14.725  17.953  0.00  0.00    +0.000 C 
ATOM     33  C   UNL     1       3.718  15.011  18.028  0.00  0.00    +0.000 C 
ENDBRANCH  31  33
ENDBRANCH   1  31
BRANCH   6  34
ATOM     34  C   UNL     1      -2.224  12.366  23.135  0.00  0.00    +0.000 C 
BRANCH  34  35
ATOM     35  C   UNL     1      -3.700  12.530  23.397  0.00  0.00    +0.000 C 
ATOM     36  C   UNL     1      -4.231  12.454  24.627  0.00  0.00    +0.000 C 
ENDBRANCH  34  35
ENDBRANCH   6  34
TORSDOF 10
ENDMDL
MODEL 2
REMARK VINA RESULT:      -6.4      2.226      4.295
REMARK  Name = 
REMARK  10 active torsions:
REMARK  status: ('A' for Active; 'I' for Inactive)
REMARK    1  A    between atoms: C_2  and  C_3
REMARK    2  A    between atoms: C_3  and  N_4
REMARK    3  A    between atoms: N_9  and  C_10
REMARK    4  A    between atoms: C_10  and  C_11
REMARK    5  A    between atoms: C_15  and  C_16
REMARK    6  A    between atoms: C_16  and  C_18
REMARK    7  A    between atoms: C_18  and  C_19
REMARK    8  A    between atoms: C_27  and  C_28
REMARK    9  A    between atoms: C_28  and  C_30
REMARK   10  A    between atoms: C_30  and  C_31
REMARK                            x       y       z     vdW  Elec       q    Type
REMARK                         _______ _______ _______ _____ _____    ______ ____
ROOT
ATOM      1  N   UNL     1      -1.364  10.735  17.690  0.00  0.00    +0.000 NA
ATOM      2  C   UNL     1      -1.498  12.207  17.810  0.00  0.00    +0.000 C 
ATOM      3  C   UNL     1      -0.157  12.723  18.595  0.00  0.00    +0.000 C 
ATOM      4  C   UNL     1       1.241  11.965  18.703  0.00  0.00    +0.000 C 
ATOM      5  C   UNL     1       2.234  12.740  19.656  0.00  0.00    +0.000 C 
ATOM      6  N   UNL     1       1.724  12.829  21.027  0.00  0.00    +0.000 NA
ATOM      7  C   UNL     1       0.541  11.994  21.121  0.00  0.00    +0.000 C 
ATOM      8  C   UNL     1       1.084  10.572  20.670  0.00  0.00    +0.000 C 
ATOM      9  C   UNL     1       0.841  10.530  19.144  0.00  0.00    +0.000 C 
ATOM     10  C   UNL     1      -0.739  10.259  18.957  0.00  0.00    +0.000 C 
ATOM     11  C   UNL     1      -1.461  11.054  20.095  0.00  0.00    +0.000 C 
ATOM     12  C   UNL     1      -0.652  12.389  20.122  0.00  0.00    +0.000 C 
ENDROOT
BRANCH   9  13
ATOM     13  C   UNL     1       1.611   9.385  18.486  0.00  0.00    +0.000 C 
ATOM     14  O   UNL     1       1.986   9.476  17.314  0.00  0.00    +0.000 OA
BRANCH  13  15
ATOM     15  C   UNL     1       1.995   8.164  19.319  0.00  0.00    +0.000 C 
BRANCH  15  16
ATOM     16  C   UNL     1       2.644   7.101  18.468  0.00  0.00    +0.000 A 
ATOM     17  C   UNL     1       2.092   5.816  18.394  0.00  0.00    +0.000 A 
ATOM     18  C   UNL     1       2.759   4.788  17.738  0.00  0.00    +0.000 A 
ATOM     19  C   UNL     1       4.006   5.037  17.160  0.00  0.00    +0.000 A 
ATOM     20  C   UNL     1       4.539   6.321  17.179  0.00  0.00    +0.000 A 
ATOM     21  C   UNL     1       3.853   7.351  17.808  0.00  0.00    +0.000 A 
ENDBRANCH  15  16
ENDBRANCH  13  15
ENDBRANCH   9  13
BRANCH  12  22
ATOM     22  C   UNL     1      -1.278  13.779  20.443  0.00  0.00    +0.000 C 
ATOM     23  O   UNL     1      -1.111  14.681  19.597  0.00  0.00    +0.000 OA
BRANCH  22  24
ATOM     24  C   UNL     1      -2.124  14.145  21.648  0.00  0.00    +0.000 C 
BRANCH  24  25
ATOM     25  C   UNL     1      -3.558  13.603  21.553  0.00  0.00    +0.000 A 
ATOM     26  C   UNL     1      -4.312  13.360  22.708  0.00  0.00    +0.000 A 
ATOM     27  C   UNL     1      -5.607  12.827  22.629  0.00  0.00    +0.000 A 
ATOM     28  C   UNL     1      -6.179  12.530  21.398  0.00  0.00    +0.000 A 
ATOM     29  C   UNL     1      -5.473  12.803  20.233  0.00  0.00    +0.000 A 
ATOM     30  C   UNL     1      -4.184  13.348  20.312  0.00  0.00    +0.000 A 
ENDBRANCH  24  25
ENDBRANCH  22  24
ENDBRANCH  12  22
BRANCH   1  31
ATOM     31  C   UNL     1      -2.630   9.988  17.499  0.00  0.00    +0.000 C 
BRANCH  31  33
ATOM     32  C   UNL     1      -3.060  10.291  14.972  0.00  0.00    +0.000 C 
ATOM     33  C   UNL     1      -3.212   9.666  16.125  0.00  0.00    +0.000 C 
ENDBRANCH  31  33
ENDBRANCH   1  31
BRANCH   6  34
ATOM     34  C   UNL     1       1.730  14.188  21.561  0.00  0.00    +0.000 C 
BRANCH  34  35
ATOM     35  C   UNL     1       2.386  15.246  20.710  0.00  0.00    +0.000 C 
ATOM     36  C   UNL     1       1.781  16.401  20.393  0.00  0.00    +0.000 C 
ENDBRANCH  34  35
ENDBRANCH   6  34
TORSDOF 10
ENDMDL
MODEL 3
REMARK VINA RESULT:      -6.2      1.406      2.481
REMARK  Name = 
REMARK  10 active torsions:
REMARK  status: ('A' for Active; 'I' for Inactive)
REMARK    1  A    between atoms: C_2  and  C_3
REMARK    2  A    between atoms: C_3  and  N_4
REMARK    3  A    between atoms: N_9  and  C_10
REMARK    4  A    between atoms: C_10  and  C_11
REMARK    5  A    between atoms: C_15  and  C_16
REMARK    6  A    between atoms: C_16  and  C_18
REMARK    7  A    between atoms: C_18  and  C_19
REMARK    8  A    between atoms: C_27  and  C_28
REMARK    9  A    between atoms: C_28  and  C_30
REMARK   10  A    between atoms: C_30  and  C_31
REMARK                            x       y       z     vdW  Elec       q    Type
REMARK                         _______ _______ _______ _____ _____    ______ ____
ROOT
ATOM      1  N   UNL     1       2.234  12.985  18.782  0.00  0.00    +0.000 NA
ATOM      2  C   UNL     1       2.266  13.547  20.155  0.00  0.00    +0.000 C 
ATOM      3  C   UNL     1       1.207  12.662  21.034  0.00  0.00    +0.000 C 
ATOM      4  C   UNL     1       0.686  11.192  20.709  0.00  0.00    +0.000 C 
ATOM      5  C   UNL     1      -0.427  10.744  21.737  0.00  0.00    +0.000 C 
ATOM      6  N   UNL     1      -1.611  11.606  21.677  0.00  0.00    +0.000 NA
ATOM      7  C   UNL     1      -1.462  12.493  20.537  0.00  0.00    +0.000 C 
ATOM      8  C   UNL     1      -1.277  11.478  19.331  0.00  0.00    +0.000 C 
ATOM      9  C   UNL     1       0.253  11.282  19.220  0.00  0.00    +0.000 C 
ATOM     10  C   UNL     1       0.816  12.616  18.507  0.00  0.00    +0.000 C 
ATOM     11  C   UNL     1      -0.034  13.806  19.062  0.00  0.00    +0.000 C 
ATOM     12  C   UNL     1      -0.164  13.436  20.573  0.00  0.00    +0.000 C 
ENDROOT
BRANCH   9  13
ATOM     13  C   UNL     1       0.600  10.079  18.343  0.00  0.00    +0.000 C 
ATOM     14  O   UNL     1      -0.274   9.523  17.671  0.00  0.00    +0.000 OA
BRANCH  13  15
ATOM     15  C   UNL     1       2.054   9.626  18.233  0.00  0.00    +0.000 C 
BRANCH  15  16
ATOM     16  C   UNL     1       2.213   8.185  18.649  0.00  0.00    +0.000 A 
ATOM     17  C   UNL     1       1.798   7.764  19.919  0.00  0.00    +0.000 A 
ATOM     18  C   UNL     1       2.075   6.479  20.371  0.00  0.00    +0.000 A 
ATOM     19  C   UNL     1       2.794   5.602  19.555  0.00  0.00    +0.000 A 
ATOM     20  C   UNL     1       3.164   5.991  18.272  0.00  0.00    +0.000 A 
ATOM     21  C   UNL     1       2.856   7.264  17.813  0.00  0.00    +0.000 A 
ENDBRANCH  15  16
ENDBRANCH  13  15
ENDBRANCH   9  13
BRANCH  12  22
ATOM     22  C   UNL     1      -0.205  14.483  21.725  0.00  0.00    +0.000 C 
ATOM     23  O   UNL     1       0.520  14.259  22.716  0.00  0.00    +0.000 OA
BRANCH  22  24
ATOM     24  C   UNL     1      -0.987  15.784  21.752  0.00  0.00    +0.000 C 
BRANCH  24  25
ATOM     25  C   UNL     1      -0.647  16.704  20.570  0.00  0.00    +0.000 A 
ATOM     26  C   UNL     1       0.647  17.217  20.409  0.00  0.00    +0.000 A 
ATOM     27  C   UNL     1       0.953  18.090  19.355  0.00  0.00    +0.000 A 
ATOM     28  C   UNL     1      -0.021  18.464  18.437  0.00  0.00    +0.000 A 
ATOM     29  C   UNL     1      -1.301  17.935  18.544  0.00  0.00    +0.000 A 
ATOM     30  C   UNL     1      -1.603  17.052  19.590  0.00  0.00    +0.000 A 
ENDBRANCH  24  25
ENDBRANCH  22  24
ENDBRANCH  12  22
BRANCH   1  31
ATOM     31  C   UNL     1       2.685  13.896  17.703  0.00  0.00    +0.000 C 
BRANCH  31  33
ATOM     32  C   UNL     1       4.220  15.915  18.184  0.00  0.00    +0.000 C 
ATOM     33  C   UNL     1       3.047  15.360  17.942  0.00  0.00    +0.000 C 
ENDBRANCH  31  33
ENDBRANCH   1  31
BRANCH   6  34
ATOM     34  C   UNL     1      -2.021  12.119  22.981  0.00  0.00    +0.000 C 
BRANCH  34  35
ATOM     35  C   UNL     1      -3.466  12.526  23.122  0.00  0.00    +0.000 C 
ATOM     36  C   UNL     1      -4.061  12.690  24.315  0.00  0.00    +0.000 C 
ENDBRANCH  34  35
ENDBRANCH   6  34
TORSDOF 10
ENDMDL
MODEL 4
REMARK VINA RESULT:      -6.2      2.128      4.113
REMARK  Name = 
REMARK  10 active torsions:
REMARK  status: ('A' for Active; 'I' for Inactive)
REMARK    1  A    between atoms: C_2  and  C_3
REMARK    2  A    between atoms: C_3  and  N_4
REMARK    3  A    between atoms: N_9  and  C_10
REMARK    4  A    between atoms: C_10  and  C_11
REMARK    5  A    between atoms: C_15  and  C_16
REMARK    6  A    between atoms: C_16  and  C_18
REMARK    7  A    between atoms: C_18  and  C_19
REMARK    8  A    between atoms: C_27  and  C_28
REMARK    9  A    between atoms: C_28  and  C_30
REMARK   10  A    between atoms: C_30  and  C_31
REMARK                            x       y       z     vdW  Elec       q    Type
REMARK                         _______ _______ _______ _____ _____    ______ ____
ROOT
ATOM      1  N   UNL     1      -1.316  10.816  17.973  0.00  0.00    +0.000 NA
ATOM      2  C   UNL     1      -1.229  12.284  17.779  0.00  0.00    +0.000 C 
ATOM      3  C   UNL     1       0.062  12.783  18.654  0.00  0.00    +0.000 C 
ATOM      4  C   UNL     1       1.296  11.894  19.132  0.00  0.00    +0.000 C 
ATOM      5  C   UNL     1       2.265  12.724  20.064  0.00  0.00    +0.000 C 
ATOM      6  N   UNL     1       1.600  13.172  21.290  0.00  0.00    +0.000 NA
ATOM      7  C   UNL     1       0.297  12.535  21.353  0.00  0.00    +0.000 C 
ATOM      8  C   UNL     1       0.663  10.992  21.282  0.00  0.00    +0.000 C 
ATOM      9  C   UNL     1       0.620  10.652  19.775  0.00  0.00    +0.000 C 
ATOM     10  C   UNL     1      -0.946  10.550  19.392  0.00  0.00    +0.000 C 
ATOM     11  C   UNL     1      -1.676  11.658  20.221  0.00  0.00    +0.000 C 
ATOM     12  C   UNL     1      -0.676  12.853  20.117  0.00  0.00    +0.000 C 
ENDROOT
BRANCH   9  13
ATOM     13  C   UNL     1       1.278   9.302  19.487  0.00  0.00    +0.000 C 
ATOM     14  O   UNL     1       1.478   8.497  20.401  0.00  0.00    +0.000 OA
BRANCH  13  15
ATOM     15  C   UNL     1       1.603   8.918  18.045  0.00  0.00    +0.000 C 
BRANCH  15  16
ATOM     16  C   UNL     1       2.388   7.632  17.984  0.00  0.00    +0.000 A 
ATOM     17  C   UNL     1       3.734   7.640  17.594  0.00  0.00    +0.000 A 
ATOM     18  C   UNL     1       4.424   6.452  17.387  0.00  0.00    +0.000 A 
ATOM     19  C   UNL     1       3.762   5.233  17.554  0.00  0.00    +0.000 A 
ATOM     20  C   UNL     1       2.443   5.212  17.993  0.00  0.00    +0.000 A 
ATOM     21  C   UNL     1       1.768   6.401  18.229  0.00  0.00    +0.000 A 
ENDBRANCH  15  16
ENDBRANCH  13  15
ENDBRANCH   9  13
BRANCH  12  22
ATOM     22  C   UNL     1      -1.110  14.348  20.055  0.00  0.00    +0.000 C 
ATOM     23  O   UNL     1      -0.791  14.985  19.031  0.00  0.00    +0.000 OA
BRANCH  22  24
ATOM     24  C   UNL     1      -1.935  15.104  21.080  0.00  0.00    +0.000 C 
BRANCH  24  25
ATOM     25  C   UNL     1      -3.138  14.295  21.587  0.00  0.00    +0.000 A 
ATOM     26  C   UNL     1      -3.112  13.685  22.848  0.00  0.00    +0.000 A 
ATOM     27  C   UNL     1      -4.191  12.911  23.300  0.00  0.00    +0.000 A 
ATOM     28  C   UNL     1      -5.319  12.733  22.508  0.00  0.00    +0.000 A 
ATOM     29  C   UNL     1      -5.392  13.363  21.272  0.00  0.00    +0.000 A 
ATOM     30  C   UNL     1      -4.319  14.148  20.826  0.00  0.00    +0.000 A 
ENDBRANCH  24  25
ENDBRANCH  22  24
ENDBRANCH  12  22
BRANCH   1  31
ATOM     31  C   UNL     1      -2.648  10.213  17.729  0.00  0.00    +0.000 C 
BRANCH  31  33
ATOM     32  C   UNL     1      -3.046  10.053  15.183  0.00  0.00    +0.000 C 
ATOM     33  C   UNL     1      -3.407  10.367  16.414  0.00  0.00    +0.000 C 
ENDBRANCH  31  33
ENDBRANCH   1  31
BRANCH   6  34
ATOM     34  C   UNL     1       1.751  14.603  21.542  0.00  0.00    +0.000 C 
BRANCH  34  35
ATOM     35  C   UNL     1       2.387  15.419  20.445  0.00  0.00    +0.000 C 
ATOM     36  C   UNL     1       2.532  16.751  20.523  0.00  0.00    +0.000 C 
ENDBRANCH  34  35
ENDBRANCH   6  34
TORSDOF 10
ENDMDL
MODEL 5
REMARK VINA RESULT:      -6.1      2.072      4.030
REMARK  Name = 
REMARK  10 active torsions:
REMARK  status: ('A' for Active; 'I' for Inactive)
REMARK    1  A    between atoms: C_2  and  C_3
REMARK    2  A    between atoms: C_3  and  N_4
REMARK    3  A    between atoms: N_9  and  C_10
REMARK    4  A    between atoms: C_10  and  C_11
REMARK    5  A    between atoms: C_15  and  C_16
REMARK    6  A    between atoms: C_16  and  C_18
REMARK    7  A    between atoms: C_18  and  C_19
REMARK    8  A    between atoms: C_27  and  C_28
REMARK    9  A    between atoms: C_28  and  C_30
REMARK   10  A    between atoms: C_30  and  C_31
REMARK                            x       y       z     vdW  Elec       q    Type
REMARK                         _______ _______ _______ _____ _____    ______ ____
ROOT
ATOM      1  N   UNL     1      -1.303  10.684  17.863  0.00  0.00    +0.000 NA
ATOM      2  C   UNL     1      -1.317  12.162  17.739  0.00  0.00    +0.000 C 
ATOM      3  C   UNL     1      -0.101  12.710  18.688  0.00  0.00    +0.000 C 
ATOM      4  C   UNL     1       1.175  11.891  19.177  0.00  0.00    +0.000 C 
ATOM      5  C   UNL     1       2.044  12.743  20.184  0.00  0.00    +0.000 C 
ATOM      6  N   UNL     1       1.302  13.084  21.400  0.00  0.00    +0.000 NA
ATOM      7  C   UNL     1       0.048  12.353  21.380  0.00  0.00    +0.000 C 
ATOM      8  C   UNL     1       0.529  10.845  21.256  0.00  0.00    +0.000 C 
ATOM      9  C   UNL     1       0.568  10.574  19.734  0.00  0.00    +0.000 C 
ATOM     10  C   UNL     1      -0.969  10.379  19.283  0.00  0.00    +0.000 C 
ATOM     11  C   UNL     1      -1.810  11.391  20.129  0.00  0.00    +0.000 C 
ATOM     12  C   UNL     1      -0.898  12.658  20.120  0.00  0.00    +0.000 C 
ENDROOT
BRANCH   9  13
ATOM     13  C   UNL     1       1.335   9.291  19.415  0.00  0.00    +0.000 C 
ATOM     14  O   UNL     1       1.560   8.461  20.300  0.00  0.00    +0.000 OA
BRANCH  13  15
ATOM     15  C   UNL     1       1.740   8.999  17.972  0.00  0.00    +0.000 C 
BRANCH  15  16
ATOM     16  C   UNL     1       2.443   7.669  17.858  0.00  0.00    +0.000 A 
ATOM     17  C   UNL     1       1.765   6.480  18.157  0.00  0.00    +0.000 A 
ATOM     18  C   UNL     1       2.439   5.266  18.203  0.00  0.00    +0.000 A 
ATOM     19  C   UNL     1       3.815   5.233  17.964  0.00  0.00    +0.000 A 
ATOM     20  C   UNL     1       4.489   6.398  17.613  0.00  0.00    +0.000 A 
ATOM     21  C   UNL     1       3.804   7.603  17.537  0.00  0.00    +0.000 A 
ENDBRANCH  15  16
ENDBRANCH  13  15
ENDBRANCH   9  13
BRANCH  12  22
ATOM     22  C   UNL     1      -1.438  14.119  20.106  0.00  0.00    +0.000 C 
ATOM     23  O   UNL     1      -0.774  14.960  19.467  0.00  0.00    +0.000 OA
BRANCH  22  24
ATOM     24  C   UNL     1      -2.723  14.626  20.737  0.00  0.00    +0.000 C 
BRANCH  24  25
ATOM     25  C   UNL     1      -2.645  14.693  22.269  0.00  0.00    +0.000 A 
ATOM     26  C   UNL     1      -3.346  13.777  23.064  0.00  0.00    +0.000 A 
ATOM     27  C   UNL     1      -3.312  13.858  24.464  0.00  0.00    +0.000 A 
ATOM     28  C   UNL     1      -2.573  14.849  25.100  0.00  0.00    +0.000 A 
ATOM     29  C   UNL     1      -1.832  15.743  24.338  0.00  0.00    +0.000 A 
ATOM     30  C   UNL     1      -1.856  15.654  22.940  0.00  0.00    +0.000 A 
ENDBRANCH  24  25
ENDBRANCH  22  24
ENDBRANCH  12  22
BRANCH   1  31
ATOM     31  C   UNL     1      -2.577  10.000  17.537  0.00  0.00    +0.000 C 
BRANCH  31  33
ATOM     32  C   UNL     1      -3.056  10.111  15.003  0.00  0.00    +0.000 C 
ATOM     33  C   UNL     1      -3.380  10.285  16.271  0.00  0.00    +0.000 C 
ENDBRANCH  31  33
ENDBRANCH   1  31
BRANCH   6  34
ATOM     34  C   UNL     1       1.337  14.508  21.722  0.00  0.00    +0.000 C 
BRANCH  34  35
ATOM     35  C   UNL     1       2.355  15.342  20.985  0.00  0.00    +0.000 C 
ATOM     36  C   UNL     1       2.114  16.604  20.597  0.00  0.00    +0.000 C 
ENDBRANCH  34  35
ENDBRANCH   6  34
TORSDOF 10
ENDMDL
MODEL 6
REMARK VINA RESULT:      -6.1      2.690      4.448
REMARK  Name = 
REMARK  10 active torsions:
REMARK  status: ('A' for Active; 'I' for Inactive)
REMARK    1  A    between atoms: C_2  and  C_3
REMARK    2  A    between atoms: C_3  and  N_4
REMARK    3  A    between atoms: N_9  and  C_10
REMARK    4  A    between atoms: C_10  and  C_11
REMARK    5  A    between atoms: C_15  and  C_16
REMARK    6  A    between atoms: C_16  and  C_18
REMARK    7  A    between atoms: C_18  and  C_19
REMARK    8  A    between atoms: C_27  and  C_28
REMARK    9  A    between atoms: C_28  and  C_30
REMARK   10  A    between atoms: C_30  and  C_31
REMARK                            x       y       z     vdW  Elec       q    Type
REMARK                         _______ _______ _______ _____ _____    ______ ____
ROOT
ATOM      1  N   UNL     1      -1.097  10.476  17.540  0.00  0.00    +0.000 NA
ATOM      2  C   UNL     1      -1.381  11.927  17.665  0.00  0.00    +0.000 C 
ATOM      3  C   UNL     1      -0.576  12.434  18.998  0.00  0.00    +0.000 C 
ATOM      4  C   UNL     1       0.678  11.731  19.685  0.00  0.00    +0.000 C 
ATOM      5  C   UNL     1       1.078  12.467  21.024  0.00  0.00    +0.000 C 
ATOM      6  N   UNL     1       0.003  12.421  22.019  0.00  0.00    +0.000 NA
ATOM      7  C   UNL     1      -1.030  11.531  21.523  0.00  0.00    +0.000 C 
ATOM      8  C   UNL     1      -0.236  10.176  21.291  0.00  0.00    +0.000 C 
ATOM      9  C   UNL     1       0.233  10.249  19.820  0.00  0.00    +0.000 C 
ATOM     10  C   UNL     1      -1.071   9.926  18.925  0.00  0.00    +0.000 C 
ATOM     11  C   UNL     1      -2.284  10.593  19.655  0.00  0.00    +0.000 C 
ATOM     12  C   UNL     1      -1.676  11.955  20.116  0.00  0.00    +0.000 C 
ENDROOT
BRANCH   9  13
ATOM     13  C   UNL     1       1.300   9.196  19.521  0.00  0.00    +0.000 C 
ATOM     14  O   UNL     1       1.760   8.497  20.429  0.00  0.00    +0.000 OA
BRANCH  13  15
ATOM     15  C   UNL     1       1.727   8.949  18.076  0.00  0.00    +0.000 C 
BRANCH  15  16
ATOM     16  C   UNL     1       2.509   7.666  17.946  0.00  0.00    +0.000 A 
ATOM     17  C   UNL     1       3.824   7.683  17.461  0.00  0.00    +0.000 A 
ATOM     18  C   UNL     1       4.501   6.499  17.194  0.00  0.00    +0.000 A 
ATOM     19  C   UNL     1       3.857   5.276  17.396  0.00  0.00    +0.000 A 
ATOM     20  C   UNL     1       2.572   5.246  17.929  0.00  0.00    +0.000 A 
ATOM     21  C   UNL     1       1.912   6.431  18.224  0.00  0.00    +0.000 A 
ENDBRANCH  15  16
ENDBRANCH  13  15
ENDBRANCH   9  13
BRANCH  12  22
ATOM     22  C   UNL     1      -2.482  13.286  20.194  0.00  0.00    +0.000 C 
ATOM     23  O   UNL     1      -1.930  14.306  19.734  0.00  0.00    +0.000 OA
BRANCH  22  24
ATOM     24  C   UNL     1      -3.896  13.470  20.714  0.00  0.00    +0.000 C 
BRANCH  24  25
ATOM     25  C   UNL     1      -4.927  12.639  19.936  0.00  0.00    +0.000 A 
ATOM     26  C   UNL     1      -4.843  12.515  18.543  0.00  0.00    +0.000 A 
ATOM     27  C   UNL     1      -5.805  11.791  17.822  0.00  0.00    +0.000 A 
ATOM     28  C   UNL     1      -6.865  11.172  18.475  0.00  0.00    +0.000 A 
ATOM     29  C   UNL     1      -6.947  11.240  19.860  0.00  0.00    +0.000 A 
ATOM     30  C   UNL     1      -5.979  11.952  20.581  0.00  0.00    +0.000 A 
ENDBRANCH  24  25
ENDBRANCH  22  24
ENDBRANCH  12  22
BRANCH   1  31
ATOM     31  C   UNL     1      -2.083   9.694  16.757  0.00  0.00    +0.000 C 
BRANCH  31  33
ATOM     32  C   UNL     1      -3.245  10.104  14.489  0.00  0.00    +0.000 C 
ATOM     33  C   UNL     1      -3.067  10.328  15.778  0.00  0.00    +0.000 C 
ENDBRANCH  31  33
ENDBRANCH   1  31
BRANCH   6  34
ATOM     34  C   UNL     1      -0.334  13.731  22.571  0.00  0.00    +0.000 C 
BRANCH  34  35
ATOM     35  C   UNL     1      -1.398  13.762  23.638  0.00  0.00    +0.000 C 
ATOM     36  C   UNL     1      -2.280  14.766  23.755  0.00  0.00    +0.000 C 
ENDBRANCH  34  35
ENDBRANCH   6  34
TORSDOF 10
ENDMDL
MODEL 7
REMARK VINA RESULT:      -6.1      2.460      5.911
REMARK  Name = 
REMARK  10 active torsions:
REMARK  status: ('A' for Active; 'I' for Inactive)
REMARK    1  A    between atoms: C_2  and  C_3
REMARK    2  A    between atoms: C_3  and  N_4
REMARK    3  A    between atoms: N_9  and  C_10
REMARK    4  A    between atoms: C_10  and  C_11
REMARK    5  A    between atoms: C_15  and  C_16
REMARK    6  A    between atoms: C_16  and  C_18
REMARK    7  A    between atoms: C_18  and  C_19
REMARK    8  A    between atoms: C_27  and  C_28
REMARK    9  A    between atoms: C_28  and  C_30
REMARK   10  A    between atoms: C_30  and  C_31
REMARK                            x       y       z     vdW  Elec       q    Type
REMARK                         _______ _______ _______ _____ _____    ______ ____
ROOT
ATOM      1  N   UNL     1       0.464   9.512  19.753  0.00  0.00    +0.000 NA
ATOM      2  C   UNL     1       0.631  10.333  20.978  0.00  0.00    +0.000 C 
ATOM      3  C   UNL     1      -0.393  11.600  20.819  0.00  0.00    +0.000 C 
ATOM      4  C   UNL     1      -1.687  11.675  19.892  0.00  0.00    +0.000 C 
ATOM      5  C   UNL     1      -2.328  13.119  19.929  0.00  0.00    +0.000 C 
ATOM      6  N   UNL     1      -1.412  14.141  19.414  0.00  0.00    +0.000 NA
ATOM      7  C   UNL     1      -0.261  13.465  18.844  0.00  0.00    +0.000 C 
ATOM      8  C   UNL     1      -0.922  12.512  17.759  0.00  0.00    +0.000 C 
ATOM      9  C   UNL     1      -1.172  11.185  18.511  0.00  0.00    +0.000 C 
ATOM     10  C   UNL     1       0.268  10.465  18.624  0.00  0.00    +0.000 C 
ATOM     11  C   UNL     1       1.314  11.604  18.864  0.00  0.00    +0.000 C 
ATOM     12  C   UNL     1       0.557  12.534  19.863  0.00  0.00    +0.000 C 
ENDROOT
BRANCH   9  13
ATOM     13  C   UNL     1      -2.113  10.268  17.728  0.00  0.00    +0.000 C 
ATOM     14  O   UNL     1      -1.824   9.909  16.583  0.00  0.00    +0.000 OA
BRANCH  13  15
ATOM     15  C   UNL     1      -3.367   9.724  18.407  0.00  0.00    +0.000 C 
BRANCH  15  16
ATOM     16  C   UNL     1      -4.584  10.539  18.045  0.00  0.00    +0.000 A 
ATOM     17  C   UNL     1      -4.485  11.594  17.129  0.00  0.00    +0.000 A 
ATOM     18  C   UNL     1      -5.559  12.446  16.901  0.00  0.00    +0.000 A 
ATOM     19  C   UNL     1      -6.749  12.257  17.609  0.00  0.00    +0.000 A 
ATOM     20  C   UNL     1      -6.878  11.181  18.480  0.00  0.00    +0.000 A 
ATOM     21  C   UNL     1      -5.812  10.314  18.679  0.00  0.00    +0.000 A 
ENDBRANCH  15  16
ENDBRANCH  13  15
ENDBRANCH   9  13
BRANCH  12  22
ATOM     22  C   UNL     1       1.255  13.343  20.998  0.00  0.00    +0.000 C 
ATOM     23  O   UNL     1       0.644  13.435  22.082  0.00  0.00    +0.000 OA
BRANCH  22  24
ATOM     24  C   UNL     1       2.630  13.984  20.952  0.00  0.00    +0.000 C 
BRANCH  24  25
ATOM     25  C   UNL     1       2.807  14.920  19.746  0.00  0.00    +0.000 A 
ATOM     26  C   UNL     1       2.198  16.181  19.722  0.00  0.00    +0.000 A 
ATOM     27  C   UNL     1       2.323  17.023  18.606  0.00  0.00    +0.000 A 
ATOM     28  C   UNL     1       3.062  16.629  17.498  0.00  0.00    +0.000 A 
ATOM     29  C   UNL     1       3.715  15.402  17.513  0.00  0.00    +0.000 A 
ATOM     30  C   UNL     1       3.601  14.567  18.632  0.00  0.00    +0.000 A 
ENDBRANCH  24  25
ENDBRANCH  22  24
ENDBRANCH  12  22
BRANCH   1  31
ATOM     31  C   UNL     1       1.603   8.628  19.411  0.00  0.00    +0.000 C 
BRANCH  31  33
ATOM     32  C   UNL     1       3.153   7.867  17.493  0.00  0.00    +0.000 C 
ATOM     33  C   UNL     1       2.001   8.294  17.976  0.00  0.00    +0.000 C 
ENDBRANCH  31  33
ENDBRANCH   1  31
BRANCH   6  34
ATOM     34  C   UNL     1      -1.246  15.278  20.316  0.00  0.00    +0.000 C 
BRANCH  34  35
ATOM     35  C   UNL     1      -2.300  15.455  21.380  0.00  0.00    +0.000 C 
ATOM     36  C   UNL     1      -2.001  15.600  22.681  0.00  0.00    +0.000 C 
ENDBRANCH  34  35
ENDBRANCH   6  34
TORSDOF 10
ENDMDL
MODEL 8
REMARK VINA RESULT:      -6.0      2.122      4.209
REMARK  Name = 
REMARK  10 active torsions:
REMARK  status: ('A' for Active; 'I' for Inactive)
REMARK    1  A    between atoms: C_2  and  C_3
REMARK    2  A    between atoms: C_3  and  N_4
REMARK    3  A    between atoms: N_9  and  C_10
REMARK    4  A    between atoms: C_10  and  C_11
REMARK    5  A    between atoms: C_15  and  C_16
REMARK    6  A    between atoms: C_16  and  C_18
REMARK    7  A    between atoms: C_18  and  C_19
REMARK    8  A    between atoms: C_27  and  C_28
REMARK    9  A    between atoms: C_28  and  C_30
REMARK   10  A    between atoms: C_30  and  C_31
REMARK                            x       y       z     vdW  Elec       q    Type
REMARK                         _______ _______ _______ _____ _____    ______ ____
ROOT
ATOM      1  N   UNL     1      -1.351  10.631  17.960  0.00  0.00    +0.000 NA
ATOM      2  C   UNL     1      -1.316  12.099  17.750  0.00  0.00    +0.000 C 
ATOM      3  C   UNL     1      -0.026  12.649  18.594  0.00  0.00    +0.000 C 
ATOM      4  C   UNL     1       1.246  11.807  19.057  0.00  0.00    +0.000 C 
ATOM      5  C   UNL     1       2.204  12.678  19.961  0.00  0.00    +0.000 C 
ATOM      6  N   UNL     1       1.549  13.118  21.195  0.00  0.00    +0.000 NA
ATOM      7  C   UNL     1       0.269  12.439  21.290  0.00  0.00    +0.000 C 
ATOM      8  C   UNL     1       0.684  10.908  21.228  0.00  0.00    +0.000 C 
ATOM      9  C   UNL     1       0.623  10.550  19.726  0.00  0.00    +0.000 C 
ATOM     10  C   UNL     1      -0.945  10.393  19.375  0.00  0.00    +0.000 C 
ATOM     11  C   UNL     1      -1.695  11.486  20.206  0.00  0.00    +0.000 C 
ATOM     12  C   UNL     1      -0.738  12.711  20.070  0.00  0.00    +0.000 C 
ENDROOT
BRANCH   9  13
ATOM     13  C   UNL     1       1.320   9.220  19.439  0.00  0.00    +0.000 C 
ATOM     14  O   UNL     1       1.544   8.423  20.355  0.00  0.00    +0.000 OA
BRANCH  13  15
ATOM     15  C   UNL     1       1.654   8.843  17.998  0.00  0.00    +0.000 C 
BRANCH  15  16
ATOM     16  C   UNL     1       2.469   7.575  17.937  0.00  0.00    +0.000 A 
ATOM     17  C   UNL     1       3.818   7.615  17.561  0.00  0.00    +0.000 A 
ATOM     18  C   UNL     1       4.537   6.444  17.354  0.00  0.00    +0.000 A 
ATOM     19  C   UNL     1       3.901   5.210  17.508  0.00  0.00    +0.000 A 
ATOM     20  C   UNL     1       2.578   5.156  17.934  0.00  0.00    +0.000 A 
ATOM     21  C   UNL     1       1.874   6.329  18.170  0.00  0.00    +0.000 A 
ENDBRANCH  15  16
ENDBRANCH  13  15
ENDBRANCH   9  13
BRANCH  12  22
ATOM     22  C   UNL     1      -1.222  14.191  20.000  0.00  0.00    +0.000 C 
ATOM     23  O   UNL     1      -0.691  14.917  19.136  0.00  0.00    +0.000 OA
BRANCH  22  24
ATOM     24  C   UNL     1      -2.317  14.835  20.831  0.00  0.00    +0.000 C 
BRANCH  24  25
ATOM     25  C   UNL     1      -1.814  15.321  22.199  0.00  0.00    +0.000 A 
ATOM     26  C   UNL     1      -1.315  16.620  22.359  0.00  0.00    +0.000 A 
ATOM     27  C   UNL     1      -0.817  17.057  23.596  0.00  0.00    +0.000 A 
ATOM     28  C   UNL     1      -0.813  16.210  24.699  0.00  0.00    +0.000 A 
ATOM     29  C   UNL     1      -1.344  14.932  24.581  0.00  0.00    +0.000 A 
ATOM     30  C   UNL     1      -1.853  14.501  23.348  0.00  0.00    +0.000 A 
ENDBRANCH  24  25
ENDBRANCH  22  24
ENDBRANCH  12  22
BRANCH   1  31
ATOM     31  C   UNL     1      -2.666   9.982  17.748  0.00  0.00    +0.000 C 
BRANCH  31  33
ATOM     32  C   UNL     1      -4.973  11.138  17.834  0.00  0.00    +0.000 C 
ATOM     33  C   UNL     1      -3.887  10.723  17.208  0.00  0.00    +0.000 C 
ENDBRANCH  31  33
ENDBRANCH   1  31
BRANCH   6  34
ATOM     34  C   UNL     1       1.657  14.556  21.429  0.00  0.00    +0.000 C 
BRANCH  34  35
ATOM     35  C   UNL     1       2.582  15.321  20.517  0.00  0.00    +0.000 C 
ATOM     36  C   UNL     1       2.214  16.450  19.892  0.00  0.00    +0.000 C 
ENDBRANCH  34  35
ENDBRANCH   6  34
TORSDOF 10
ENDMDL
MODEL 9
REMARK VINA RESULT:      -6.0      2.858      8.081
REMARK  Name = 
REMARK  10 active torsions:
REMARK  status: ('A' for Active; 'I' for Inactive)
REMARK    1  A    between atoms: C_2  and  C_3
REMARK    2  A    between atoms: C_3  and  N_4
REMARK    3  A    between atoms: N_9  and  C_10
REMARK    4  A    between atoms: C_10  and  C_11
REMARK    5  A    between atoms: C_15  and  C_16
REMARK    6  A    between atoms: C_16  and  C_18
REMARK    7  A    between atoms: C_18  and  C_19
REMARK    8  A    between atoms: C_27  and  C_28
REMARK    9  A    between atoms: C_28  and  C_30
REMARK   10  A    between atoms: C_30  and  C_31
REMARK                            x       y       z     vdW  Elec       q    Type
REMARK                         _______ _______ _______ _____ _____    ______ ____
ROOT
ATOM      1  N   UNL     1      -4.625  14.281  21.319  0.00  0.00    +0.000 NA
ATOM      2  C   UNL     1      -4.303  13.147  20.418  0.00  0.00    +0.000 C 
ATOM      3  C   UNL     1      -3.133  12.285  21.172  0.00  0.00    +0.000 C 
ATOM      4  C   UNL     1      -2.803  12.278  22.731  0.00  0.00    +0.000 C 
ATOM      5  C   UNL     1      -1.517  11.412  23.035  0.00  0.00    +0.000 C 
ATOM      6  N   UNL     1      -0.323  11.952  22.379  0.00  0.00    +0.000 NA
ATOM      7  C   UNL     1      -0.667  13.241  21.809  0.00  0.00    +0.000 C 
ATOM      8  C   UNL     1      -1.194  14.047  23.072  0.00  0.00    +0.000 C 
ATOM      9  C   UNL     1      -2.717  13.787  23.090  0.00  0.00    +0.000 C 
ATOM     10  C   UNL     1      -3.337  14.721  21.927  0.00  0.00    +0.000 C 
ATOM     11  C   UNL     1      -2.303  14.709  20.753  0.00  0.00    +0.000 C 
ATOM     12  C   UNL     1      -1.855  13.213  20.730  0.00  0.00    +0.000 C 
ENDROOT
BRANCH   9  13
ATOM     13  C   UNL     1      -3.338  14.199  24.425  0.00  0.00    +0.000 C 
ATOM     14  O   UNL     1      -3.534  13.358  25.308  0.00  0.00    +0.000 OA
BRANCH  13  15
ATOM     15  C   UNL     1      -3.629  15.673  24.695  0.00  0.00    +0.000 C 
BRANCH  15  16
ATOM     16  C   UNL     1      -2.488  16.332  25.429  0.00  0.00    +0.000 A 
ATOM     17  C   UNL     1      -2.265  17.709  25.305  0.00  0.00    +0.000 A 
ATOM     18  C   UNL     1      -1.133  18.302  25.852  0.00  0.00    +0.000 A 
ATOM     19  C   UNL     1      -0.196  17.509  26.521  0.00  0.00    +0.000 A 
ATOM     20  C   UNL     1      -0.434  16.150  26.698  0.00  0.00    +0.000 A 
ATOM     21  C   UNL     1      -1.583  15.570  26.178  0.00  0.00    +0.000 A 
ENDBRANCH  15  16
ENDBRANCH  13  15
ENDBRANCH   9  13
BRANCH  12  22
ATOM     22  C   UNL     1      -1.479  12.438  19.432  0.00  0.00    +0.000 C 
ATOM     23  O   UNL     1      -0.824  13.061  18.573  0.00  0.00    +0.000 OA
BRANCH  22  24
ATOM     24  C   UNL     1      -1.769  10.981  19.121  0.00  0.00    +0.000 C 
BRANCH  24  25
ATOM     25  C   UNL     1      -2.496  10.794  17.781  0.00  0.00    +0.000 A 
ATOM     26  C   UNL     1      -1.967   9.957  16.789  0.00  0.00    +0.000 A 
ATOM     27  C   UNL     1      -2.604   9.814  15.548  0.00  0.00    +0.000 A 
ATOM     28  C   UNL     1      -3.784  10.496  15.272  0.00  0.00    +0.000 A 
ATOM     29  C   UNL     1      -4.356  11.297  16.253  0.00  0.00    +0.000 A 
ATOM     30  C   UNL     1      -3.725  11.429  17.498  0.00  0.00    +0.000 A 
ENDBRANCH  24  25
ENDBRANCH  22  24
ENDBRANCH  12  22
BRANCH   1  31
ATOM     31  C   UNL     1      -5.248  15.460  20.671  0.00  0.00    +0.000 C 
BRANCH  31  33
ATOM     32  C   UNL     1      -6.474  16.123  18.498  0.00  0.00    +0.000 C 
ATOM     33  C   UNL     1      -6.280  15.351  19.552  0.00  0.00    +0.000 C 
ENDBRANCH  31  33
ENDBRANCH   1  31
BRANCH   6  34
ATOM     34  C   UNL     1       0.411  10.957  21.600  0.00  0.00    +0.000 C 
BRANCH  34  35
ATOM     35  C   UNL     1       0.086   9.510  21.875  0.00  0.00    +0.000 C 
ATOM     36  C   UNL     1       0.849   8.498  21.432  0.00  0.00    +0.000 C 
ENDBRANCH  34  35
ENDBRANCH   6  34
TORSDOF 10
ENDMDL
