MODEL 1
REMARK VINA RESULT:      -8.0      0.000      0.000
REMARK  Name = 
REMARK  3 active torsions:
REMARK  status: ('A' for Active; 'I' for Inactive)
REMARK    1  A    between atoms: C_1  and  O_2
REMARK    2  A    between atoms: O_2  and  C_3
REMARK    3  A    between atoms: C_10  and  C_12
REMARK                            x       y       z     vdW  Elec       q    Type
REMARK                         _______ _______ _______ _____ _____    ______ ____
ROOT
ATOM      1  C   UNL     1      -4.342  11.634  16.850  0.00  0.00    +0.000 A 
ATOM      2  C   UNL     1      -4.301  10.845  15.697  0.00  0.00    +0.000 A 
ATOM      3  C   UNL     1      -3.371   9.824  15.601  0.00  0.00    +0.000 A 
ATOM      4  C   UNL     1      -2.438   9.653  16.624  0.00  0.00    +0.000 A 
ATOM      5  C   UNL     1      -2.391  10.512  17.772  0.00  0.00    +0.000 A 
ATOM      6  C   UNL     1      -1.419  10.517  18.825  0.00  0.00    +0.000 A 
ATOM      7  N   UNL     1      -0.317   9.614  18.657  0.00  0.00    +0.000 N 
ATOM      8  C   UNL     1       0.670   9.320  19.568  0.00  0.00    +0.000 C 
ATOM      9  O   UNL     1       0.696   9.748  20.722  0.00  0.00    +0.000 OA
ATOM     10  N   UNL     1      -1.481  11.354  19.913  0.00  0.00    +0.000 NA
ATOM     11  C   UNL     1      -2.566  12.149  19.986  0.00  0.00    +0.000 A 
ATOM     12  N   UNL     1      -2.889  13.024  21.078  0.00  0.00    +0.000 N 
ATOM     13  C   UNL     1      -4.228  13.288  21.400  0.00  0.00    +0.000 A 
ATOM     14  N   UNL     1      -4.913  12.348  22.125  0.00  0.00    +0.000 N 
ATOM     15  N   UNL     1      -4.335  14.577  21.620  0.00  0.00    +0.000 NA
ATOM     16  C   UNL     1      -3.163  14.817  22.269  0.00  0.00    +0.000 A 
ATOM     17  C   UNL     1      -2.915  15.861  23.166  0.00  0.00    +0.000 A 
ATOM     18  C   UNL     1      -1.870  15.693  24.066  0.00  0.00    +0.000 A 
ATOM     19  C   UNL     1      -1.041  14.567  23.983  0.00  0.00    +0.000 A 
ATOM     20  C   UNL     1      -1.159  13.600  22.954  0.00  0.00    +0.000 A 
ATOM     21  C   UNL     1      -2.259  13.738  22.103  0.00  0.00    +0.000 A 
ATOM     22  N   UNL     1      -3.496  12.203  19.006  0.00  0.00    +0.000 NA
ATOM     23  C   UNL     1      -3.404  11.461  17.897  0.00  0.00    +0.000 A 
ATOM     24  H   UNL     1      -0.285   9.114  17.788  0.00  0.00    +0.000 HD
ATOM     25  H   UNL     1      -4.510  11.415  22.134  0.00  0.00    +0.000 HD
ATOM     26  H   UNL     1      -4.976  12.656  23.098  0.00  0.00    +0.000 HD
ENDROOT
BRANCH   8  27
ATOM     27  C   UNL     1       1.776   8.368  19.139  0.00  0.00    +0.000 A 
ATOM     28  C   UNL     1       2.196   7.232  19.852  0.00  0.00    +0.000 A 
ATOM     29  C   UNL     1       3.223   6.396  19.350  0.00  0.00    +0.000 A 
ATOM     30  C   UNL     1       3.836   6.688  18.136  0.00  0.00    +0.000 A 
ATOM     31  C   UNL     1       3.439   7.813  17.418  0.00  0.00    +0.000 A 
ATOM     32  C   UNL     1       2.426   8.641  17.917  0.00  0.00    +0.000 A 
ENDBRANCH   8  27
BRANCH   1  34
ATOM     33  C   UNL     1      -6.592  12.282  17.386  0.00  0.00    +0.000 C 
ATOM     34  O   UNL     1      -5.266  12.646  17.021  0.00  0.00    +0.000 OA
ENDBRANCH   1  34
TORSDOF 2
ENDMDL
MODEL 2
REMARK VINA RESULT:      -7.5      1.574      2.282
REMARK  Name = 
REMARK  3 active torsions:
REMARK  status: ('A' for Active; 'I' for Inactive)
REMARK    1  A    between atoms: C_1  and  O_2
REMARK    2  A    between atoms: O_2  and  C_3
REMARK    3  A    between atoms: C_10  and  C_12
REMARK                            x       y       z     vdW  Elec       q    Type
REMARK                         _______ _______ _______ _____ _____    ______ ____
ROOT
ATOM      1  C   UNL     1      -5.782  13.103  18.839  0.00  0.00    +0.000 A 
ATOM      2  C   UNL     1      -5.959  12.391  17.649  0.00  0.00    +0.000 A 
ATOM      3  C   UNL     1      -5.068  11.385  17.316  0.00  0.00    +0.000 A 
ATOM      4  C   UNL     1      -3.964  11.153  18.136  0.00  0.00    +0.000 A 
ATOM      5  C   UNL     1      -3.701  11.934  19.310  0.00  0.00    +0.000 A 
ATOM      6  C   UNL     1      -2.551  11.877  20.164  0.00  0.00    +0.000 A 
ATOM      7  N   UNL     1      -1.504  10.994  19.736  0.00  0.00    +0.000 N 
ATOM      8  C   UNL     1      -0.368  10.647  20.428  0.00  0.00    +0.000 C 
ATOM      9  O   UNL     1      -0.127  10.998  21.583  0.00  0.00    +0.000 OA
ATOM     10  N   UNL     1      -2.407  12.640  21.297  0.00  0.00    +0.000 NA
ATOM     11  C   UNL     1      -3.455  13.421  21.621  0.00  0.00    +0.000 A 
ATOM     12  N   UNL     1      -3.566  14.221  22.809  0.00  0.00    +0.000 N 
ATOM     13  C   UNL     1      -4.821  14.454  23.389  0.00  0.00    +0.000 A 
ATOM     14  N   UNL     1      -5.366  13.464  24.165  0.00  0.00    +0.000 N 
ATOM     15  N   UNL     1      -4.878  15.725  23.709  0.00  0.00    +0.000 NA
ATOM     16  C   UNL     1      -3.605  15.929  24.145  0.00  0.00    +0.000 A 
ATOM     17  C   UNL     1      -3.190  16.914  25.049  0.00  0.00    +0.000 A 
ATOM     18  C   UNL     1      -1.998  16.693  25.727  0.00  0.00    +0.000 A 
ATOM     19  C   UNL     1      -1.205  15.580  25.419  0.00  0.00    +0.000 A 
ATOM     20  C   UNL     1      -1.516  14.683  24.368  0.00  0.00    +0.000 A 
ATOM     21  C   UNL     1      -2.753  14.870  23.745  0.00  0.00    +0.000 A 
ATOM     22  N   UNL     1      -4.550  13.534  20.835  0.00  0.00    +0.000 NA
ATOM     23  C   UNL     1      -4.667  12.868  19.682  0.00  0.00    +0.000 A 
ATOM     24  H   UNL     1      -1.636  10.552  18.845  0.00  0.00    +0.000 HD
ATOM     25  H   UNL     1      -4.974  12.535  24.037  0.00  0.00    +0.000 HD
ATOM     26  H   UNL     1      -5.247  13.707  25.151  0.00  0.00    +0.000 HD
ENDROOT
BRANCH   8  27
ATOM     27  C   UNL     1       0.635   9.732  19.741  0.00  0.00    +0.000 A 
ATOM     28  C   UNL     1       1.214   8.585  20.309  0.00  0.00    +0.000 A 
ATOM     29  C   UNL     1       2.122   7.787  19.571  0.00  0.00    +0.000 A 
ATOM     30  C   UNL     1       2.456   8.128  18.264  0.00  0.00    +0.000 A 
ATOM     31  C   UNL     1       1.898   9.265  17.686  0.00  0.00    +0.000 A 
ATOM     32  C   UNL     1       1.003  10.056  18.418  0.00  0.00    +0.000 A 
ENDBRANCH   8  27
BRANCH   1  34
ATOM     33  C   UNL     1      -7.804  14.338  18.443  0.00  0.00    +0.000 C 
ATOM     34  O   UNL     1      -6.652  14.096  19.244  0.00  0.00    +0.000 OA
ENDBRANCH   1  34
TORSDOF 2
ENDMDL
MODEL 3
REMARK VINA RESULT:      -7.5      3.359      4.488
REMARK  Name = 
REMARK  3 active torsions:
REMARK  status: ('A' for Active; 'I' for Inactive)
REMARK    1  A    between atoms: C_1  and  O_2
REMARK    2  A    between atoms: O_2  and  C_3
REMARK    3  A    between atoms: C_10  and  C_12
REMARK                            x       y       z     vdW  Elec       q    Type
REMARK                         _______ _______ _______ _____ _____    ______ ____
ROOT
ATOM      1  C   UNL     1       1.752  16.073  19.115  0.00  0.00    +0.000 A 
ATOM      2  C   UNL     1       2.859  16.053  18.261  0.00  0.00    +0.000 A 
ATOM      3  C   UNL     1       3.281  14.852  17.718  0.00  0.00    +0.000 A 
ATOM      4  C   UNL     1       2.644  13.671  18.097  0.00  0.00    +0.000 A 
ATOM      5  C   UNL     1       1.571  13.648  19.048  0.00  0.00    +0.000 A 
ATOM      6  C   UNL     1       0.915  12.502  19.606  0.00  0.00    +0.000 A 
ATOM      7  N   UNL     1       1.463  11.230  19.231  0.00  0.00    +0.000 N 
ATOM      8  C   UNL     1       0.951   9.984  19.506  0.00  0.00    +0.000 C 
ATOM      9  O   UNL     1      -0.129   9.788  20.063  0.00  0.00    +0.000 OA
ATOM     10  N   UNL     1      -0.137  12.581  20.485  0.00  0.00    +0.000 NA
ATOM     11  C   UNL     1      -0.589  13.820  20.757  0.00  0.00    +0.000 A 
ATOM     12  N   UNL     1      -1.735  14.134  21.563  0.00  0.00    +0.000 N 
ATOM     13  C   UNL     1      -2.502  15.275  21.287  0.00  0.00    +0.000 A 
ATOM     14  N   UNL     1      -3.406  15.212  20.260  0.00  0.00    +0.000 N 
ATOM     15  N   UNL     1      -2.760  15.863  22.431  0.00  0.00    +0.000 NA
ATOM     16  C   UNL     1      -2.970  14.778  23.227  0.00  0.00    +0.000 A 
ATOM     17  C   UNL     1      -3.741  14.747  24.394  0.00  0.00    +0.000 A 
ATOM     18  C   UNL     1      -4.224  13.511  24.804  0.00  0.00    +0.000 A 
ATOM     19  C   UNL     1      -3.847  12.344  24.126  0.00  0.00    +0.000 A 
ATOM     20  C   UNL     1      -2.910  12.342  23.064  0.00  0.00    +0.000 A 
ATOM     21  C   UNL     1      -2.490  13.595  22.611  0.00  0.00    +0.000 A 
ATOM     22  N   UNL     1       0.012  14.934  20.281  0.00  0.00    +0.000 NA
ATOM     23  C   UNL     1       1.094  14.878  19.498  0.00  0.00    +0.000 A 
ATOM     24  H   UNL     1       2.297  11.256  18.673  0.00  0.00    +0.000 HD
ATOM     25  H   UNL     1      -3.264  14.460  19.591  0.00  0.00    +0.000 HD
ATOM     26  H   UNL     1      -4.346  15.095  20.647  0.00  0.00    +0.000 HD
ENDROOT
BRANCH   8  27
ATOM     27  C   UNL     1       1.746   8.769  19.050  0.00  0.00    +0.000 A 
ATOM     28  C   UNL     1       2.400   8.640  17.814  0.00  0.00    +0.000 A 
ATOM     29  C   UNL     1       3.135   7.471  17.499  0.00  0.00    +0.000 A 
ATOM     30  C   UNL     1       3.220   6.426  18.414  0.00  0.00    +0.000 A 
ATOM     31  C   UNL     1       2.573   6.533  19.642  0.00  0.00    +0.000 A 
ATOM     32  C   UNL     1       1.843   7.688  19.951  0.00  0.00    +0.000 A 
ENDBRANCH   8  27
BRANCH   1  34
ATOM     33  C   UNL     1       0.743  18.226  18.776  0.00  0.00    +0.000 C 
ATOM     34  O   UNL     1       1.262  17.241  19.664  0.00  0.00    +0.000 OA
ENDBRANCH   1  34
TORSDOF 2
ENDMDL
MODEL 4
REMARK VINA RESULT:      -7.1      7.607     10.000
REMARK  Name = 
REMARK  3 active torsions:
REMARK  status: ('A' for Active; 'I' for Inactive)
REMARK    1  A    between atoms: C_1  and  O_2
REMARK    2  A    between atoms: O_2  and  C_3
REMARK    3  A    between atoms: C_10  and  C_12
REMARK                            x       y       z     vdW  Elec       q    Type
REMARK                         _______ _______ _______ _____ _____    ______ ____
ROOT
ATOM      1  C   UNL     1       5.848  13.385  25.946  0.00  0.00    +0.000 A 
ATOM      2  C   UNL     1       6.895  12.754  26.624  0.00  0.00    +0.000 A 
ATOM      3  C   UNL     1       8.090  12.516  25.966  0.00  0.00    +0.000 A 
ATOM      4  C   UNL     1       8.199  12.838  24.614  0.00  0.00    +0.000 A 
ATOM      5  C   UNL     1       7.109  13.393  23.866  0.00  0.00    +0.000 A 
ATOM      6  C   UNL     1       7.053  13.657  22.458  0.00  0.00    +0.000 A 
ATOM      7  N   UNL     1       8.195  13.229  21.701  0.00  0.00    +0.000 N 
ATOM      8  C   UNL     1       8.461  13.478  20.376  0.00  0.00    +0.000 C 
ATOM      9  O   UNL     1       7.769  14.196  19.654  0.00  0.00    +0.000 OA
ATOM     10  N   UNL     1       5.973  14.234  21.834  0.00  0.00    +0.000 NA
ATOM     11  C   UNL     1       4.963  14.617  22.637  0.00  0.00    +0.000 A 
ATOM     12  N   UNL     1       3.786  15.327  22.219  0.00  0.00    +0.000 N 
ATOM     13  C   UNL     1       3.153  16.222  23.093  0.00  0.00    +0.000 A 
ATOM     14  N   UNL     1       3.694  17.472  23.240  0.00  0.00    +0.000 N 
ATOM     15  N   UNL     1       1.861  16.009  23.008  0.00  0.00    +0.000 NA
ATOM     16  C   UNL     1       1.734  15.774  21.673  0.00  0.00    +0.000 A 
ATOM     17  C   UNL     1       0.579  15.965  20.907  0.00  0.00    +0.000 A 
ATOM     18  C   UNL     1       0.743  16.130  19.539  0.00  0.00    +0.000 A 
ATOM     19  C   UNL     1       2.011  15.993  18.957  0.00  0.00    +0.000 A 
ATOM     20  C   UNL     1       3.156  15.605  19.695  0.00  0.00    +0.000 A 
ATOM     21  C   UNL     1       2.996  15.516  21.080  0.00  0.00    +0.000 A 
ATOM     22  N   UNL     1       4.952  14.365  23.965  0.00  0.00    +0.000 NA
ATOM     23  C   UNL     1       5.955  13.723  24.574  0.00  0.00    +0.000 A 
ATOM     24  H   UNL     1       8.895  12.720  22.208  0.00  0.00    +0.000 HD
ATOM     25  H   UNL     1       4.660  17.575  22.940  0.00  0.00    +0.000 HD
ATOM     26  H   UNL     1       3.141  18.143  22.702  0.00  0.00    +0.000 HD
ENDROOT
BRANCH   8  27
ATOM     27  C   UNL     1       9.716  12.866  19.772  0.00  0.00    +0.000 A 
ATOM     28  C   UNL     1      10.857  12.469  20.492  0.00  0.00    +0.000 A 
ATOM     29  C   UNL     1      11.966  11.886  19.832  0.00  0.00    +0.000 A 
ATOM     30  C   UNL     1      11.945  11.696  18.454  0.00  0.00    +0.000 A 
ATOM     31  C   UNL     1      10.827  12.089  17.723  0.00  0.00    +0.000 A 
ATOM     32  C   UNL     1       9.731  12.669  18.376  0.00  0.00    +0.000 A 
ENDBRANCH   8  27
BRANCH   1  34
ATOM     33  C   UNL     1       4.348  13.038  27.790  0.00  0.00    +0.000 C 
ATOM     34  O   UNL     1       4.644  13.680  26.554  0.00  0.00    +0.000 OA
ENDBRANCH   1  34
TORSDOF 2
ENDMDL
MODEL 5
REMARK VINA RESULT:      -7.1      3.363      4.233
REMARK  Name = 
REMARK  3 active torsions:
REMARK  status: ('A' for Active; 'I' for Inactive)
REMARK    1  A    between atoms: C_1  and  O_2
REMARK    2  A    between atoms: O_2  and  C_3
REMARK    3  A    between atoms: C_10  and  C_12
REMARK                            x       y       z     vdW  Elec       q    Type
REMARK                         _______ _______ _______ _____ _____    ______ ____
ROOT
ATOM      1  C   UNL     1      -4.270  11.096  18.388  0.00  0.00    +0.000 A 
ATOM      2  C   UNL     1      -3.749  10.438  17.270  0.00  0.00    +0.000 A 
ATOM      3  C   UNL     1      -2.417  10.613  16.934  0.00  0.00    +0.000 A 
ATOM      4  C   UNL     1      -1.639  11.505  17.671  0.00  0.00    +0.000 A 
ATOM      5  C   UNL     1      -2.173  12.270  18.761  0.00  0.00    +0.000 A 
ATOM      6  C   UNL     1      -1.517  13.297  19.517  0.00  0.00    +0.000 A 
ATOM      7  N   UNL     1      -0.204  13.658  19.066  0.00  0.00    +0.000 N 
ATOM      8  C   UNL     1       0.690  14.502  19.681  0.00  0.00    +0.000 C 
ATOM      9  O   UNL     1       0.507  15.017  20.785  0.00  0.00    +0.000 OA
ATOM     10  N   UNL     1      -2.099  13.948  20.578  0.00  0.00    +0.000 NA
ATOM     11  C   UNL     1      -3.325  13.520  20.934  0.00  0.00    +0.000 A 
ATOM     12  N   UNL     1      -4.075  13.983  22.068  0.00  0.00    +0.000 N 
ATOM     13  C   UNL     1      -4.954  13.118  22.735  0.00  0.00    +0.000 A 
ATOM     14  N   UNL     1      -4.423  12.217  23.621  0.00  0.00    +0.000 N 
ATOM     15  N   UNL     1      -6.061  13.782  22.969  0.00  0.00    +0.000 NA
ATOM     16  C   UNL     1      -5.555  15.007  23.280  0.00  0.00    +0.000 A 
ATOM     17  C   UNL     1      -6.174  15.978  24.075  0.00  0.00    +0.000 A 
ATOM     18  C   UNL     1      -5.357  16.934  24.663  0.00  0.00    +0.000 A 
ATOM     19  C   UNL     1      -3.988  16.973  24.367  0.00  0.00    +0.000 A 
ATOM     20  C   UNL     1      -3.384  16.119  23.412  0.00  0.00    +0.000 A 
ATOM     21  C   UNL     1      -4.198  15.113  22.884  0.00  0.00    +0.000 A 
ATOM     22  N   UNL     1      -3.998  12.577  20.237  0.00  0.00    +0.000 NA
ATOM     23  C   UNL     1      -3.484  11.997  19.148  0.00  0.00    +0.000 A 
ATOM     24  H   UNL     1       0.109  13.215  18.222  0.00  0.00    +0.000 HD
ATOM     25  H   UNL     1      -3.427  12.037  23.526  0.00  0.00    +0.000 HD
ATOM     26  H   UNL     1      -4.578  12.554  24.574  0.00  0.00    +0.000 HD
ENDROOT
BRANCH   8  27
ATOM     27  C   UNL     1       2.009  14.780  18.977  0.00  0.00    +0.000 A 
ATOM     28  C   UNL     1       3.084  13.881  18.875  0.00  0.00    +0.000 A 
ATOM     29  C   UNL     1       4.263  14.234  18.175  0.00  0.00    +0.000 A 
ATOM     30  C   UNL     1       4.377  15.484  17.573  0.00  0.00    +0.000 A 
ATOM     31  C   UNL     1       3.325  16.391  17.669  0.00  0.00    +0.000 A 
ATOM     32  C   UNL     1       2.160  16.042  18.366  0.00  0.00    +0.000 A 
ENDBRANCH   8  27
BRANCH   1  34
ATOM     33  C   UNL     1      -6.599  11.535  17.999  0.00  0.00    +0.000 C 
ATOM     34  O   UNL     1      -5.580  10.939  18.795  0.00  0.00    +0.000 OA
ENDBRANCH   1  34
TORSDOF 2
ENDMDL
MODEL 6
REMARK VINA RESULT:      -7.1      8.640     11.566
REMARK  Name = 
REMARK  3 active torsions:
REMARK  status: ('A' for Active; 'I' for Inactive)
REMARK    1  A    between atoms: C_1  and  O_2
REMARK    2  A    between atoms: O_2  and  C_3
REMARK    3  A    between atoms: C_10  and  C_12
REMARK                            x       y       z     vdW  Elec       q    Type
REMARK                         _______ _______ _______ _____ _____    ______ ____
ROOT
ATOM      1  C   UNL     1       4.719  16.072  20.330  0.00  0.00    +0.000 A 
ATOM      2  C   UNL     1       3.539  16.395  21.007  0.00  0.00    +0.000 A 
ATOM      3  C   UNL     1       3.358  15.960  22.309  0.00  0.00    +0.000 A 
ATOM      4  C   UNL     1       4.321  15.140  22.895  0.00  0.00    +0.000 A 
ATOM      5  C   UNL     1       5.494  14.710  22.191  0.00  0.00    +0.000 A 
ATOM      6  C   UNL     1       6.493  13.781  22.633  0.00  0.00    +0.000 A 
ATOM      7  N   UNL     1       6.234  13.145  23.893  0.00  0.00    +0.000 N 
ATOM      8  C   UNL     1       7.078  12.329  24.608  0.00  0.00    +0.000 C 
ATOM      9  O   UNL     1       8.244  12.091  24.289  0.00  0.00    +0.000 OA
ATOM     10  N   UNL     1       7.610  13.460  21.901  0.00  0.00    +0.000 NA
ATOM     11  C   UNL     1       7.770  14.128  20.743  0.00  0.00    +0.000 A 
ATOM     12  N   UNL     1       8.907  14.030  19.871  0.00  0.00    +0.000 N 
ATOM     13  C   UNL     1       9.311  15.135  19.109  0.00  0.00    +0.000 A 
ATOM     14  N   UNL     1      10.040  16.115  19.731  0.00  0.00    +0.000 N 
ATOM     15  N   UNL     1       9.581  14.704  17.900  0.00  0.00    +0.000 NA
ATOM     16  C   UNL     1      10.173  13.512  18.187  0.00  0.00    +0.000 A 
ATOM     17  C   UNL     1      11.091  12.831  17.380  0.00  0.00    +0.000 A 
ATOM     18  C   UNL     1      11.926  11.912  18.003  0.00  0.00    +0.000 A 
ATOM     19  C   UNL     1      11.759  11.613  19.361  0.00  0.00    +0.000 A 
ATOM     20  C   UNL     1      10.705  12.149  20.142  0.00  0.00    +0.000 A 
ATOM     21  C   UNL     1       9.920  13.128  19.528  0.00  0.00    +0.000 A 
ATOM     22  N   UNL     1       6.844  14.991  20.267  0.00  0.00    +0.000 NA
ATOM     23  C   UNL     1       5.707  15.246  20.922  0.00  0.00    +0.000 A 
ATOM     24  H   UNL     1       5.347  13.349  24.316  0.00  0.00    +0.000 HD
ATOM     25  H   UNL     1       9.994  16.124  20.747  0.00  0.00    +0.000 HD
ATOM     26  H   UNL     1      11.025  16.013  19.476  0.00  0.00    +0.000 HD
ENDROOT
BRANCH   8  27
ATOM     27  C   UNL     1       6.557  11.719  25.900  0.00  0.00    +0.000 A 
ATOM     28  C   UNL     1       5.406  10.922  26.020  0.00  0.00    +0.000 A 
ATOM     29  C   UNL     1       5.022  10.382  27.271  0.00  0.00    +0.000 A 
ATOM     30  C   UNL     1       5.783  10.634  28.409  0.00  0.00    +0.000 A 
ATOM     31  C   UNL     1       6.923  11.427  28.312  0.00  0.00    +0.000 A 
ATOM     32  C   UNL     1       7.300  11.964  27.075  0.00  0.00    +0.000 A 
ENDBRANCH   8  27
BRANCH   1  34
ATOM     33  C   UNL     1       3.999  16.225  18.044  0.00  0.00    +0.000 C 
ATOM     34  O   UNL     1       4.975  16.500  19.043  0.00  0.00    +0.000 OA
ENDBRANCH   1  34
TORSDOF 2
ENDMDL
MODEL 7
REMARK VINA RESULT:      -7.0      3.607      4.625
REMARK  Name = 
REMARK  3 active torsions:
REMARK  status: ('A' for Active; 'I' for Inactive)
REMARK    1  A    between atoms: C_1  and  O_2
REMARK    2  A    between atoms: O_2  and  C_3
REMARK    3  A    between atoms: C_10  and  C_12
REMARK                            x       y       z     vdW  Elec       q    Type
REMARK                         _______ _______ _______ _____ _____    ______ ____
ROOT
ATOM      1  C   UNL     1       1.966  16.471  18.845  0.00  0.00    +0.000 A 
ATOM      2  C   UNL     1       3.055  16.305  17.985  0.00  0.00    +0.000 A 
ATOM      3  C   UNL     1       3.385  15.037  17.537  0.00  0.00    +0.000 A 
ATOM      4  C   UNL     1       2.673  13.938  18.016  0.00  0.00    +0.000 A 
ATOM      5  C   UNL     1       1.615  14.068  18.976  0.00  0.00    +0.000 A 
ATOM      6  C   UNL     1       0.890  13.018  19.631  0.00  0.00    +0.000 A 
ATOM      7  N   UNL     1       1.342  11.685  19.354  0.00  0.00    +0.000 N 
ATOM      8  C   UNL     1       0.749  10.505  19.733  0.00  0.00    +0.000 C 
ATOM      9  O   UNL     1      -0.334  10.430  20.314  0.00  0.00    +0.000 OA
ATOM     10  N   UNL     1      -0.142  13.241  20.510  0.00  0.00    +0.000 NA
ATOM     11  C   UNL     1      -0.501  14.527  20.685  0.00  0.00    +0.000 A 
ATOM     12  N   UNL     1      -1.612  14.984  21.474  0.00  0.00    +0.000 N 
ATOM     13  C   UNL     1      -2.300  16.151  21.114  0.00  0.00    +0.000 A 
ATOM     14  N   UNL     1      -3.223  16.070  20.103  0.00  0.00    +0.000 N 
ATOM     15  N   UNL     1      -2.501  16.845  22.209  0.00  0.00    +0.000 NA
ATOM     16  C   UNL     1      -2.774  15.845  23.091  0.00  0.00    +0.000 A 
ATOM     17  C   UNL     1      -3.527  15.961  24.264  0.00  0.00    +0.000 A 
ATOM     18  C   UNL     1      -4.089  14.799  24.777  0.00  0.00    +0.000 A 
ATOM     19  C   UNL     1      -3.805  13.558  24.192  0.00  0.00    +0.000 A 
ATOM     20  C   UNL     1      -2.885  13.405  23.125  0.00  0.00    +0.000 A 
ATOM     21  C   UNL     1      -2.386  14.586  22.568  0.00  0.00    +0.000 A 
ATOM     22  N   UNL     1       0.168  15.555  20.116  0.00  0.00    +0.000 NA
ATOM     23  C   UNL     1       1.231  15.360  19.329  0.00  0.00    +0.000 A 
ATOM     24  H   UNL     1       2.167  11.608  18.788  0.00  0.00    +0.000 HD
ATOM     25  H   UNL     1      -3.143  15.259  19.496  0.00  0.00    +0.000 HD
ATOM     26  H   UNL     1      -4.162  16.051  20.508  0.00  0.00    +0.000 HD
ENDROOT
BRANCH   8  27
ATOM     27  C   UNL     1       1.450   9.204  19.370  0.00  0.00    +0.000 A 
ATOM     28  C   UNL     1       1.608   8.098  20.222  0.00  0.00    +0.000 A 
ATOM     29  C   UNL     1       2.259   6.923  19.774  0.00  0.00    +0.000 A 
ATOM     30  C   UNL     1       2.755   6.844  18.476  0.00  0.00    +0.000 A 
ATOM     31  C   UNL     1       2.614   7.932  17.620  0.00  0.00    +0.000 A 
ATOM     32  C   UNL     1       1.973   9.096  18.065  0.00  0.00    +0.000 A 
ENDBRANCH   8  27
BRANCH   1  34
ATOM     33  C   UNL     1       0.906  18.577  18.386  0.00  0.00    +0.000 C 
ATOM     34  O   UNL     1       1.566  17.711  19.302  0.00  0.00    +0.000 OA
ENDBRANCH   1  34
TORSDOF 2
ENDMDL
MODEL 8
REMARK VINA RESULT:      -6.8      8.483     12.461
REMARK  Name = 
REMARK  3 active torsions:
REMARK  status: ('A' for Active; 'I' for Inactive)
REMARK    1  A    between atoms: C_1  and  O_2
REMARK    2  A    between atoms: O_2  and  C_3
REMARK    3  A    between atoms: C_10  and  C_12
REMARK                            x       y       z     vdW  Elec       q    Type
REMARK                         _______ _______ _______ _____ _____    ______ ____
ROOT
ATOM      1  C   UNL     1       7.346  14.403  24.360  0.00  0.00    +0.000 A 
ATOM      2  C   UNL     1       6.356  14.920  25.201  0.00  0.00    +0.000 A 
ATOM      3  C   UNL     1       5.167  15.374  24.657  0.00  0.00    +0.000 A 
ATOM      4  C   UNL     1       5.010  15.382  23.271  0.00  0.00    +0.000 A 
ATOM      5  C   UNL     1       6.047  14.951  22.378  0.00  0.00    +0.000 A 
ATOM      6  C   UNL     1       6.056  15.018  20.946  0.00  0.00    +0.000 A 
ATOM      7  N   UNL     1       4.930  15.677  20.348  0.00  0.00    +0.000 N 
ATOM      8  C   UNL     1       4.621  15.758  19.011  0.00  0.00    +0.000 C 
ATOM      9  O   UNL     1       5.251  15.187  18.120  0.00  0.00    +0.000 OA
ATOM     10  N   UNL     1       7.083  14.539  20.170  0.00  0.00    +0.000 NA
ATOM     11  C   UNL     1       8.083  13.921  20.827  0.00  0.00    +0.000 A 
ATOM     12  N   UNL     1       9.202  13.259  20.216  0.00  0.00    +0.000 N 
ATOM     13  C   UNL     1       9.793  12.151  20.839  0.00  0.00    +0.000 A 
ATOM     14  N   UNL     1       9.174  10.935  20.713  0.00  0.00    +0.000 N 
ATOM     15  N   UNL     1      11.094  12.302  20.761  0.00  0.00    +0.000 NA
ATOM     16  C   UNL     1      11.209  12.831  19.512  0.00  0.00    +0.000 A 
ATOM     17  C   UNL     1      12.333  12.755  18.684  0.00  0.00    +0.000 A 
ATOM     18  C   UNL     1      12.131  12.922  17.320  0.00  0.00    +0.000 A 
ATOM     19  C   UNL     1      10.864  13.264  16.830  0.00  0.00    +0.000 A 
ATOM     20  C   UNL     1       9.761  13.538  17.676  0.00  0.00    +0.000 A 
ATOM     21  C   UNL     1       9.955  13.293  19.038  0.00  0.00    +0.000 A 
ATOM     22  N   UNL     1       8.136  13.857  22.177  0.00  0.00    +0.000 NA
ATOM     23  C   UNL     1       7.191  14.399  22.951  0.00  0.00    +0.000 A 
ATOM     24  H   UNL     1       4.275  16.094  20.983  0.00  0.00    +0.000 HD
ATOM     25  H   UNL     1       8.197  10.962  20.432  0.00  0.00    +0.000 HD
ATOM     26  H   UNL     1       9.671  10.376  20.016  0.00  0.00    +0.000 HD
ENDROOT
BRANCH   8  27
ATOM     27  C   UNL     1       3.397  16.565  18.609  0.00  0.00    +0.000 A 
ATOM     28  C   UNL     1       3.006  16.852  17.290  0.00  0.00    +0.000 A 
ATOM     29  C   UNL     1       1.831  17.595  17.024  0.00  0.00    +0.000 A 
ATOM     30  C   UNL     1       1.039  18.057  18.072  0.00  0.00    +0.000 A 
ATOM     31  C   UNL     1       1.413  17.789  19.386  0.00  0.00    +0.000 A 
ATOM     32  C   UNL     1       2.578  17.057  19.647  0.00  0.00    +0.000 A 
ENDBRANCH   8  27
BRANCH   1  34
ATOM     33  C   UNL     1       8.573  13.440  26.186  0.00  0.00    +0.000 C 
ATOM     34  O   UNL     1       8.541  13.905  24.842  0.00  0.00    +0.000 OA
ENDBRANCH   1  34
TORSDOF 2
ENDMDL
MODEL 9
REMARK VINA RESULT:      -6.8      2.371      7.718
REMARK  Name = 
REMARK  3 active torsions:
REMARK  status: ('A' for Active; 'I' for Inactive)
REMARK    1  A    between atoms: C_1  and  O_2
REMARK    2  A    between atoms: O_2  and  C_3
REMARK    3  A    between atoms: C_10  and  C_12
REMARK                            x       y       z     vdW  Elec       q    Type
REMARK                         _______ _______ _______ _____ _____    ______ ____
ROOT
ATOM      1  C   UNL     1      -6.505  11.480  19.698  0.00  0.00    +0.000 A 
ATOM      2  C   UNL     1      -7.673  11.960  20.296  0.00  0.00    +0.000 A 
ATOM      3  C   UNL     1      -7.632  13.132  21.033  0.00  0.00    +0.000 A 
ATOM      4  C   UNL     1      -6.407  13.770  21.231  0.00  0.00    +0.000 A 
ATOM      5  C   UNL     1      -5.176  13.246  20.714  0.00  0.00    +0.000 A 
ATOM      6  C   UNL     1      -3.849  13.736  20.942  0.00  0.00    +0.000 A 
ATOM      7  N   UNL     1      -3.740  14.824  21.872  0.00  0.00    +0.000 N 
ATOM      8  C   UNL     1      -2.620  15.565  22.166  0.00  0.00    +0.000 C 
ATOM      9  O   UNL     1      -1.539  15.442  21.590  0.00  0.00    +0.000 OA
ATOM     10  N   UNL     1      -2.727  13.190  20.367  0.00  0.00    +0.000 NA
ATOM     11  C   UNL     1      -2.939  12.186  19.495  0.00  0.00    +0.000 A 
ATOM     12  N   UNL     1      -1.931  11.539  18.703  0.00  0.00    +0.000 N 
ATOM     13  C   UNL     1      -2.247  11.027  17.437  0.00  0.00    +0.000 A 
ATOM     14  N   UNL     1      -2.319  11.905  16.387  0.00  0.00    +0.000 N 
ATOM     15  N   UNL     1      -1.692   9.843  17.340  0.00  0.00    +0.000 NA
ATOM     16  C   UNL     1      -0.510  10.068  17.978  0.00  0.00    +0.000 A 
ATOM     17  C   UNL     1       0.682   9.362  17.782  0.00  0.00    +0.000 A 
ATOM     18  C   UNL     1       1.863   9.997  18.141  0.00  0.00    +0.000 A 
ATOM     19  C   UNL     1       1.830  11.245  18.777  0.00  0.00    +0.000 A 
ATOM     20  C   UNL     1       0.623  11.880  19.160  0.00  0.00    +0.000 A 
ATOM     21  C   UNL     1      -0.558  11.271  18.726  0.00  0.00    +0.000 A 
ATOM     22  N   UNL     1      -4.167  11.668  19.266  0.00  0.00    +0.000 NA
ATOM     23  C   UNL     1      -5.259  12.127  19.887  0.00  0.00    +0.000 A 
ATOM     24  H   UNL     1      -4.589  15.097  22.332  0.00  0.00    +0.000 HD
ATOM     25  H   UNL     1      -2.426  12.885  16.635  0.00  0.00    +0.000 HD
ATOM     26  H   UNL     1      -1.467  11.829  15.826  0.00  0.00    +0.000 HD
ENDROOT
BRANCH   8  27
ATOM     27  C   UNL     1      -2.736  16.639  23.237  0.00  0.00    +0.000 A 
ATOM     28  C   UNL     1      -1.677  17.428  23.718  0.00  0.00    +0.000 A 
ATOM     29  C   UNL     1      -1.898  18.420  24.703  0.00  0.00    +0.000 A 
ATOM     30  C   UNL     1      -3.175  18.631  25.214  0.00  0.00    +0.000 A 
ATOM     31  C   UNL     1      -4.236  17.855  24.755  0.00  0.00    +0.000 A 
ATOM     32  C   UNL     1      -4.015  16.871  23.783  0.00  0.00    +0.000 A 
ENDBRANCH   8  27
BRANCH   1  34
ATOM     33  C   UNL     1      -7.043   9.150  19.480  0.00  0.00    +0.000 C 
ATOM     34  O   UNL     1      -6.486  10.336  18.925  0.00  0.00    +0.000 OA
ENDBRANCH   1  34
TORSDOF 2
ENDMDL
