MODEL 1
REMARK VINA RESULT:      -8.0      0.000      0.000
REMARK  Name = 
REMARK  4 active torsions:
REMARK  status: ('A' for Active; 'I' for Inactive)
REMARK    1  A    between atoms: C_1  and  S_2
REMARK    2  A    between atoms: S_2  and  N_5
REMARK    3  A    between atoms: C_13  and  C_15
REMARK    4  A    between atoms: C_19  and  C_20
REMARK                            x       y       z     vdW  Elec       q    Type
REMARK                         _______ _______ _______ _____ _____    ______ ____
ROOT
ATOM      1  N   UNL     1       4.885   3.589  18.337  0.00  0.00    +0.000 NA
ATOM      2  C   UNL     1       4.239   3.338  17.017  0.00  0.00    +0.000 C 
ATOM      3  C   UNL     1       2.690   3.293  17.043  0.00  0.00    +0.000 C 
ATOM      4  C   UNL     1       2.153   2.018  17.732  0.00  0.00    +0.000 C 
ATOM      5  C   UNL     1       1.921   2.238  19.230  0.00  0.00    +0.000 C 
ATOM      6  C   UNL     1       2.803   3.386  19.747  0.00  0.00    +0.000 C 
ATOM      7  C   UNL     1       4.271   2.947  19.508  0.00  0.00    +0.000 C 
ATOM      8  N   UNL     1       2.429   4.681  19.086  0.00  0.00    +0.000 N 
ATOM      9  C   UNL     1       2.641   5.885  19.793  0.00  0.00    +0.000 C 
ATOM     10  O   UNL     1       3.143   5.810  20.923  0.00  0.00    +0.000 OA
ATOM     11  C   UNL     1       2.064   4.551  17.678  0.00  0.00    +0.000 C 
ENDROOT
BRANCH   9  12
ATOM     12  C   UNL     1       2.268   7.299  19.355  0.00  0.00    +0.000 A 
ATOM     13  C   UNL     1       2.329   7.816  18.057  0.00  0.00    +0.000 A 
ATOM     14  C   UNL     1       1.661   9.019  17.728  0.00  0.00    +0.000 A 
ATOM     15  C   UNL     1       0.900   9.709  18.674  0.00  0.00    +0.000 A 
ATOM     16  C   UNL     1       0.855   9.252  19.990  0.00  0.00    +0.000 A 
ATOM     17  C   UNL     1       1.594   8.091  20.324  0.00  0.00    +0.000 A 
BRANCH  16  18
ATOM     18  C   UNL     1      -0.023   9.939  21.017  0.00  0.00    +0.000 C 
ATOM     19  F   UNL     1      -1.049  10.645  20.456  0.00  0.00    +0.000 F 
ATOM     20  F   UNL     1      -0.616   9.063  21.876  0.00  0.00    +0.000 F 
ATOM     21  F   UNL     1       0.653  10.828  21.795  0.00  0.00    +0.000 F 
ENDBRANCH  16  18
ENDBRANCH   9  12
BRANCH   1  23
ATOM     22  C   UNL     1       7.359   4.642  17.660  0.00  0.00    +0.000 C 
ATOM     23  S   UNL     1       5.812   4.989  18.491  0.00  0.00    +0.000 S 
ATOM     24  O   UNL     1       6.064   5.199  19.905  0.00  0.00    +0.000 OA
ATOM     25  O   UNL     1       5.123   6.010  17.738  0.00  0.00    +0.000 OA
ENDBRANCH   1  23
TORSDOF 3
ENDMDL
MODEL 2
REMARK VINA RESULT:      -7.4      0.984      1.286
REMARK  Name = 
REMARK  4 active torsions:
REMARK  status: ('A' for Active; 'I' for Inactive)
REMARK    1  A    between atoms: C_1  and  S_2
REMARK    2  A    between atoms: S_2  and  N_5
REMARK    3  A    between atoms: C_13  and  C_15
REMARK    4  A    between atoms: C_19  and  C_20
REMARK                            x       y       z     vdW  Elec       q    Type
REMARK                         _______ _______ _______ _____ _____    ______ ____
ROOT
ATOM      1  N   UNL     1       4.075   3.135  17.744  0.00  0.00    +0.000 NA
ATOM      2  C   UNL     1       2.826   2.834  16.988  0.00  0.00    +0.000 C 
ATOM      3  C   UNL     1       1.513   3.014  17.792  0.00  0.00    +0.000 C 
ATOM      4  C   UNL     1       1.326   1.915  18.861  0.00  0.00    +0.000 C 
ATOM      5  C   UNL     1       1.915   2.332  20.213  0.00  0.00    +0.000 C 
ATOM      6  C   UNL     1       3.010   3.391  20.017  0.00  0.00    +0.000 C 
ATOM      7  C   UNL     1       4.112   2.723  19.154  0.00  0.00    +0.000 C 
ATOM      8  N   UNL     1       2.435   4.645  19.423  0.00  0.00    +0.000 N 
ATOM      9  C   UNL     1       3.061   5.877  19.714  0.00  0.00    +0.000 C 
ATOM     10  O   UNL     1       4.067   5.857  20.435  0.00  0.00    +0.000 OA
ATOM     11  C   UNL     1       1.389   4.412  18.432  0.00  0.00    +0.000 C 
ENDROOT
BRANCH   9  12
ATOM     12  C   UNL     1       2.609   7.272  19.289  0.00  0.00    +0.000 A 
ATOM     13  C   UNL     1       2.721   7.835  18.014  0.00  0.00    +0.000 A 
ATOM     14  C   UNL     1       1.985   8.993  17.670  0.00  0.00    +0.000 A 
ATOM     15  C   UNL     1       1.107   9.592  18.576  0.00  0.00    +0.000 A 
ATOM     16  C   UNL     1       1.005   9.089  19.873  0.00  0.00    +0.000 A 
ATOM     17  C   UNL     1       1.808   7.977  20.227  0.00  0.00    +0.000 A 
BRANCH  16  18
ATOM     18  C   UNL     1       0.005   9.672  20.850  0.00  0.00    +0.000 C 
ATOM     19  F   UNL     1       0.568  10.552  21.730  0.00  0.00    +0.000 F 
ATOM     20  F   UNL     1      -0.992  10.367  20.234  0.00  0.00    +0.000 F 
ATOM     21  F   UNL     1      -0.612   8.731  21.616  0.00  0.00    +0.000 F 
ENDBRANCH  16  18
ENDBRANCH   9  12
BRANCH   1  23
ATOM     22  C   UNL     1       5.922   3.735  15.766  0.00  0.00    +0.000 C 
ATOM     23  S   UNL     1       5.038   4.396  17.175  0.00  0.00    +0.000 S 
ATOM     24  O   UNL     1       5.987   4.735  18.219  0.00  0.00    +0.000 OA
ATOM     25  O   UNL     1       4.129   5.409  16.693  0.00  0.00    +0.000 OA
ENDBRANCH   1  23
TORSDOF 3
ENDMDL
MODEL 3
REMARK VINA RESULT:      -7.3      5.321      7.150
REMARK  Name = 
REMARK  4 active torsions:
REMARK  status: ('A' for Active; 'I' for Inactive)
REMARK    1  A    between atoms: C_1  and  S_2
REMARK    2  A    between atoms: S_2  and  N_5
REMARK    3  A    between atoms: C_13  and  C_15
REMARK    4  A    between atoms: C_19  and  C_20
REMARK                            x       y       z     vdW  Elec       q    Type
REMARK                         _______ _______ _______ _____ _____    ______ ____
ROOT
ATOM      1  N   UNL     1       5.573   5.050  19.170  0.00  0.00    +0.000 NA
ATOM      2  C   UNL     1       5.227   3.602  19.238  0.00  0.00    +0.000 C 
ATOM      3  C   UNL     1       4.039   3.168  18.342  0.00  0.00    +0.000 C 
ATOM      4  C   UNL     1       2.684   3.685  18.874  0.00  0.00    +0.000 C 
ATOM      5  C   UNL     1       2.318   5.044  18.269  0.00  0.00    +0.000 C 
ATOM      6  C   UNL     1       3.582   5.783  17.803  0.00  0.00    +0.000 C 
ATOM      7  C   UNL     1       4.453   5.996  19.070  0.00  0.00    +0.000 C 
ATOM      8  N   UNL     1       4.266   5.022  16.704  0.00  0.00    +0.000 N 
ATOM      9  C   UNL     1       5.026   5.743  15.757  0.00  0.00    +0.000 C 
ATOM     10  O   UNL     1       5.102   6.972  15.893  0.00  0.00    +0.000 OA
ATOM     11  C   UNL     1       4.225   3.571  16.865  0.00  0.00    +0.000 C 
ENDROOT
BRANCH   9  12
ATOM     12  C   UNL     1       5.736   5.194  14.522  0.00  0.00    +0.000 A 
ATOM     13  C   UNL     1       7.102   4.929  14.391  0.00  0.00    +0.000 A 
ATOM     14  C   UNL     1       7.584   4.131  13.327  0.00  0.00    +0.000 A 
ATOM     15  C   UNL     1       6.714   3.560  12.395  0.00  0.00    +0.000 A 
ATOM     16  C   UNL     1       5.349   3.841  12.464  0.00  0.00    +0.000 A 
ATOM     17  C   UNL     1       4.892   4.707  13.487  0.00  0.00    +0.000 A 
BRANCH  16  18
ATOM     18  C   UNL     1       4.376   3.176  11.512  0.00  0.00    +0.000 C 
ATOM     19  F   UNL     1       4.829   1.980  11.033  0.00  0.00    +0.000 F 
ATOM     20  F   UNL     1       3.175   2.899  12.094  0.00  0.00    +0.000 F 
ATOM     21  F   UNL     1       4.095   3.929  10.414  0.00  0.00    +0.000 F 
ENDBRANCH  16  18
ENDBRANCH   9  12
BRANCH   1  23
ATOM     22  C   UNL     1       8.158   5.518  20.057  0.00  0.00    +0.000 C 
ATOM     23  S   UNL     1       7.110   5.452  18.606  0.00  0.00    +0.000 S 
ATOM     24  O   UNL     1       7.033   6.773  18.012  0.00  0.00    +0.000 OA
ATOM     25  O   UNL     1       7.544   4.338  17.796  0.00  0.00    +0.000 OA
ENDBRANCH   1  23
TORSDOF 3
ENDMDL
MODEL 4
REMARK VINA RESULT:      -7.3      3.716      5.330
REMARK  Name = 
REMARK  4 active torsions:
REMARK  status: ('A' for Active; 'I' for Inactive)
REMARK    1  A    between atoms: C_1  and  S_2
REMARK    2  A    between atoms: S_2  and  N_5
REMARK    3  A    between atoms: C_13  and  C_15
REMARK    4  A    between atoms: C_19  and  C_20
REMARK                            x       y       z     vdW  Elec       q    Type
REMARK                         _______ _______ _______ _____ _____    ______ ____
ROOT
ATOM      1  N   UNL     1       7.009   5.380  16.088  0.00  0.00    +0.000 NA
ATOM      2  C   UNL     1       7.635   4.302  16.904  0.00  0.00    +0.000 C 
ATOM      3  C   UNL     1       7.527   4.493  18.438  0.00  0.00    +0.000 C 
ATOM      4  C   UNL     1       8.435   5.634  18.951  0.00  0.00    +0.000 C 
ATOM      5  C   UNL     1       7.697   6.976  18.984  0.00  0.00    +0.000 C 
ATOM      6  C   UNL     1       6.528   6.970  17.986  0.00  0.00    +0.000 C 
ATOM      7  C   UNL     1       7.154   6.756  16.584  0.00  0.00    +0.000 C 
ATOM      8  N   UNL     1       5.507   5.939  18.372  0.00  0.00    +0.000 N 
ATOM      9  C   UNL     1       4.159   6.156  18.012  0.00  0.00    +0.000 C 
ATOM     10  O   UNL     1       3.890   7.186  17.378  0.00  0.00    +0.000 OA
ATOM     11  C   UNL     1       6.076   4.708  18.914  0.00  0.00    +0.000 C 
ENDROOT
BRANCH   9  12
ATOM     12  C   UNL     1       2.951   5.290  18.362  0.00  0.00    +0.000 A 
ATOM     13  C   UNL     1       2.051   4.708  17.466  0.00  0.00    +0.000 A 
ATOM     14  C   UNL     1       1.177   3.678  17.887  0.00  0.00    +0.000 A 
ATOM     15  C   UNL     1       1.205   3.192  19.196  0.00  0.00    +0.000 A 
ATOM     16  C   UNL     1       2.055   3.781  20.132  0.00  0.00    +0.000 A 
ATOM     17  C   UNL     1       2.866   4.864  19.716  0.00  0.00    +0.000 A 
BRANCH  16  18
ATOM     18  C   UNL     1       2.159   3.224  21.537  0.00  0.00    +0.000 C 
ATOM     19  F   UNL     1       3.147   2.291  21.671  0.00  0.00    +0.000 F 
ATOM     20  F   UNL     1       2.440   4.181  22.465  0.00  0.00    +0.000 F 
ATOM     21  F   UNL     1       1.018   2.615  21.961  0.00  0.00    +0.000 F 
ENDBRANCH  16  18
ENDBRANCH   9  12
BRANCH   1  23
ATOM     22  C   UNL     1       6.481   4.136  13.667  0.00  0.00    +0.000 C 
ATOM     23  S   UNL     1       5.731   4.944  15.078  0.00  0.00    +0.000 S 
ATOM     24  O   UNL     1       5.078   6.163  14.639  0.00  0.00    +0.000 OA
ATOM     25  O   UNL     1       4.968   3.955  15.802  0.00  0.00    +0.000 OA
ENDBRANCH   1  23
TORSDOF 3
ENDMDL
MODEL 5
REMARK VINA RESULT:      -7.2      5.351      7.224
REMARK  Name = 
REMARK  4 active torsions:
REMARK  status: ('A' for Active; 'I' for Inactive)
REMARK    1  A    between atoms: C_1  and  S_2
REMARK    2  A    between atoms: S_2  and  N_5
REMARK    3  A    between atoms: C_13  and  C_15
REMARK    4  A    between atoms: C_19  and  C_20
REMARK                            x       y       z     vdW  Elec       q    Type
REMARK                         _______ _______ _______ _____ _____    ______ ____
ROOT
ATOM      1  N   UNL     1       5.710   4.993  19.049  0.00  0.00    +0.000 NA
ATOM      2  C   UNL     1       5.248   3.577  19.107  0.00  0.00    +0.000 C 
ATOM      3  C   UNL     1       4.017   3.251  18.224  0.00  0.00    +0.000 C 
ATOM      4  C   UNL     1       2.716   3.870  18.782  0.00  0.00    +0.000 C 
ATOM      5  C   UNL     1       2.453   5.262  18.197  0.00  0.00    +0.000 C 
ATOM      6  C   UNL     1       3.767   5.901  17.720  0.00  0.00    +0.000 C 
ATOM      7  C   UNL     1       4.669   6.027  18.975  0.00  0.00    +0.000 C 
ATOM      8  N   UNL     1       4.371   5.100  16.603  0.00  0.00    +0.000 N 
ATOM      9  C   UNL     1       5.173   5.768  15.652  0.00  0.00    +0.000 C 
ATOM     10  O   UNL     1       5.351   6.985  15.799  0.00  0.00    +0.000 OA
ATOM     11  C   UNL     1       4.214   3.656  16.749  0.00  0.00    +0.000 C 
ENDROOT
BRANCH   9  12
ATOM     12  C   UNL     1       5.819   5.177  14.400  0.00  0.00    +0.000 A 
ATOM     13  C   UNL     1       7.170   4.862  14.225  0.00  0.00    +0.000 A 
ATOM     14  C   UNL     1       7.584   4.033  13.157  0.00  0.00    +0.000 A 
ATOM     15  C   UNL     1       6.662   3.481  12.265  0.00  0.00    +0.000 A 
ATOM     16  C   UNL     1       5.312   3.812  12.377  0.00  0.00    +0.000 A 
ATOM     17  C   UNL     1       4.922   4.707  13.403  0.00  0.00    +0.000 A 
BRANCH  16  18
ATOM     18  C   UNL     1       4.282   3.169  11.471  0.00  0.00    +0.000 C 
ATOM     19  F   UNL     1       3.111   2.878  12.112  0.00  0.00    +0.000 F 
ATOM     20  F   UNL     1       3.930   3.965  10.423  0.00  0.00    +0.000 F 
ATOM     21  F   UNL     1       4.703   1.995  10.925  0.00  0.00    +0.000 F 
ENDBRANCH  16  18
ENDBRANCH   9  12
BRANCH   1  23
ATOM     22  C   UNL     1       7.274   6.974  17.903  0.00  0.00    +0.000 C 
ATOM     23  S   UNL     1       7.267   5.275  18.466  0.00  0.00    +0.000 S 
ATOM     24  O   UNL     1       7.483   4.394  17.334  0.00  0.00    +0.000 OA
ATOM     25  O   UNL     1       8.144   5.183  19.609  0.00  0.00    +0.000 OA
ENDBRANCH   1  23
TORSDOF 3
ENDMDL
MODEL 6
REMARK VINA RESULT:      -7.2      1.848      3.080
REMARK  Name = 
REMARK  4 active torsions:
REMARK  status: ('A' for Active; 'I' for Inactive)
REMARK    1  A    between atoms: C_1  and  S_2
REMARK    2  A    between atoms: S_2  and  N_5
REMARK    3  A    between atoms: C_13  and  C_15
REMARK    4  A    between atoms: C_19  and  C_20
REMARK                            x       y       z     vdW  Elec       q    Type
REMARK                         _______ _______ _______ _____ _____    ______ ____
ROOT
ATOM      1  N   UNL     1       3.464   3.437  19.421  0.00  0.00    +0.000 NA
ATOM      2  C   UNL     1       4.850   3.819  19.814  0.00  0.00    +0.000 C 
ATOM      3  C   UNL     1       5.595   4.723  18.798  0.00  0.00    +0.000 C 
ATOM      4  C   UNL     1       5.994   3.957  17.517  0.00  0.00    +0.000 C 
ATOM      5  C   UNL     1       4.915   4.059  16.435  0.00  0.00    +0.000 C 
ATOM      6  C   UNL     1       3.544   4.346  17.069  0.00  0.00    +0.000 C 
ATOM      7  C   UNL     1       3.235   3.144  17.999  0.00  0.00    +0.000 C 
ATOM      8  N   UNL     1       3.550   5.678  17.761  0.00  0.00    +0.000 N 
ATOM      9  C   UNL     1       2.334   6.390  17.863  0.00  0.00    +0.000 C 
ATOM     10  O   UNL     1       1.317   5.867  17.386  0.00  0.00    +0.000 OA
ATOM     11  C   UNL     1       4.804   5.997  18.437  0.00  0.00    +0.000 C 
ENDROOT
BRANCH   9  12
ATOM     12  C   UNL     1       2.118   7.784  18.449  0.00  0.00    +0.000 A 
ATOM     13  C   UNL     1       2.203   9.000  17.766  0.00  0.00    +0.000 A 
ATOM     14  C   UNL     1       1.673  10.183  18.332  0.00  0.00    +0.000 A 
ATOM     15  C   UNL     1       1.026  10.170  19.570  0.00  0.00    +0.000 A 
ATOM     16  C   UNL     1       0.965   8.986  20.303  0.00  0.00    +0.000 A 
ATOM     17  C   UNL     1       1.570   7.827  19.760  0.00  0.00    +0.000 A 
BRANCH  16  18
ATOM     18  C   UNL     1       0.203   8.927  21.612  0.00  0.00    +0.000 C 
ATOM     19  F   UNL     1      -0.566  10.034  21.833  0.00  0.00    +0.000 F 
ATOM     20  F   UNL     1      -0.657   7.872  21.676  0.00  0.00    +0.000 F 
ATOM     21  F   UNL     1       1.012   8.817  22.701  0.00  0.00    +0.000 F 
ENDBRANCH  16  18
ENDBRANCH   9  12
BRANCH   1  23
ATOM     22  C   UNL     1       2.087   2.712  21.715  0.00  0.00    +0.000 C 
ATOM     23  S   UNL     1       2.207   3.945  20.423  0.00  0.00    +0.000 S 
ATOM     24  O   UNL     1       0.986   3.938  19.640  0.00  0.00    +0.000 OA
ATOM     25  O   UNL     1       2.651   5.179  21.027  0.00  0.00    +0.000 OA
ENDBRANCH   1  23
TORSDOF 3
ENDMDL
MODEL 7
REMARK VINA RESULT:      -7.2      0.729      1.116
REMARK  Name = 
REMARK  4 active torsions:
REMARK  status: ('A' for Active; 'I' for Inactive)
REMARK    1  A    between atoms: C_1  and  S_2
REMARK    2  A    between atoms: S_2  and  N_5
REMARK    3  A    between atoms: C_13  and  C_15
REMARK    4  A    between atoms: C_19  and  C_20
REMARK                            x       y       z     vdW  Elec       q    Type
REMARK                         _______ _______ _______ _____ _____    ______ ____
ROOT
ATOM      1  N   UNL     1       4.700   3.472  18.510  0.00  0.00    +0.000 NA
ATOM      2  C   UNL     1       4.072   3.210  17.183  0.00  0.00    +0.000 C 
ATOM      3  C   UNL     1       2.522   3.227  17.177  0.00  0.00    +0.000 C 
ATOM      4  C   UNL     1       1.920   1.995  17.889  0.00  0.00    +0.000 C 
ATOM      5  C   UNL     1       1.666   2.266  19.375  0.00  0.00    +0.000 C 
ATOM      6  C   UNL     1       2.583   3.392  19.880  0.00  0.00    +0.000 C 
ATOM      7  C   UNL     1       4.037   2.889  19.684  0.00  0.00    +0.000 C 
ATOM      8  N   UNL     1       2.275   4.682  19.175  0.00  0.00    +0.000 N 
ATOM      9  C   UNL     1       2.522   5.896  19.853  0.00  0.00    +0.000 C 
ATOM     10  O   UNL     1       2.997   5.833  20.995  0.00  0.00    +0.000 OA
ATOM     11  C   UNL     1       1.935   4.526  17.764  0.00  0.00    +0.000 C 
ENDROOT
BRANCH   9  12
ATOM     12  C   UNL     1       2.215   7.311  19.368  0.00  0.00    +0.000 A 
ATOM     13  C   UNL     1       2.332   7.790  18.060  0.00  0.00    +0.000 A 
ATOM     14  C   UNL     1       1.720   9.008  17.681  0.00  0.00    +0.000 A 
ATOM     15  C   UNL     1       0.960   9.752  18.586  0.00  0.00    +0.000 A 
ATOM     16  C   UNL     1       0.861   9.332  19.913  0.00  0.00    +0.000 A 
ATOM     17  C   UNL     1       1.546   8.153  20.297  0.00  0.00    +0.000 A 
BRANCH  16  18
ATOM     18  C   UNL     1      -0.017  10.079  20.895  0.00  0.00    +0.000 C 
ATOM     19  F   UNL     1      -0.584   9.263  21.833  0.00  0.00    +0.000 F 
ATOM     20  F   UNL     1       0.666  11.021  21.604  0.00  0.00    +0.000 F 
ATOM     21  F   UNL     1      -1.053  10.733  20.302  0.00  0.00    +0.000 F 
ENDBRANCH  16  18
ENDBRANCH   9  12
BRANCH   1  23
ATOM     22  C   UNL     1       5.146   5.949  17.347  0.00  0.00    +0.000 C 
ATOM     23  S   UNL     1       5.679   4.837  18.645  0.00  0.00    +0.000 S 
ATOM     24  O   UNL     1       7.048   4.428  18.393  0.00  0.00    +0.000 OA
ATOM     25  O   UNL     1       5.346   5.444  19.913  0.00  0.00    +0.000 OA
ENDBRANCH   1  23
TORSDOF 3
ENDMDL
MODEL 8
REMARK VINA RESULT:      -7.0      1.807      2.528
REMARK  Name = 
REMARK  4 active torsions:
REMARK  status: ('A' for Active; 'I' for Inactive)
REMARK    1  A    between atoms: C_1  and  S_2
REMARK    2  A    between atoms: S_2  and  N_5
REMARK    3  A    between atoms: C_13  and  C_15
REMARK    4  A    between atoms: C_19  and  C_20
REMARK                            x       y       z     vdW  Elec       q    Type
REMARK                         _______ _______ _______ _____ _____    ______ ____
ROOT
ATOM      1  N   UNL     1       2.380   2.641  18.561  0.00  0.00    +0.000 NA
ATOM      2  C   UNL     1       0.958   2.518  18.988  0.00  0.00    +0.000 C 
ATOM      3  C   UNL     1       0.630   3.142  20.368  0.00  0.00    +0.000 C 
ATOM      4  C   UNL     1       1.223   2.323  21.536  0.00  0.00    +0.000 C 
ATOM      5  C   UNL     1       2.620   2.817  21.925  0.00  0.00    +0.000 C 
ATOM      6  C   UNL     1       3.285   3.535  20.740  0.00  0.00    +0.000 C 
ATOM      7  C   UNL     1       3.402   2.484  19.605  0.00  0.00    +0.000 C 
ATOM      8  N   UNL     1       2.511   4.766  20.365  0.00  0.00    +0.000 N 
ATOM      9  C   UNL     1       3.205   5.845  19.776  0.00  0.00    +0.000 C 
ATOM     10  O   UNL     1       4.422   5.713  19.584  0.00  0.00    +0.000 OA
ATOM     11  C   UNL     1       1.062   4.619  20.475  0.00  0.00    +0.000 C 
ENDROOT
BRANCH   9  12
ATOM     12  C   UNL     1       2.644   7.212  19.388  0.00  0.00    +0.000 A 
ATOM     13  C   UNL     1       2.635   7.781  18.112  0.00  0.00    +0.000 A 
ATOM     14  C   UNL     1       1.811   8.894  17.824  0.00  0.00    +0.000 A 
ATOM     15  C   UNL     1       0.963   9.439  18.791  0.00  0.00    +0.000 A 
ATOM     16  C   UNL     1       0.980   8.930  20.089  0.00  0.00    +0.000 A 
ATOM     17  C   UNL     1       1.870   7.868  20.383  0.00  0.00    +0.000 A 
BRANCH  16  18
ATOM     18  C   UNL     1       0.018   9.453  21.136  0.00  0.00    +0.000 C 
ATOM     19  F   UNL     1      -0.786   8.480  21.658  0.00  0.00    +0.000 F 
ATOM     20  F   UNL     1       0.652  10.009  22.206  0.00  0.00    +0.000 F 
ATOM     21  F   UNL     1      -0.826  10.411  20.662  0.00  0.00    +0.000 F 
ENDBRANCH  16  18
ENDBRANCH   9  12
BRANCH   1  23
ATOM     22  C   UNL     1       4.453   3.848  17.170  0.00  0.00    +0.000 C 
ATOM     23  S   UNL     1       2.693   3.517  17.155  0.00  0.00    +0.000 S 
ATOM     24  O   UNL     1       1.970   4.772  17.245  0.00  0.00    +0.000 OA
ATOM     25  O   UNL     1       2.419   2.622  16.056  0.00  0.00    +0.000 OA
ENDBRANCH   1  23
TORSDOF 3
ENDMDL
MODEL 9
REMARK VINA RESULT:      -7.0      3.697      5.931
REMARK  Name = 
REMARK  4 active torsions:
REMARK  status: ('A' for Active; 'I' for Inactive)
REMARK    1  A    between atoms: C_1  and  S_2
REMARK    2  A    between atoms: S_2  and  N_5
REMARK    3  A    between atoms: C_13  and  C_15
REMARK    4  A    between atoms: C_19  and  C_20
REMARK                            x       y       z     vdW  Elec       q    Type
REMARK                         _______ _______ _______ _____ _____    ______ ____
ROOT
ATOM      1  N   UNL     1       1.681   5.127  20.149  0.00  0.00    +0.000 NA
ATOM      2  C   UNL     1       2.382   4.580  21.345  0.00  0.00    +0.000 C 
ATOM      3  C   UNL     1       2.872   3.117  21.205  0.00  0.00    +0.000 C 
ATOM      4  C   UNL     1       1.706   2.104  21.222  0.00  0.00    +0.000 C 
ATOM      5  C   UNL     1       1.195   1.802  19.809  0.00  0.00    +0.000 C 
ATOM      6  C   UNL     1       1.527   2.964  18.859  0.00  0.00    +0.000 C 
ATOM      7  C   UNL     1       0.792   4.209  19.422  0.00  0.00    +0.000 C 
ATOM      8  N   UNL     1       3.013   3.131  18.725  0.00  0.00    +0.000 N 
ATOM      9  C   UNL     1       3.525   3.668  17.523  0.00  0.00    +0.000 C 
ATOM     10  O   UNL     1       2.715   3.990  16.643  0.00  0.00    +0.000 OA
ATOM     11  C   UNL     1       3.756   2.897  19.960  0.00  0.00    +0.000 C 
ENDROOT
BRANCH   9  12
ATOM     12  C   UNL     1       4.991   3.853  17.137  0.00  0.00    +0.000 A 
ATOM     13  C   UNL     1       5.533   3.779  15.851  0.00  0.00    +0.000 A 
ATOM     14  C   UNL     1       6.828   4.281  15.584  0.00  0.00    +0.000 A 
ATOM     15  C   UNL     1       7.592   4.889  16.583  0.00  0.00    +0.000 A 
ATOM     16  C   UNL     1       7.106   4.937  17.889  0.00  0.00    +0.000 A 
ATOM     17  C   UNL     1       5.841   4.359  18.158  0.00  0.00    +0.000 A 
BRANCH  16  18
ATOM     18  C   UNL     1       7.880   5.657  18.975  0.00  0.00    +0.000 C 
ATOM     19  F   UNL     1       7.136   5.894  20.096  0.00  0.00    +0.000 F 
ATOM     20  F   UNL     1       8.965   4.954  19.405  0.00  0.00    +0.000 F 
ATOM     21  F   UNL     1       8.352   6.872  18.584  0.00  0.00    +0.000 F 
ENDBRANCH  16  18
ENDBRANCH   9  12
BRANCH   1  23
ATOM     22  C   UNL     1       1.806   7.894  20.283  0.00  0.00    +0.000 C 
ATOM     23  S   UNL     1       2.380   6.457  19.383  0.00  0.00    +0.000 S 
ATOM     24  O   UNL     1       1.869   6.506  18.026  0.00  0.00    +0.000 OA
ATOM     25  O   UNL     1       3.803   6.339  19.597  0.00  0.00    +0.000 OA
ENDBRANCH   1  23
TORSDOF 3
ENDMDL
