MODEL 1
REMARK VINA RESULT:      -8.1      0.000      0.000
REMARK  Name = 
REMARK  9 active torsions:
REMARK  status: ('A' for Active; 'I' for Inactive)
REMARK    1  A    between atoms: C_1  and  O_2
REMARK    2  A    between atoms: O_2  and  C_3
REMARK    3  A    between atoms: C_9  and  C_10
REMARK    4  A    between atoms: C_10  and  C_11
REMARK    5  A    between atoms: C_11  and  N_12
REMARK    6  A    between atoms: C_13  and  C_15
REMARK    7  A    between atoms: C_15  and  C_16
REMARK    8  A    between atoms: C_16  and  C_18
REMARK    9  A    between atoms: C_19  and  C_20
REMARK                            x       y       z     vdW  Elec       q    Type
REMARK                         _______ _______ _______ _____ _____    ______ ____
ROOT
ATOM      1  C   UNL     1       6.097   3.916  16.501  0.00  0.00    +0.000 C 
ENDROOT
BRANCH   1   2
ATOM      2  N   UNL     1       6.947   4.983  16.993  0.00  0.00    +0.000 N 
ATOM      3  C   UNL     1       7.038   5.187  18.352  0.00  0.00    +0.000 C 
ATOM      4  O   UNL     1       6.517   4.424  19.170  0.00  0.00    +0.000 OA
ATOM      5  H   UNL     1       7.204   5.758  16.379  0.00  0.00    +0.000 HD
BRANCH   3   6
ATOM      6  C   UNL     1       7.877   6.339  18.833  0.00  0.00    +0.000 C 
BRANCH   6   7
ATOM      7  C   UNL     1       7.838   7.600  18.012  0.00  0.00    +0.000 C 
ATOM      8  O   UNL     1       7.185   7.699  16.975  0.00  0.00    +0.000 OA
BRANCH   7   9
ATOM      9  C   UNL     1       8.685   8.728  18.497  0.00  0.00    +0.000 C 
ATOM     10  C   UNL     1       8.486   9.974  18.041  0.00  0.00    +0.000 C 
BRANCH  10  11
ATOM     11  C   UNL     1       9.226  11.121  18.449  0.00  0.00    +0.000 A 
ATOM     12  C   UNL     1       9.449  12.345  17.767  0.00  0.00    +0.000 A 
ATOM     13  C   UNL     1      10.240  13.106  18.597  0.00  0.00    +0.000 A 
ATOM     14  O   UNL     1      10.512  12.435  19.743  0.00  0.00    +0.000 OA
ATOM     15  C   UNL     1       9.893  11.229  19.650  0.00  0.00    +0.000 A 
ENDBRANCH  10  11
ENDBRANCH   7   9
ENDBRANCH   6   7
ENDBRANCH   3   6
ENDBRANCH   1   2
BRANCH   1  16
ATOM     16  C   UNL     1       4.629   4.295  16.302  0.00  0.00    +0.000 C 
BRANCH  16  23
ATOM     17  C   UNL     1       2.213   6.319  19.835  0.00  0.00    +0.000 A 
ATOM     18  C   UNL     1       1.541   5.381  20.614  0.00  0.00    +0.000 A 
ATOM     19  C   UNL     1       1.629   4.012  20.333  0.00  0.00    +0.000 A 
ATOM     20  C   UNL     1       2.412   3.619  19.242  0.00  0.00    +0.000 A 
ATOM     21  N   UNL     1       2.651   2.364  18.738  0.00  0.00    +0.000 N 
ATOM     22  C   UNL     1       3.472   2.440  17.646  0.00  0.00    +0.000 A 
ATOM     23  C   UNL     1       3.784   3.769  17.425  0.00  0.00    +0.000 A 
ATOM     24  C   UNL     1       3.102   4.526  18.438  0.00  0.00    +0.000 A 
ATOM     25  C   UNL     1       2.987   5.900  18.741  0.00  0.00    +0.000 A 
ATOM     26  H   UNL     1       2.258   1.512  19.114  0.00  0.00    +0.000 HD
BRANCH  17  28
ATOM     27  C   UNL     1       1.304   8.139  21.057  0.00  0.00    +0.000 C 
ATOM     28  O   UNL     1       2.157   7.678  20.015  0.00  0.00    +0.000 OA
ENDBRANCH  17  28
ENDBRANCH  16  23
ENDBRANCH   1  16
TORSDOF 8
ENDMDL
MODEL 2
REMARK VINA RESULT:      -7.8      4.177      7.643
REMARK  Name = 
REMARK  9 active torsions:
REMARK  status: ('A' for Active; 'I' for Inactive)
REMARK    1  A    between atoms: C_1  and  O_2
REMARK    2  A    between atoms: O_2  and  C_3
REMARK    3  A    between atoms: C_9  and  C_10
REMARK    4  A    between atoms: C_10  and  C_11
REMARK    5  A    between atoms: C_11  and  N_12
REMARK    6  A    between atoms: C_13  and  C_15
REMARK    7  A    between atoms: C_15  and  C_16
REMARK    8  A    between atoms: C_16  and  C_18
REMARK    9  A    between atoms: C_19  and  C_20
REMARK                            x       y       z     vdW  Elec       q    Type
REMARK                         _______ _______ _______ _____ _____    ______ ____
ROOT
ATOM      1  C   UNL     1       4.502   3.084  17.262  0.00  0.00    +0.000 C 
ENDROOT
BRANCH   1   2
ATOM      2  N   UNL     1       3.387   2.706  18.109  0.00  0.00    +0.000 N 
ATOM      3  C   UNL     1       3.634   2.363  19.419  0.00  0.00    +0.000 C 
ATOM      4  O   UNL     1       4.751   2.476  19.931  0.00  0.00    +0.000 OA
ATOM      5  H   UNL     1       2.513   2.384  17.690  0.00  0.00    +0.000 HD
BRANCH   3   6
ATOM      6  C   UNL     1       2.468   1.916  20.258  0.00  0.00    +0.000 C 
BRANCH   6   7
ATOM      7  C   UNL     1       1.701   2.987  20.986  0.00  0.00    +0.000 C 
ATOM      8  O   UNL     1       1.237   2.822  22.112  0.00  0.00    +0.000 OA
BRANCH   7   9
ATOM      9  C   UNL     1       1.484   4.262  20.243  0.00  0.00    +0.000 C 
ATOM     10  C   UNL     1       2.196   5.358  20.548  0.00  0.00    +0.000 C 
BRANCH  10  11
ATOM     11  C   UNL     1       2.078   6.617  19.893  0.00  0.00    +0.000 A 
ATOM     12  C   UNL     1       2.357   6.967  18.546  0.00  0.00    +0.000 A 
ATOM     13  C   UNL     1       2.088   8.312  18.437  0.00  0.00    +0.000 A 
ATOM     14  O   UNL     1       1.657   8.809  19.623  0.00  0.00    +0.000 OA
ATOM     15  C   UNL     1       1.652   7.775  20.505  0.00  0.00    +0.000 A 
ENDBRANCH  10  11
ENDBRANCH   7   9
ENDBRANCH   6   7
ENDBRANCH   3   6
ENDBRANCH   1   2
BRANCH   1  16
ATOM     16  C   UNL     1       4.415   4.487  16.662  0.00  0.00    +0.000 C 
BRANCH  16  23
ATOM     17  C   UNL     1       5.726   3.374  12.251  0.00  0.00    +0.000 A 
ATOM     18  C   UNL     1       6.955   3.935  11.912  0.00  0.00    +0.000 A 
ATOM     19  C   UNL     1       7.669   4.716  12.829  0.00  0.00    +0.000 A 
ATOM     20  C   UNL     1       7.106   4.916  14.094  0.00  0.00    +0.000 A 
ATOM     21  N   UNL     1       7.576   5.644  15.161  0.00  0.00    +0.000 N 
ATOM     22  C   UNL     1       6.694   5.576  16.205  0.00  0.00    +0.000 A 
ATOM     23  C   UNL     1       5.624   4.787  15.825  0.00  0.00    +0.000 A 
ATOM     24  C   UNL     1       5.880   4.370  14.474  0.00  0.00    +0.000 A 
ATOM     25  C   UNL     1       5.179   3.594  13.525  0.00  0.00    +0.000 A 
ATOM     26  H   UNL     1       8.440   6.168  15.160  0.00  0.00    +0.000 HD
BRANCH  17  28
ATOM     27  C   UNL     1       3.746   3.244  10.949  0.00  0.00    +0.000 C 
ATOM     28  O   UNL     1       4.943   2.626  11.409  0.00  0.00    +0.000 OA
ENDBRANCH  17  28
ENDBRANCH  16  23
ENDBRANCH   1  16
TORSDOF 8
ENDMDL
MODEL 3
REMARK VINA RESULT:      -7.8      1.677      2.421
REMARK  Name = 
REMARK  9 active torsions:
REMARK  status: ('A' for Active; 'I' for Inactive)
REMARK    1  A    between atoms: C_1  and  O_2
REMARK    2  A    between atoms: O_2  and  C_3
REMARK    3  A    between atoms: C_9  and  C_10
REMARK    4  A    between atoms: C_10  and  C_11
REMARK    5  A    between atoms: C_11  and  N_12
REMARK    6  A    between atoms: C_13  and  C_15
REMARK    7  A    between atoms: C_15  and  C_16
REMARK    8  A    between atoms: C_16  and  C_18
REMARK    9  A    between atoms: C_19  and  C_20
REMARK                            x       y       z     vdW  Elec       q    Type
REMARK                         _______ _______ _______ _____ _____    ______ ____
ROOT
ATOM      1  C   UNL     1       6.126   4.238  16.912  0.00  0.00    +0.000 C 
ENDROOT
BRANCH   1   2
ATOM      2  N   UNL     1       7.126   5.233  17.249  0.00  0.00    +0.000 N 
ATOM      3  C   UNL     1       7.241   5.642  18.558  0.00  0.00    +0.000 C 
ATOM      4  O   UNL     1       6.607   5.110  19.474  0.00  0.00    +0.000 OA
ATOM      5  H   UNL     1       7.501   5.848  16.525  0.00  0.00    +0.000 HD
BRANCH   3   6
ATOM      6  C   UNL     1       8.244   6.719  18.870  0.00  0.00    +0.000 C 
BRANCH   6   7
ATOM      7  C   UNL     1       8.081   8.032  18.151  0.00  0.00    +0.000 C 
ATOM      8  O   UNL     1       7.413   8.148  17.125  0.00  0.00    +0.000 OA
BRANCH   7   9
ATOM      9  C   UNL     1       8.823   9.192  18.722  0.00  0.00    +0.000 C 
ATOM     10  C   UNL     1       8.877  10.358  18.059  0.00  0.00    +0.000 C 
BRANCH  10  11
ATOM     11  C   UNL     1       9.543  11.530  18.522  0.00  0.00    +0.000 A 
ATOM     12  C   UNL     1      10.144  11.794  19.780  0.00  0.00    +0.000 A 
ATOM     13  C   UNL     1      10.632  13.078  19.708  0.00  0.00    +0.000 A 
ATOM     14  O   UNL     1      10.376  13.618  18.490  0.00  0.00    +0.000 OA
ATOM     15  C   UNL     1       9.715  12.672  17.772  0.00  0.00    +0.000 A 
ENDBRANCH  10  11
ENDBRANCH   7   9
ENDBRANCH   6   7
ENDBRANCH   3   6
ENDBRANCH   1   2
BRANCH   1  16
ATOM     16  C   UNL     1       4.870   4.785  16.234  0.00  0.00    +0.000 C 
BRANCH  16  23
ATOM     17  C   UNL     1       2.038   4.078  19.962  0.00  0.00    +0.000 A 
ATOM     18  C   UNL     1       1.601   5.276  20.523  0.00  0.00    +0.000 A 
ATOM     19  C   UNL     1       1.986   6.509  19.982  0.00  0.00    +0.000 A 
ATOM     20  C   UNL     1       2.825   6.497  18.862  0.00  0.00    +0.000 A 
ATOM     21  N   UNL     1       3.362   7.545  18.155  0.00  0.00    +0.000 N 
ATOM     22  C   UNL     1       4.141   7.076  17.133  0.00  0.00    +0.000 A 
ATOM     23  C   UNL     1       4.116   5.695  17.161  0.00  0.00    +0.000 A 
ATOM     24  C   UNL     1       3.283   5.321  18.270  0.00  0.00    +0.000 A 
ATOM     25  C   UNL     1       2.885   4.093  18.842  0.00  0.00    +0.000 A 
ATOM     26  H   UNL     1       3.215   8.521  18.377  0.00  0.00    +0.000 HD
BRANCH  17  28
ATOM     27  C   UNL     1       2.148   2.557  21.781  0.00  0.00    +0.000 C 
ATOM     28  O   UNL     1       1.741   2.828  20.444  0.00  0.00    +0.000 OA
ENDBRANCH  17  28
ENDBRANCH  16  23
ENDBRANCH   1  16
TORSDOF 8
ENDMDL
MODEL 4
REMARK VINA RESULT:      -7.7      1.900      2.824
REMARK  Name = 
REMARK  9 active torsions:
REMARK  status: ('A' for Active; 'I' for Inactive)
REMARK    1  A    between atoms: C_1  and  O_2
REMARK    2  A    between atoms: O_2  and  C_3
REMARK    3  A    between atoms: C_9  and  C_10
REMARK    4  A    between atoms: C_10  and  C_11
REMARK    5  A    between atoms: C_11  and  N_12
REMARK    6  A    between atoms: C_13  and  C_15
REMARK    7  A    between atoms: C_15  and  C_16
REMARK    8  A    between atoms: C_16  and  C_18
REMARK    9  A    between atoms: C_19  and  C_20
REMARK                            x       y       z     vdW  Elec       q    Type
REMARK                         _______ _______ _______ _____ _____    ______ ____
ROOT
ATOM      1  C   UNL     1       7.028   4.847  15.536  0.00  0.00    +0.000 C 
ENDROOT
BRANCH   1   2
ATOM      2  N   UNL     1       7.455   5.894  16.445  0.00  0.00    +0.000 N 
ATOM      3  C   UNL     1       7.637   5.587  17.774  0.00  0.00    +0.000 C 
ATOM      4  O   UNL     1       7.564   4.431  18.201  0.00  0.00    +0.000 OA
ATOM      5  H   UNL     1       7.309   6.875  16.200  0.00  0.00    +0.000 HD
BRANCH   3   6
ATOM      6  C   UNL     1       8.020   6.705  18.705  0.00  0.00    +0.000 C 
BRANCH   6   7
ATOM      7  C   UNL     1       8.021   8.098  18.135  0.00  0.00    +0.000 C 
ATOM      8  O   UNL     1       7.334   8.420  17.167  0.00  0.00    +0.000 OA
BRANCH   7   9
ATOM      9  C   UNL     1       8.950   9.071  18.777  0.00  0.00    +0.000 C 
ATOM     10  C   UNL     1       9.033  10.333  18.325  0.00  0.00    +0.000 C 
BRANCH  10  11
ATOM     11  C   UNL     1       9.873  11.344  18.874  0.00  0.00    +0.000 A 
ATOM     12  C   UNL     1      10.213  11.602  20.227  0.00  0.00    +0.000 A 
ATOM     13  C   UNL     1      11.043  12.699  20.210  0.00  0.00    +0.000 A 
ATOM     14  O   UNL     1      11.240  13.128  18.938  0.00  0.00    +0.000 OA
ATOM     15  C   UNL     1      10.527  12.300  18.130  0.00  0.00    +0.000 A 
ENDBRANCH  10  11
ENDBRANCH   7   9
ENDBRANCH   6   7
ENDBRANCH   3   6
ENDBRANCH   1   2
BRANCH   1  16
ATOM     16  C   UNL     1       5.531   4.827  15.227  0.00  0.00    +0.000 C 
BRANCH  16  23
ATOM     17  C   UNL     1       3.310   3.570  19.215  0.00  0.00    +0.000 A 
ATOM     18  C   UNL     1       2.760   4.666  19.876  0.00  0.00    +0.000 A 
ATOM     19  C   UNL     1       2.878   5.959  19.352  0.00  0.00    +0.000 A 
ATOM     20  C   UNL     1       3.569   6.114  18.145  0.00  0.00    +0.000 A 
ATOM     21  N   UNL     1       3.846   7.254  17.431  0.00  0.00    +0.000 N 
ATOM     22  C   UNL     1       4.561   6.945  16.306  0.00  0.00    +0.000 A 
ATOM     23  C   UNL     1       4.759   5.577  16.273  0.00  0.00    +0.000 A 
ATOM     24  C   UNL     1       4.133   5.043  17.451  0.00  0.00    +0.000 A 
ATOM     25  C   UNL     1       4.005   3.752  18.008  0.00  0.00    +0.000 A 
ATOM     26  H   UNL     1       3.574   8.186  17.712  0.00  0.00    +0.000 HD
BRANCH  17  28
ATOM     27  C   UNL     1       3.580   1.266  18.715  0.00  0.00    +0.000 C 
ATOM     28  O   UNL     1       3.274   2.276  19.670  0.00  0.00    +0.000 OA
ENDBRANCH  17  28
ENDBRANCH  16  23
ENDBRANCH   1  16
TORSDOF 8
ENDMDL
MODEL 5
REMARK VINA RESULT:      -7.6      2.732      9.681
REMARK  Name = 
REMARK  9 active torsions:
REMARK  status: ('A' for Active; 'I' for Inactive)
REMARK    1  A    between atoms: C_1  and  O_2
REMARK    2  A    between atoms: O_2  and  C_3
REMARK    3  A    between atoms: C_9  and  C_10
REMARK    4  A    between atoms: C_10  and  C_11
REMARK    5  A    between atoms: C_11  and  N_12
REMARK    6  A    between atoms: C_13  and  C_15
REMARK    7  A    between atoms: C_15  and  C_16
REMARK    8  A    between atoms: C_16  and  C_18
REMARK    9  A    between atoms: C_19  and  C_20
REMARK                            x       y       z     vdW  Elec       q    Type
REMARK                         _______ _______ _______ _____ _____    ______ ____
ROOT
ATOM      1  C   UNL     1       8.128   8.865  18.272  0.00  0.00    +0.000 C 
ENDROOT
BRANCH   1   2
ATOM      2  N   UNL     1       7.583   7.958  17.279  0.00  0.00    +0.000 N 
ATOM      3  C   UNL     1       7.506   6.616  17.576  0.00  0.00    +0.000 C 
ATOM      4  O   UNL     1       7.772   6.172  18.696  0.00  0.00    +0.000 OA
ATOM      5  H   UNL     1       7.566   8.228  16.294  0.00  0.00    +0.000 HD
BRANCH   3   6
ATOM      6  C   UNL     1       6.995   5.690  16.507  0.00  0.00    +0.000 C 
BRANCH   6   7
ATOM      7  C   UNL     1       5.599   5.937  16.001  0.00  0.00    +0.000 C 
ATOM      8  O   UNL     1       5.304   6.914  15.315  0.00  0.00    +0.000 OA
BRANCH   7   9
ATOM      9  C   UNL     1       4.562   4.951  16.421  0.00  0.00    +0.000 C 
ATOM     10  C   UNL     1       4.445   4.593  17.709  0.00  0.00    +0.000 C 
BRANCH  10  11
ATOM     11  C   UNL     1       3.481   3.675  18.217  0.00  0.00    +0.000 A 
ATOM     12  C   UNL     1       2.524   2.890  17.524  0.00  0.00    +0.000 A 
ATOM     13  C   UNL     1       1.835   2.188  18.487  0.00  0.00    +0.000 A 
ATOM     14  O   UNL     1       2.308   2.486  19.723  0.00  0.00    +0.000 OA
ATOM     15  C   UNL     1       3.309   3.389  19.554  0.00  0.00    +0.000 A 
ENDBRANCH  10  11
ENDBRANCH   7   9
ENDBRANCH   6   7
ENDBRANCH   3   6
ENDBRANCH   1   2
BRANCH   1  16
ATOM     16  C   UNL     1       8.788  10.123  17.707  0.00  0.00    +0.000 C 
BRANCH  16  23
ATOM     17  C   UNL     1      11.072  14.268  17.845  0.00  0.00    +0.000 A 
ATOM     18  C   UNL     1      11.470  14.604  19.137  0.00  0.00    +0.000 A 
ATOM     19  C   UNL     1      11.203  13.755  20.219  0.00  0.00    +0.000 A 
ATOM     20  C   UNL     1      10.521  12.562  19.959  0.00  0.00    +0.000 A 
ATOM     21  N   UNL     1      10.119  11.573  20.823  0.00  0.00    +0.000 N 
ATOM     22  C   UNL     1       9.468  10.582  20.139  0.00  0.00    +0.000 A 
ATOM     23  C   UNL     1       9.442  10.919  18.799  0.00  0.00    +0.000 A 
ATOM     24  C   UNL     1      10.107  12.187  18.681  0.00  0.00    +0.000 A 
ATOM     25  C   UNL     1      10.383  13.067  17.611  0.00  0.00    +0.000 A 
ATOM     26  H   UNL     1      10.268  11.591  21.823  0.00  0.00    +0.000 HD
BRANCH  17  28
ATOM     27  C   UNL     1      10.769  16.385  16.816  0.00  0.00    +0.000 C 
ATOM     28  O   UNL     1      11.260  15.051  16.735  0.00  0.00    +0.000 OA
ENDBRANCH  17  28
ENDBRANCH  16  23
ENDBRANCH   1  16
TORSDOF 8
ENDMDL
MODEL 6
REMARK VINA RESULT:      -7.6      3.961      6.798
REMARK  Name = 
REMARK  9 active torsions:
REMARK  status: ('A' for Active; 'I' for Inactive)
REMARK    1  A    between atoms: C_1  and  O_2
REMARK    2  A    between atoms: O_2  and  C_3
REMARK    3  A    between atoms: C_9  and  C_10
REMARK    4  A    between atoms: C_10  and  C_11
REMARK    5  A    between atoms: C_11  and  N_12
REMARK    6  A    between atoms: C_13  and  C_15
REMARK    7  A    between atoms: C_15  and  C_16
REMARK    8  A    between atoms: C_16  and  C_18
REMARK    9  A    between atoms: C_19  and  C_20
REMARK                            x       y       z     vdW  Elec       q    Type
REMARK                         _______ _______ _______ _____ _____    ______ ____
ROOT
ATOM      1  C   UNL     1       4.272   7.416  17.706  0.00  0.00    +0.000 C 
ENDROOT
BRANCH   1   2
ATOM      2  N   UNL     1       5.068   6.392  17.058  0.00  0.00    +0.000 N 
ATOM      3  C   UNL     1       5.867   5.582  17.833  0.00  0.00    +0.000 C 
ATOM      4  O   UNL     1       5.843   5.617  19.066  0.00  0.00    +0.000 OA
ATOM      5  H   UNL     1       5.294   6.471  16.065  0.00  0.00    +0.000 HD
BRANCH   3   6
ATOM      6  C   UNL     1       6.730   4.569  17.130  0.00  0.00    +0.000 C 
BRANCH   6   7
ATOM      7  C   UNL     1       6.995   4.798  15.666  0.00  0.00    +0.000 C 
ATOM      8  O   UNL     1       7.727   5.698  15.257  0.00  0.00    +0.000 OA
BRANCH   7   9
ATOM      9  C   UNL     1       6.276   3.900  14.718  0.00  0.00    +0.000 C 
ATOM     10  C   UNL     1       6.297   4.147  13.399  0.00  0.00    +0.000 C 
BRANCH  10  11
ATOM     11  C   UNL     1       5.658   3.346  12.408  0.00  0.00    +0.000 A 
ATOM     12  C   UNL     1       4.405   3.525  11.768  0.00  0.00    +0.000 A 
ATOM     13  C   UNL     1       4.260   2.462  10.907  0.00  0.00    +0.000 A 
ATOM     14  O   UNL     1       5.342   1.646  10.971  0.00  0.00    +0.000 OA
ATOM     15  C   UNL     1       6.190   2.188  11.884  0.00  0.00    +0.000 A 
ENDBRANCH  10  11
ENDBRANCH   7   9
ENDBRANCH   6   7
ENDBRANCH   3   6
ENDBRANCH   1   2
BRANCH   1  16
ATOM     16  C   UNL     1       2.771   7.129  17.767  0.00  0.00    +0.000 C 
BRANCH  16  23
ATOM     17  C   UNL     1       2.680   2.721  19.494  0.00  0.00    +0.000 A 
ATOM     18  C   UNL     1       2.279   2.690  20.828  0.00  0.00    +0.000 A 
ATOM     19  C   UNL     1       1.944   3.866  21.509  0.00  0.00    +0.000 A 
ATOM     20  C   UNL     1       2.027   5.074  20.807  0.00  0.00    +0.000 A 
ATOM     21  N   UNL     1       1.779   6.357  21.231  0.00  0.00    +0.000 N 
ATOM     22  C   UNL     1       1.998   7.242  20.212  0.00  0.00    +0.000 A 
ATOM     23  C   UNL     1       2.394   6.534  19.093  0.00  0.00    +0.000 A 
ATOM     24  C   UNL     1       2.422   5.149  19.472  0.00  0.00    +0.000 A 
ATOM     25  C   UNL     1       2.762   3.947  18.813  0.00  0.00    +0.000 A 
ATOM     26  H   UNL     1       1.496   6.605  22.169  0.00  0.00    +0.000 HD
BRANCH  17  28
ATOM     27  C   UNL     1       3.498   1.884  17.431  0.00  0.00    +0.000 C 
ATOM     28  O   UNL     1       3.059   1.627  18.760  0.00  0.00    +0.000 OA
ENDBRANCH  17  28
ENDBRANCH  16  23
ENDBRANCH   1  16
TORSDOF 8
ENDMDL
MODEL 7
REMARK VINA RESULT:      -7.5      2.723      9.607
REMARK  Name = 
REMARK  9 active torsions:
REMARK  status: ('A' for Active; 'I' for Inactive)
REMARK    1  A    between atoms: C_1  and  O_2
REMARK    2  A    between atoms: O_2  and  C_3
REMARK    3  A    between atoms: C_9  and  C_10
REMARK    4  A    between atoms: C_10  and  C_11
REMARK    5  A    between atoms: C_11  and  N_12
REMARK    6  A    between atoms: C_13  and  C_15
REMARK    7  A    between atoms: C_15  and  C_16
REMARK    8  A    between atoms: C_16  and  C_18
REMARK    9  A    between atoms: C_19  and  C_20
REMARK                            x       y       z     vdW  Elec       q    Type
REMARK                         _______ _______ _______ _____ _____    ______ ____
ROOT
ATOM      1  C   UNL     1       8.661   9.572  18.374  0.00  0.00    +0.000 C 
ENDROOT
BRANCH   1   2
ATOM      2  N   UNL     1       8.572   8.188  18.799  0.00  0.00    +0.000 N 
ATOM      3  C   UNL     1       7.807   7.314  18.060  0.00  0.00    +0.000 C 
ATOM      4  O   UNL     1       7.290   7.634  16.986  0.00  0.00    +0.000 OA
ATOM      5  H   UNL     1       8.780   7.935  19.766  0.00  0.00    +0.000 HD
BRANCH   3   6
ATOM      6  C   UNL     1       7.682   5.899  18.557  0.00  0.00    +0.000 C 
BRANCH   6   7
ATOM      7  C   UNL     1       7.227   4.864  17.563  0.00  0.00    +0.000 C 
ATOM      8  O   UNL     1       7.945   4.460  16.650  0.00  0.00    +0.000 OA
BRANCH   7   9
ATOM      9  C   UNL     1       5.824   4.383  17.709  0.00  0.00    +0.000 C 
ATOM     10  C   UNL     1       4.910   5.131  18.346  0.00  0.00    +0.000 C 
BRANCH  10  11
ATOM     11  C   UNL     1       3.543   4.773  18.527  0.00  0.00    +0.000 A 
ATOM     12  C   UNL     1       2.715   3.932  17.739  0.00  0.00    +0.000 A 
ATOM     13  C   UNL     1       1.480   3.934  18.345  0.00  0.00    +0.000 A 
ATOM     14  O   UNL     1       1.496   4.716  19.454  0.00  0.00    +0.000 OA
ATOM     15  C   UNL     1       2.752   5.222  19.561  0.00  0.00    +0.000 A 
ENDBRANCH  10  11
ENDBRANCH   7   9
ENDBRANCH   6   7
ENDBRANCH   3   6
ENDBRANCH   1   2
BRANCH   1  16
ATOM     16  C   UNL     1       9.385  10.503  19.347  0.00  0.00    +0.000 C 
BRANCH  16  23
ATOM     17  C   UNL     1       9.177  15.194  18.737  0.00  0.00    +0.000 A 
ATOM     18  C   UNL     1      10.242  15.671  17.975  0.00  0.00    +0.000 A 
ATOM     19  C   UNL     1      11.215  14.800  17.470  0.00  0.00    +0.000 A 
ATOM     20  C   UNL     1      11.084  13.437  17.757  0.00  0.00    +0.000 A 
ATOM     21  N   UNL     1      11.894  12.383  17.409  0.00  0.00    +0.000 N 
ATOM     22  C   UNL     1      11.393  11.214  17.914  0.00  0.00    +0.000 A 
ATOM     23  C   UNL     1      10.230  11.498  18.606  0.00  0.00    +0.000 A 
ATOM     24  C   UNL     1      10.033  12.918  18.514  0.00  0.00    +0.000 A 
ATOM     25  C   UNL     1       9.072  13.822  19.018  0.00  0.00    +0.000 A 
ATOM     26  H   UNL     1      12.747  12.469  16.874  0.00  0.00    +0.000 HD
BRANCH  17  28
ATOM     27  C   UNL     1       7.730  17.061  18.510  0.00  0.00    +0.000 C 
ATOM     28  O   UNL     1       8.200  15.974  19.301  0.00  0.00    +0.000 OA
ENDBRANCH  17  28
ENDBRANCH  16  23
ENDBRANCH   1  16
TORSDOF 8
ENDMDL
MODEL 8
REMARK VINA RESULT:      -7.5      4.085      7.715
REMARK  Name = 
REMARK  9 active torsions:
REMARK  status: ('A' for Active; 'I' for Inactive)
REMARK    1  A    between atoms: C_1  and  O_2
REMARK    2  A    between atoms: O_2  and  C_3
REMARK    3  A    between atoms: C_9  and  C_10
REMARK    4  A    between atoms: C_10  and  C_11
REMARK    5  A    between atoms: C_11  and  N_12
REMARK    6  A    between atoms: C_13  and  C_15
REMARK    7  A    between atoms: C_15  and  C_16
REMARK    8  A    between atoms: C_16  and  C_18
REMARK    9  A    between atoms: C_19  and  C_20
REMARK                            x       y       z     vdW  Elec       q    Type
REMARK                         _______ _______ _______ _____ _____    ______ ____
ROOT
ATOM      1  C   UNL     1       3.763   3.398  16.891  0.00  0.00    +0.000 C 
ENDROOT
BRANCH   1   2
ATOM      2  N   UNL     1       3.547   2.800  18.195  0.00  0.00    +0.000 N 
ATOM      3  C   UNL     1       2.256   2.592  18.625  0.00  0.00    +0.000 C 
ATOM      4  O   UNL     1       1.279   2.785  17.897  0.00  0.00    +0.000 OA
ATOM      5  H   UNL     1       4.283   2.836  18.903  0.00  0.00    +0.000 HD
BRANCH   3   6
ATOM      6  C   UNL     1       2.060   2.028  20.006  0.00  0.00    +0.000 C 
BRANCH   6   7
ATOM      7  C   UNL     1       1.665   2.997  21.089  0.00  0.00    +0.000 C 
ATOM      8  O   UNL     1       1.593   2.675  22.274  0.00  0.00    +0.000 OA
BRANCH   7   9
ATOM      9  C   UNL     1       1.309   4.374  20.642  0.00  0.00    +0.000 C 
ATOM     10  C   UNL     1       2.247   5.331  20.573  0.00  0.00    +0.000 C 
BRANCH  10  11
ATOM     11  C   UNL     1       2.017   6.671  20.146  0.00  0.00    +0.000 A 
ATOM     12  C   UNL     1       1.333   7.726  20.802  0.00  0.00    +0.000 A 
ATOM     13  C   UNL     1       1.388   8.805  19.951  0.00  0.00    +0.000 A 
ATOM     14  O   UNL     1       2.064   8.485  18.819  0.00  0.00    +0.000 OA
ATOM     15  C   UNL     1       2.445   7.186  18.942  0.00  0.00    +0.000 A 
ENDBRANCH  10  11
ENDBRANCH   7   9
ENDBRANCH   6   7
ENDBRANCH   3   6
ENDBRANCH   1   2
BRANCH   1  16
ATOM     16  C   UNL     1       4.120   4.884  16.910  0.00  0.00    +0.000 C 
BRANCH  16  23
ATOM     17  C   UNL     1       5.848   3.709  12.661  0.00  0.00    +0.000 A 
ATOM     18  C   UNL     1       7.130   4.215  12.459  0.00  0.00    +0.000 A 
ATOM     19  C   UNL     1       7.775   4.964  13.450  0.00  0.00    +0.000 A 
ATOM     20  C   UNL     1       7.089   5.189  14.649  0.00  0.00    +0.000 A 
ATOM     21  N   UNL     1       7.473   5.896  15.762  0.00  0.00    +0.000 N 
ATOM     22  C   UNL     1       6.482   5.869  16.705  0.00  0.00    +0.000 A 
ATOM     23  C   UNL     1       5.425   5.129  16.209  0.00  0.00    +0.000 A 
ATOM     24  C   UNL     1       5.806   4.699  14.892  0.00  0.00    +0.000 A 
ATOM     25  C   UNL     1       5.177   3.955  13.870  0.00  0.00    +0.000 A 
ATOM     26  H   UNL     1       8.355   6.381  15.857  0.00  0.00    +0.000 HD
BRANCH  17  28
ATOM     27  C   UNL     1       5.644   1.717  11.388  0.00  0.00    +0.000 C 
ATOM     28  O   UNL     1       5.128   2.997  11.736  0.00  0.00    +0.000 OA
ENDBRANCH  17  28
ENDBRANCH  16  23
ENDBRANCH   1  16
TORSDOF 8
ENDMDL
MODEL 9
REMARK VINA RESULT:      -7.5      0.927      1.099
REMARK  Name = 
REMARK  9 active torsions:
REMARK  status: ('A' for Active; 'I' for Inactive)
REMARK    1  A    between atoms: C_1  and  O_2
REMARK    2  A    between atoms: O_2  and  C_3
REMARK    3  A    between atoms: C_9  and  C_10
REMARK    4  A    between atoms: C_10  and  C_11
REMARK    5  A    between atoms: C_11  and  N_12
REMARK    6  A    between atoms: C_13  and  C_15
REMARK    7  A    between atoms: C_15  and  C_16
REMARK    8  A    between atoms: C_16  and  C_18
REMARK    9  A    between atoms: C_19  and  C_20
REMARK                            x       y       z     vdW  Elec       q    Type
REMARK                         _______ _______ _______ _____ _____    ______ ____
ROOT
ATOM      1  C   UNL     1       4.609   5.461  17.143  0.00  0.00    +0.000 C 
ENDROOT
BRANCH   1   2
ATOM      2  N   UNL     1       5.921   6.054  17.318  0.00  0.00    +0.000 N 
ATOM      3  C   UNL     1       6.581   5.868  18.512  0.00  0.00    +0.000 C 
ATOM      4  O   UNL     1       6.150   5.120  19.395  0.00  0.00    +0.000 OA
ATOM      5  H   UNL     1       6.209   6.841  16.735  0.00  0.00    +0.000 HD
BRANCH   3   6
ATOM      6  C   UNL     1       7.912   6.545  18.690  0.00  0.00    +0.000 C 
BRANCH   6   7
ATOM      7  C   UNL     1       8.104   7.867  17.996  0.00  0.00    +0.000 C 
ATOM      8  O   UNL     1       7.837   8.038  16.807  0.00  0.00    +0.000 OA
BRANCH   7   9
ATOM      9  C   UNL     1       8.690   8.964  18.818  0.00  0.00    +0.000 C 
ATOM     10  C   UNL     1       8.925  10.170  18.276  0.00  0.00    +0.000 C 
BRANCH  10  11
ATOM     11  C   UNL     1       9.466  11.287  18.975  0.00  0.00    +0.000 A 
ATOM     12  C   UNL     1       9.558  12.646  18.577  0.00  0.00    +0.000 A 
ATOM     13  C   UNL     1      10.176  13.307  19.613  0.00  0.00    +0.000 A 
ATOM     14  O   UNL     1      10.465  12.447  20.622  0.00  0.00    +0.000 OA
ATOM     15  C   UNL     1      10.030  11.220  20.229  0.00  0.00    +0.000 A 
ENDBRANCH  10  11
ENDBRANCH   7   9
ENDBRANCH   6   7
ENDBRANCH   3   6
ENDBRANCH   1   2
BRANCH   1  16
ATOM     16  C   UNL     1       4.613   3.995  16.708  0.00  0.00    +0.000 C 
BRANCH  16  23
ATOM     17  C   UNL     1       1.744   4.980  20.344  0.00  0.00    +0.000 A 
ATOM     18  C   UNL     1       1.147   3.834  20.865  0.00  0.00    +0.000 A 
ATOM     19  C   UNL     1       1.424   2.570  20.331  0.00  0.00    +0.000 A 
ATOM     20  C   UNL     1       2.317   2.495  19.257  0.00  0.00    +0.000 A 
ATOM     21  N   UNL     1       2.743   1.403  18.541  0.00  0.00    +0.000 N 
ATOM     22  C   UNL     1       3.615   1.790  17.561  0.00  0.00    +0.000 A 
ATOM     23  C   UNL     1       3.771   3.162  17.629  0.00  0.00    +0.000 A 
ATOM     24  C   UNL     1       2.937   3.617  18.707  0.00  0.00    +0.000 A 
ATOM     25  C   UNL     1       2.632   4.880  19.260  0.00  0.00    +0.000 A 
ATOM     26  H   UNL     1       2.437   0.454  18.708  0.00  0.00    +0.000 HD
BRANCH  17  28
ATOM     27  C   UNL     1       2.130   7.301  20.035  0.00  0.00    +0.000 C 
ATOM     28  O   UNL     1       1.507   6.259  20.779  0.00  0.00    +0.000 OA
ENDBRANCH  17  28
ENDBRANCH  16  23
ENDBRANCH   1  16
TORSDOF 8
ENDMDL
