MODEL 1
REMARK VINA RESULT:      -7.4      0.000      0.000
REMARK  Name = 
REMARK  7 active torsions:
REMARK  status: ('A' for Active; 'I' for Inactive)
REMARK    1  A    between atoms: C_1  and  O_2
REMARK    2  A    between atoms: O_2  and  C_3
REMARK    3  A    between atoms: C_9  and  C_10
REMARK    4  A    between atoms: N_16  and  C_17
REMARK    5  A    between atoms: C_17  and  C_18
REMARK    6  A    between atoms: C_18  and  C_19
REMARK    7  A    between atoms: C_19  and  N_20
REMARK                            x       y       z     vdW  Elec       q    Type
REMARK                         _______ _______ _______ _____ _____    ______ ____
ROOT
ATOM      1  C   UNL     1       6.152   2.925  11.799  0.00  0.00    +0.000 A 
ATOM      2  C   UNL     1       7.229   3.754  11.483  0.00  0.00    +0.000 A 
ATOM      3  C   UNL     1       7.719   4.687  12.403  0.00  0.00    +0.000 A 
ATOM      4  C   UNL     1       7.093   4.756  13.651  0.00  0.00    +0.000 A 
ATOM      5  N   UNL     1       7.357   5.564  14.728  0.00  0.00    +0.000 N 
ATOM      6  C   UNL     1       6.498   5.312  15.775  0.00  0.00    +0.000 A 
ATOM      7  C   UNL     1       6.416   5.908  17.051  0.00  0.00    +0.000 A 
ATOM      8  C   UNL     1       7.341   7.021  17.465  0.00  0.00    +0.000 C 
ATOM      9  C   UNL     1       5.393   5.429  17.930  0.00  0.00    +0.000 A 
ATOM     10  C   UNL     1       5.220   5.944  19.225  0.00  0.00    +0.000 A 
ATOM     11  C   UNL     1       4.190   5.477  20.021  0.00  0.00    +0.000 A 
ATOM     12  N   UNL     1       3.297   4.556  19.625  0.00  0.00    +0.000 NA
ATOM     13  C   UNL     1       3.439   4.049  18.383  0.00  0.00    +0.000 A 
ATOM     14  N   UNL     1       2.498   3.101  17.941  0.00  0.00    +0.000 N 
ATOM     15  C   UNL     1       4.493   4.424  17.510  0.00  0.00    +0.000 A 
ATOM     16  C   UNL     1       4.637   3.864  16.217  0.00  0.00    +0.000 A 
ATOM     17  C   UNL     1       5.644   4.304  15.341  0.00  0.00    +0.000 A 
ATOM     18  C   UNL     1       6.019   3.948  14.006  0.00  0.00    +0.000 A 
ATOM     19  C   UNL     1       5.543   3.015  13.057  0.00  0.00    +0.000 A 
ATOM     20  H   UNL     1       8.089   6.258  14.744  0.00  0.00    +0.000 HD
ATOM     21  H   UNL     1       2.919   2.178  18.007  0.00  0.00    +0.000 HD
ENDROOT
BRANCH   1  23
ATOM     22  C   UNL     1       6.142   0.668  11.049  0.00  0.00    +0.000 C 
ATOM     23  O   UNL     1       5.605   1.984  10.966  0.00  0.00    +0.000 OA
ENDBRANCH   1  23
BRANCH  14  24
ATOM     24  C   UNL     1       1.183   3.183  18.561  0.00  0.00    +0.000 C 
BRANCH  24  25
ATOM     25  C   UNL     1       1.123   2.132  19.672  0.00  0.00    +0.000 C 
BRANCH  25  26
ATOM     26  C   UNL     1       0.987   2.779  21.045  0.00  0.00    +0.000 C 
BRANCH  26  27
ATOM     27  N   UNL     1       2.261   2.729  21.757  0.00  0.00    +0.000 NA
ATOM     28  H   UNL     1       2.108   2.397  22.709  0.00  0.00    +0.000 HD
ATOM     29  H   UNL     1       2.638   3.673  21.841  0.00  0.00    +0.000 HD
ENDBRANCH  26  27
ENDBRANCH  25  26
ENDBRANCH  24  25
ENDBRANCH  14  24
TORSDOF 5
ENDMDL
MODEL 2
REMARK VINA RESULT:      -7.1      4.433      6.457
REMARK  Name = 
REMARK  7 active torsions:
REMARK  status: ('A' for Active; 'I' for Inactive)
REMARK    1  A    between atoms: C_1  and  O_2
REMARK    2  A    between atoms: O_2  and  C_3
REMARK    3  A    between atoms: C_9  and  C_10
REMARK    4  A    between atoms: N_16  and  C_17
REMARK    5  A    between atoms: C_17  and  C_18
REMARK    6  A    between atoms: C_18  and  C_19
REMARK    7  A    between atoms: C_19  and  N_20
REMARK                            x       y       z     vdW  Elec       q    Type
REMARK                         _______ _______ _______ _____ _____    ______ ____
ROOT
ATOM      1  C   UNL     1       5.922   5.290  15.273  0.00  0.00    +0.000 A 
ATOM      2  C   UNL     1       6.114   4.023  15.824  0.00  0.00    +0.000 A 
ATOM      3  C   UNL     1       5.466   3.640  17.003  0.00  0.00    +0.000 A 
ATOM      4  C   UNL     1       4.619   4.571  17.609  0.00  0.00    +0.000 A 
ATOM      5  N   UNL     1       3.868   4.471  18.753  0.00  0.00    +0.000 N 
ATOM      6  C   UNL     1       3.165   5.628  19.004  0.00  0.00    +0.000 A 
ATOM      7  C   UNL     1       2.288   5.951  20.059  0.00  0.00    +0.000 A 
ATOM      8  C   UNL     1       1.994   4.978  21.170  0.00  0.00    +0.000 C 
ATOM      9  C   UNL     1       1.708   7.260  20.048  0.00  0.00    +0.000 A 
ATOM     10  C   UNL     1       0.817   7.691  21.044  0.00  0.00    +0.000 A 
ATOM     11  C   UNL     1       0.316   8.980  21.012  0.00  0.00    +0.000 A 
ATOM     12  N   UNL     1       0.650   9.889  20.082  0.00  0.00    +0.000 NA
ATOM     13  C   UNL     1       1.508   9.500  19.116  0.00  0.00    +0.000 A 
ATOM     14  N   UNL     1       1.889  10.447  18.147  0.00  0.00    +0.000 N 
ATOM     15  C   UNL     1       2.036   8.185  19.032  0.00  0.00    +0.000 A 
ATOM     16  C   UNL     1       2.919   7.792  17.997  0.00  0.00    +0.000 A 
ATOM     17  C   UNL     1       3.488   6.508  17.975  0.00  0.00    +0.000 A 
ATOM     18  C   UNL     1       4.399   5.844  17.092  0.00  0.00    +0.000 A 
ATOM     19  C   UNL     1       5.066   6.205  15.901  0.00  0.00    +0.000 A 
ATOM     20  H   UNL     1       3.844   3.648  19.338  0.00  0.00    +0.000 HD
ATOM     21  H   UNL     1       1.365  10.260  17.296  0.00  0.00    +0.000 HD
ENDROOT
BRANCH   1  23
ATOM     22  C   UNL     1       7.314   4.830  13.400  0.00  0.00    +0.000 C 
ATOM     23  O   UNL     1       6.510   5.754  14.125  0.00  0.00    +0.000 OA
ENDBRANCH   1  23
BRANCH  14  24
ATOM     24  C   UNL     1       1.831  11.839  18.569  0.00  0.00    +0.000 C 
BRANCH  24  25
ATOM     25  C   UNL     1       2.825  12.629  17.713  0.00  0.00    +0.000 C 
BRANCH  25  26
ATOM     26  C   UNL     1       3.091  14.010  18.299  0.00  0.00    +0.000 C 
BRANCH  26  27
ATOM     27  N   UNL     1       4.412  14.485  17.897  0.00  0.00    +0.000 NA
ATOM     28  H   UNL     1       4.479  14.487  16.880  0.00  0.00    +0.000 HD
ATOM     29  H   UNL     1       5.121  13.831  18.228  0.00  0.00    +0.000 HD
ENDBRANCH  26  27
ENDBRANCH  25  26
ENDBRANCH  24  25
ENDBRANCH  14  24
TORSDOF 5
ENDMDL
MODEL 3
REMARK VINA RESULT:      -6.9      4.552      6.331
REMARK  Name = 
REMARK  7 active torsions:
REMARK  status: ('A' for Active; 'I' for Inactive)
REMARK    1  A    between atoms: C_1  and  O_2
REMARK    2  A    between atoms: O_2  and  C_3
REMARK    3  A    between atoms: C_9  and  C_10
REMARK    4  A    between atoms: N_16  and  C_17
REMARK    5  A    between atoms: C_17  and  C_18
REMARK    6  A    between atoms: C_18  and  C_19
REMARK    7  A    between atoms: C_19  and  N_20
REMARK                            x       y       z     vdW  Elec       q    Type
REMARK                         _______ _______ _______ _____ _____    ______ ____
ROOT
ATOM      1  C   UNL     1       5.934   5.287  15.265  0.00  0.00    +0.000 A 
ATOM      2  C   UNL     1       6.022   4.000  15.795  0.00  0.00    +0.000 A 
ATOM      3  C   UNL     1       5.310   3.639  16.944  0.00  0.00    +0.000 A 
ATOM      4  C   UNL     1       4.505   4.613  17.540  0.00  0.00    +0.000 A 
ATOM      5  N   UNL     1       3.710   4.542  18.656  0.00  0.00    +0.000 N 
ATOM      6  C   UNL     1       3.076   5.740  18.907  0.00  0.00    +0.000 A 
ATOM      7  C   UNL     1       2.186   6.101  19.939  0.00  0.00    +0.000 A 
ATOM      8  C   UNL     1       1.790   5.129  21.019  0.00  0.00    +0.000 C 
ATOM      9  C   UNL     1       1.695   7.445  19.935  0.00  0.00    +0.000 A 
ATOM     10  C   UNL     1       0.800   7.916  20.910  0.00  0.00    +0.000 A 
ATOM     11  C   UNL     1       0.387   9.236  20.887  0.00  0.00    +0.000 A 
ATOM     12  N   UNL     1       0.811  10.138  19.987  0.00  0.00    +0.000 NA
ATOM     13  C   UNL     1       1.675   9.711  19.043  0.00  0.00    +0.000 A 
ATOM     14  N   UNL     1       2.151  10.647  18.107  0.00  0.00    +0.000 N 
ATOM     15  C   UNL     1       2.118   8.365  18.950  0.00  0.00    +0.000 A 
ATOM     16  C   UNL     1       3.008   7.933  17.937  0.00  0.00    +0.000 A 
ATOM     17  C   UNL     1       3.492   6.614  17.908  0.00  0.00    +0.000 A 
ATOM     18  C   UNL     1       4.388   5.907  17.043  0.00  0.00    +0.000 A 
ATOM     19  C   UNL     1       5.118   6.245  15.882  0.00  0.00    +0.000 A 
ATOM     20  H   UNL     1       3.611   3.713  19.222  0.00  0.00    +0.000 HD
ATOM     21  H   UNL     1       1.646  10.511  17.235  0.00  0.00    +0.000 HD
ENDROOT
BRANCH   1  23
ATOM     22  C   UNL     1       7.105   4.736  13.270  0.00  0.00    +0.000 C 
ATOM     23  O   UNL     1       6.590   5.732  14.147  0.00  0.00    +0.000 OA
ENDBRANCH   1  23
BRANCH  14  24
ATOM     24  C   UNL     1       2.170  12.032  18.556  0.00  0.00    +0.000 C 
BRANCH  24  25
ATOM     25  C   UNL     1       1.193  12.820  17.680  0.00  0.00    +0.000 C 
BRANCH  25  26
ATOM     26  C   UNL     1      -0.132  13.055  18.396  0.00  0.00    +0.000 C 
BRANCH  26  27
ATOM     27  N   UNL     1      -1.244  12.610  17.561  0.00  0.00    +0.000 NA
ATOM     28  H   UNL     1      -1.173  13.039  16.639  0.00  0.00    +0.000 HD
ATOM     29  H   UNL     1      -2.122  12.940  17.962  0.00  0.00    +0.000 HD
ENDBRANCH  26  27
ENDBRANCH  25  26
ENDBRANCH  24  25
ENDBRANCH  14  24
TORSDOF 5
ENDMDL
MODEL 4
REMARK VINA RESULT:      -6.9      4.260      8.118
REMARK  Name = 
REMARK  7 active torsions:
REMARK  status: ('A' for Active; 'I' for Inactive)
REMARK    1  A    between atoms: C_1  and  O_2
REMARK    2  A    between atoms: O_2  and  C_3
REMARK    3  A    between atoms: C_9  and  C_10
REMARK    4  A    between atoms: N_16  and  C_17
REMARK    5  A    between atoms: C_17  and  C_18
REMARK    6  A    between atoms: C_18  and  C_19
REMARK    7  A    between atoms: C_19  and  N_20
REMARK                            x       y       z     vdW  Elec       q    Type
REMARK                         _______ _______ _______ _____ _____    ______ ____
ROOT
ATOM      1  C   UNL     1       1.257  10.520  19.303  0.00  0.00    +0.000 A 
ATOM      2  C   UNL     1       0.513  10.418  20.479  0.00  0.00    +0.000 A 
ATOM      3  C   UNL     1       0.433   9.212  21.182  0.00  0.00    +0.000 A 
ATOM      4  C   UNL     1       1.126   8.114  20.668  0.00  0.00    +0.000 A 
ATOM      5  N   UNL     1       1.222   6.829  21.140  0.00  0.00    +0.000 N 
ATOM      6  C   UNL     1       2.012   6.046  20.326  0.00  0.00    +0.000 A 
ATOM      7  C   UNL     1       2.369   4.686  20.437  0.00  0.00    +0.000 A 
ATOM      8  C   UNL     1       1.863   3.825  21.563  0.00  0.00    +0.000 C 
ATOM      9  C   UNL     1       3.211   4.148  19.412  0.00  0.00    +0.000 A 
ATOM     10  C   UNL     1       3.633   2.808  19.421  0.00  0.00    +0.000 A 
ATOM     11  C   UNL     1       4.413   2.324  18.386  0.00  0.00    +0.000 A 
ATOM     12  N   UNL     1       4.786   3.057  17.325  0.00  0.00    +0.000 NA
ATOM     13  C   UNL     1       4.389   4.346  17.291  0.00  0.00    +0.000 A 
ATOM     14  N   UNL     1       4.750   5.123  16.175  0.00  0.00    +0.000 N 
ATOM     15  C   UNL     1       3.633   4.950  18.329  0.00  0.00    +0.000 A 
ATOM     16  C   UNL     1       3.244   6.311  18.284  0.00  0.00    +0.000 A 
ATOM     17  C   UNL     1       2.432   6.869  19.286  0.00  0.00    +0.000 A 
ATOM     18  C   UNL     1       1.879   8.173  19.500  0.00  0.00    +0.000 A 
ATOM     19  C   UNL     1       1.943   9.403  18.809  0.00  0.00    +0.000 A 
ATOM     20  H   UNL     1       0.764   6.503  21.977  0.00  0.00    +0.000 HD
ATOM     21  H   UNL     1       5.532   5.716  16.438  0.00  0.00    +0.000 HD
ENDROOT
BRANCH   1  23
ATOM     22  C   UNL     1       0.847  12.853  19.086  0.00  0.00    +0.000 C 
ATOM     23  O   UNL     1       1.396  11.655  18.547  0.00  0.00    +0.000 OA
ENDBRANCH   1  23
BRANCH  14  24
ATOM     24  C   UNL     1       4.973   4.385  14.940  0.00  0.00    +0.000 C 
BRANCH  24  25
ATOM     25  C   UNL     1       6.484   4.318  14.702  0.00  0.00    +0.000 C 
BRANCH  25  26
ATOM     26  C   UNL     1       7.248   5.128  15.742  0.00  0.00    +0.000 C 
BRANCH  26  27
ATOM     27  N   UNL     1       7.832   4.241  16.745  0.00  0.00    +0.000 NA
ATOM     28  H   UNL     1       7.142   3.546  17.029  0.00  0.00    +0.000 HD
ATOM     29  H   UNL     1       8.057   4.778  17.582  0.00  0.00    +0.000 HD
ENDBRANCH  26  27
ENDBRANCH  25  26
ENDBRANCH  24  25
ENDBRANCH  14  24
TORSDOF 5
ENDMDL
MODEL 5
REMARK VINA RESULT:      -6.8      4.361      8.241
REMARK  Name = 
REMARK  7 active torsions:
REMARK  status: ('A' for Active; 'I' for Inactive)
REMARK    1  A    between atoms: C_1  and  O_2
REMARK    2  A    between atoms: O_2  and  C_3
REMARK    3  A    between atoms: C_9  and  C_10
REMARK    4  A    between atoms: N_16  and  C_17
REMARK    5  A    between atoms: C_17  and  C_18
REMARK    6  A    between atoms: C_18  and  C_19
REMARK    7  A    between atoms: C_19  and  N_20
REMARK                            x       y       z     vdW  Elec       q    Type
REMARK                         _______ _______ _______ _____ _____    ______ ____
ROOT
ATOM      1  C   UNL     1       1.115  10.898  19.120  0.00  0.00    +0.000 A 
ATOM      2  C   UNL     1       0.370  10.758  20.291  0.00  0.00    +0.000 A 
ATOM      3  C   UNL     1       0.349   9.550  20.996  0.00  0.00    +0.000 A 
ATOM      4  C   UNL     1       1.102   8.489  20.487  0.00  0.00    +0.000 A 
ATOM      5  N   UNL     1       1.264   7.212  20.961  0.00  0.00    +0.000 N 
ATOM      6  C   UNL     1       2.099   6.471  20.154  0.00  0.00    +0.000 A 
ATOM      7  C   UNL     1       2.526   5.132  20.269  0.00  0.00    +0.000 A 
ATOM      8  C   UNL     1       2.059   4.246  21.393  0.00  0.00    +0.000 C 
ATOM      9  C   UNL     1       3.402   4.638  19.251  0.00  0.00    +0.000 A 
ATOM     10  C   UNL     1       3.895   3.323  19.263  0.00  0.00    +0.000 A 
ATOM     11  C   UNL     1       4.705   2.879  18.235  0.00  0.00    +0.000 A 
ATOM     12  N   UNL     1       5.047   3.630  17.174  0.00  0.00    +0.000 NA
ATOM     13  C   UNL     1       4.582   4.895  17.137  0.00  0.00    +0.000 A 
ATOM     14  N   UNL     1       4.908   5.689  16.021  0.00  0.00    +0.000 N 
ATOM     15  C   UNL     1       3.788   5.460  18.169  0.00  0.00    +0.000 A 
ATOM     16  C   UNL     1       3.328   6.798  18.119  0.00  0.00    +0.000 A 
ATOM     17  C   UNL     1       2.481   7.314  19.116  0.00  0.00    +0.000 A 
ATOM     18  C   UNL     1       1.859   8.587  19.324  0.00  0.00    +0.000 A 
ATOM     19  C   UNL     1       1.862   9.818  18.631  0.00  0.00    +0.000 A 
ATOM     20  H   UNL     1       0.818   6.862  21.797  0.00  0.00    +0.000 HD
ATOM     21  H   UNL     1       5.656   6.323  16.290  0.00  0.00    +0.000 HD
ENDROOT
BRANCH   1  23
ATOM     22  C   UNL     1       2.501  12.572  18.155  0.00  0.00    +0.000 C 
ATOM     23  O   UNL     1       1.198  12.038  18.363  0.00  0.00    +0.000 OA
ENDBRANCH   1  23
BRANCH  14  24
ATOM     24  C   UNL     1       5.178   4.963  14.789  0.00  0.00    +0.000 C 
BRANCH  24  25
ATOM     25  C   UNL     1       6.691   4.983  14.557  0.00  0.00    +0.000 C 
BRANCH  25  26
ATOM     26  C   UNL     1       7.052   4.431  13.183  0.00  0.00    +0.000 C 
BRANCH  26  27
ATOM     27  N   UNL     1       6.266   3.233  12.897  0.00  0.00    +0.000 NA
ATOM     28  H   UNL     1       5.875   2.866  13.764  0.00  0.00    +0.000 HD
ATOM     29  H   UNL     1       6.880   2.505  12.531  0.00  0.00    +0.000 HD
ENDBRANCH  26  27
ENDBRANCH  25  26
ENDBRANCH  24  25
ENDBRANCH  14  24
TORSDOF 5
ENDMDL
MODEL 6
REMARK VINA RESULT:      -6.8      5.297      7.356
REMARK  Name = 
REMARK  7 active torsions:
REMARK  status: ('A' for Active; 'I' for Inactive)
REMARK    1  A    between atoms: C_1  and  O_2
REMARK    2  A    between atoms: O_2  and  C_3
REMARK    3  A    between atoms: C_9  and  C_10
REMARK    4  A    between atoms: N_16  and  C_17
REMARK    5  A    between atoms: C_17  and  C_18
REMARK    6  A    between atoms: C_18  and  C_19
REMARK    7  A    between atoms: C_19  and  N_20
REMARK                            x       y       z     vdW  Elec       q    Type
REMARK                         _______ _______ _______ _____ _____    ______ ____
ROOT
ATOM      1  C   UNL     1       5.339   5.766  16.056  0.00  0.00    +0.000 A 
ATOM      2  C   UNL     1       5.225   4.592  16.801  0.00  0.00    +0.000 A 
ATOM      3  C   UNL     1       4.403   4.528  17.931  0.00  0.00    +0.000 A 
ATOM      4  C   UNL     1       3.697   5.680  18.285  0.00  0.00    +0.000 A 
ATOM      5  N   UNL     1       2.832   5.902  19.327  0.00  0.00    +0.000 N 
ATOM      6  C   UNL     1       2.346   7.191  19.319  0.00  0.00    +0.000 A 
ATOM      7  C   UNL     1       1.448   7.832  20.198  0.00  0.00    +0.000 A 
ATOM      8  C   UNL     1       0.863   7.121  21.389  0.00  0.00    +0.000 C 
ATOM      9  C   UNL     1       1.138   9.203  19.927  0.00  0.00    +0.000 A 
ATOM     10  C   UNL     1       0.254   9.941  20.731  0.00  0.00    +0.000 A 
ATOM     11  C   UNL     1       0.019  11.275  20.452  0.00  0.00    +0.000 A 
ATOM     12  N   UNL     1       0.612  11.947  19.452  0.00  0.00    +0.000 NA
ATOM     13  C   UNL     1       1.470  11.260  18.669  0.00  0.00    +0.000 A 
ATOM     14  N   UNL     1       2.120  11.953  17.631  0.00  0.00    +0.000 N 
ATOM     15  C   UNL     1       1.737   9.877  18.840  0.00  0.00    +0.000 A 
ATOM     16  C   UNL     1       2.625   9.171  17.993  0.00  0.00    +0.000 A 
ATOM     17  C   UNL     1       2.933   7.819  18.226  0.00  0.00    +0.000 A 
ATOM     18  C   UNL     1       3.781   6.870  17.570  0.00  0.00    +0.000 A 
ATOM     19  C   UNL     1       4.619   6.908  16.434  0.00  0.00    +0.000 A 
ATOM     20  H   UNL     1       2.591   5.204  20.015  0.00  0.00    +0.000 HD
ATOM     21  H   UNL     1       1.657  11.726  16.756  0.00  0.00    +0.000 HD
ENDROOT
BRANCH   1  23
ATOM     22  C   UNL     1       6.872   4.795  14.520  0.00  0.00    +0.000 C 
ATOM     23  O   UNL     1       6.116   5.925  14.938  0.00  0.00    +0.000 OA
ENDBRANCH   1  23
BRANCH  14  24
ATOM     24  C   UNL     1       2.293  13.384  17.841  0.00  0.00    +0.000 C 
BRANCH  24  25
ATOM     25  C   UNL     1       3.486  13.578  18.780  0.00  0.00    +0.000 C 
BRANCH  25  26
ATOM     26  C   UNL     1       3.110  14.424  19.990  0.00  0.00    +0.000 C 
BRANCH  26  27
ATOM     27  N   UNL     1       2.856  13.568  21.147  0.00  0.00    +0.000 NA
ATOM     28  H   UNL     1       2.234  14.048  21.796  0.00  0.00    +0.000 HD
ATOM     29  H   UNL     1       3.729  13.412  21.650  0.00  0.00    +0.000 HD
ENDBRANCH  26  27
ENDBRANCH  25  26
ENDBRANCH  24  25
ENDBRANCH  14  24
TORSDOF 5
ENDMDL
MODEL 7
REMARK VINA RESULT:      -6.8      6.131      8.683
REMARK  Name = 
REMARK  7 active torsions:
REMARK  status: ('A' for Active; 'I' for Inactive)
REMARK    1  A    between atoms: C_1  and  O_2
REMARK    2  A    between atoms: O_2  and  C_3
REMARK    3  A    between atoms: C_9  and  C_10
REMARK    4  A    between atoms: N_16  and  C_17
REMARK    5  A    between atoms: C_17  and  C_18
REMARK    6  A    between atoms: C_18  and  C_19
REMARK    7  A    between atoms: C_19  and  N_20
REMARK                            x       y       z     vdW  Elec       q    Type
REMARK                         _______ _______ _______ _____ _____    ______ ____
ROOT
ATOM      1  C   UNL     1       3.830   5.741  17.724  0.00  0.00    +0.000 A 
ATOM      2  C   UNL     1       3.562   4.777  18.696  0.00  0.00    +0.000 A 
ATOM      3  C   UNL     1       2.778   5.076  19.815  0.00  0.00    +0.000 A 
ATOM      4  C   UNL     1       2.271   6.373  19.924  0.00  0.00    +0.000 A 
ATOM      5  N   UNL     1       1.487   6.937  20.899  0.00  0.00    +0.000 N 
ATOM      6  C   UNL     1       1.205   8.257  20.625  0.00  0.00    +0.000 A 
ATOM      7  C   UNL     1       0.447   9.198  21.352  0.00  0.00    +0.000 A 
ATOM      8  C   UNL     1      -0.200   8.847  22.666  0.00  0.00    +0.000 C 
ATOM      9  C   UNL     1       0.343  10.516  20.804  0.00  0.00    +0.000 A 
ATOM     10  C   UNL     1      -0.389  11.533  21.438  0.00  0.00    +0.000 A 
ATOM     11  C   UNL     1      -0.425  12.802  20.889  0.00  0.00    +0.000 A 
ATOM     12  N   UNL     1       0.231  13.153  19.771  0.00  0.00    +0.000 NA
ATOM     13  C   UNL     1       0.945  12.194  19.146  0.00  0.00    +0.000 A 
ATOM     14  N   UNL     1       1.660  12.549  17.987  0.00  0.00    +0.000 N 
ATOM     15  C   UNL     1       1.002  10.851  19.600  0.00  0.00    +0.000 A 
ATOM     16  C   UNL     1       1.741   9.855  18.916  0.00  0.00    +0.000 A 
ATOM     17  C   UNL     1       1.844   8.548  19.424  0.00  0.00    +0.000 A 
ATOM     18  C   UNL     1       2.513   7.363  18.977  0.00  0.00    +0.000 A 
ATOM     19  C   UNL     1       3.308   7.035  17.858  0.00  0.00    +0.000 A 
ATOM     20  H   UNL     1       1.164   6.441  21.716  0.00  0.00    +0.000 HD
ATOM     21  H   UNL     1       1.137  12.223  17.178  0.00  0.00    +0.000 HD
ENDROOT
BRANCH   1  23
ATOM     22  C   UNL     1       5.113   4.237  16.402  0.00  0.00    +0.000 C 
ATOM     23  O   UNL     1       4.584   5.544  16.596  0.00  0.00    +0.000 OA
ENDBRANCH   1  23
BRANCH  14  24
ATOM     24  C   UNL     1       2.057  13.946  17.895  0.00  0.00    +0.000 C 
BRANCH  24  25
ATOM     25  C   UNL     1       3.531  14.040  18.299  0.00  0.00    +0.000 C 
BRANCH  25  26
ATOM     26  C   UNL     1       3.703  14.803  19.607  0.00  0.00    +0.000 C 
BRANCH  26  27
ATOM     27  N   UNL     1       3.195  14.012  20.725  0.00  0.00    +0.000 NA
ATOM     28  H   UNL     1       2.444  14.521  21.190  0.00  0.00    +0.000 HD
ATOM     29  H   UNL     1       3.933  13.895  21.419  0.00  0.00    +0.000 HD
ENDBRANCH  26  27
ENDBRANCH  25  26
ENDBRANCH  24  25
ENDBRANCH  14  24
TORSDOF 5
ENDMDL
MODEL 8
REMARK VINA RESULT:      -6.7      6.703      9.200
REMARK  Name = 
REMARK  7 active torsions:
REMARK  status: ('A' for Active; 'I' for Inactive)
REMARK    1  A    between atoms: C_1  and  O_2
REMARK    2  A    between atoms: O_2  and  C_3
REMARK    3  A    between atoms: C_9  and  C_10
REMARK    4  A    between atoms: N_16  and  C_17
REMARK    5  A    between atoms: C_17  and  C_18
REMARK    6  A    between atoms: C_18  and  C_19
REMARK    7  A    between atoms: C_19  and  N_20
REMARK                            x       y       z     vdW  Elec       q    Type
REMARK                         _______ _______ _______ _____ _____    ______ ____
ROOT
ATOM      1  C   UNL     1       3.729   6.810  17.636  0.00  0.00    +0.000 A 
ATOM      2  C   UNL     1       3.714   5.788  18.586  0.00  0.00    +0.000 A 
ATOM      3  C   UNL     1       2.964   5.903  19.761  0.00  0.00    +0.000 A 
ATOM      4  C   UNL     1       2.228   7.075  19.948  0.00  0.00    +0.000 A 
ATOM      5  N   UNL     1       1.417   7.454  20.988  0.00  0.00    +0.000 N 
ATOM      6  C   UNL     1       0.872   8.702  20.781  0.00  0.00    +0.000 A 
ATOM      7  C   UNL     1      -0.000   9.461  21.588  0.00  0.00    +0.000 A 
ATOM      8  C   UNL     1      -0.480   8.960  22.924  0.00  0.00    +0.000 C 
ATOM      9  C   UNL     1      -0.389  10.748  21.095  0.00  0.00    +0.000 A 
ATOM     10  C   UNL     1      -1.257  11.589  21.810  0.00  0.00    +0.000 A 
ATOM     11  C   UNL     1      -1.570  12.841  21.312  0.00  0.00    +0.000 A 
ATOM     12  N   UNL     1      -1.068  13.339  20.170  0.00  0.00    +0.000 NA
ATOM     13  C   UNL     1      -0.228  12.551  19.468  0.00  0.00    +0.000 A 
ATOM     14  N   UNL     1       0.328  13.065  18.281  0.00  0.00    +0.000 N 
ATOM     15  C   UNL     1       0.113  11.233  19.867  0.00  0.00    +0.000 A 
ATOM     16  C   UNL     1       0.981  10.414  19.104  0.00  0.00    +0.000 A 
ATOM     17  C   UNL     1       1.364   9.140  19.556  0.00  0.00    +0.000 A 
ATOM     18  C   UNL     1       2.214   8.116  19.026  0.00  0.00    +0.000 A 
ATOM     19  C   UNL     1       2.981   7.976  17.849  0.00  0.00    +0.000 A 
ATOM     20  H   UNL     1       1.250   6.885  21.805  0.00  0.00    +0.000 HD
ATOM     21  H   UNL     1      -0.176  12.665  17.494  0.00  0.00    +0.000 HD
ENDROOT
BRANCH   1  23
ATOM     22  C   UNL     1       5.794   6.389  16.534  0.00  0.00    +0.000 C 
ATOM     23  O   UNL     1       4.430   6.789  16.458  0.00  0.00    +0.000 OA
ENDBRANCH   1  23
BRANCH  14  24
ATOM     24  C   UNL     1       0.446  14.515  18.218  0.00  0.00    +0.000 C 
BRANCH  24  25
ATOM     25  C   UNL     1       1.740  14.910  18.934  0.00  0.00    +0.000 C 
BRANCH  25  26
ATOM     26  C   UNL     1       2.950  14.766  18.019  0.00  0.00    +0.000 C 
BRANCH  26  27
ATOM     27  N   UNL     1       3.291  13.356  17.850  0.00  0.00    +0.000 NA
ATOM     28  H   UNL     1       4.283  13.219  18.040  0.00  0.00    +0.000 HD
ATOM     29  H   UNL     1       3.147  13.087  16.877  0.00  0.00    +0.000 HD
ENDBRANCH  26  27
ENDBRANCH  25  26
ENDBRANCH  24  25
ENDBRANCH  14  24
TORSDOF 5
ENDMDL
MODEL 9
REMARK VINA RESULT:      -6.7      5.197      7.372
REMARK  Name = 
REMARK  7 active torsions:
REMARK  status: ('A' for Active; 'I' for Inactive)
REMARK    1  A    between atoms: C_1  and  O_2
REMARK    2  A    between atoms: O_2  and  C_3
REMARK    3  A    between atoms: C_9  and  C_10
REMARK    4  A    between atoms: N_16  and  C_17
REMARK    5  A    between atoms: C_17  and  C_18
REMARK    6  A    between atoms: C_18  and  C_19
REMARK    7  A    between atoms: C_19  and  N_20
REMARK                            x       y       z     vdW  Elec       q    Type
REMARK                         _______ _______ _______ _____ _____    ______ ____
ROOT
ATOM      1  C   UNL     1       5.544   5.646  15.835  0.00  0.00    +0.000 A 
ATOM      2  C   UNL     1       5.450   4.447  16.541  0.00  0.00    +0.000 A 
ATOM      3  C   UNL     1       4.628   4.331  17.667  0.00  0.00    +0.000 A 
ATOM      4  C   UNL     1       3.903   5.459  18.058  0.00  0.00    +0.000 A 
ATOM      5  N   UNL     1       3.034   5.632  19.107  0.00  0.00    +0.000 N 
ATOM      6  C   UNL     1       2.526   6.912  19.141  0.00  0.00    +0.000 A 
ATOM      7  C   UNL     1       1.618   7.508  20.039  0.00  0.00    +0.000 A 
ATOM      8  C   UNL     1       1.044   6.748  21.206  0.00  0.00    +0.000 C 
ATOM      9  C   UNL     1       1.284   8.882  19.814  0.00  0.00    +0.000 A 
ATOM     10  C   UNL     1       0.388   9.578  20.640  0.00  0.00    +0.000 A 
ATOM     11  C   UNL     1       0.130  10.916  20.406  0.00  0.00    +0.000 A 
ATOM     12  N   UNL     1       0.712  11.630  19.429  0.00  0.00    +0.000 NA
ATOM     13  C   UNL     1       1.582  10.985  18.625  0.00  0.00    +0.000 A 
ATOM     14  N   UNL     1       2.221  11.723  17.611  0.00  0.00    +0.000 N 
ATOM     15  C   UNL     1       1.873   9.602  18.750  0.00  0.00    +0.000 A 
ATOM     16  C   UNL     1       2.772   8.939  17.881  0.00  0.00    +0.000 A 
ATOM     17  C   UNL     1       3.103   7.586  18.070  0.00  0.00    +0.000 A 
ATOM     18  C   UNL     1       3.967   6.673  17.383  0.00  0.00    +0.000 A 
ATOM     19  C   UNL     1       4.805   6.763  16.250  0.00  0.00    +0.000 A 
ATOM     20  H   UNL     1       2.804   4.907  19.770  0.00  0.00    +0.000 HD
ATOM     21  H   UNL     1       1.762  11.517  16.728  0.00  0.00    +0.000 HD
ENDROOT
BRANCH   1  23
ATOM     22  C   UNL     1       6.907   4.704  14.129  0.00  0.00    +0.000 C 
ATOM     23  O   UNL     1       6.319   5.856  14.724  0.00  0.00    +0.000 OA
ENDBRANCH   1  23
BRANCH  14  24
ATOM     24  C   UNL     1       2.369  13.148  17.868  0.00  0.00    +0.000 C 
BRANCH  24  25
ATOM     25  C   UNL     1       3.803  13.391  18.345  0.00  0.00    +0.000 C 
BRANCH  25  26
ATOM     26  C   UNL     1       4.214  14.847  18.161  0.00  0.00    +0.000 C 
BRANCH  26  27
ATOM     27  N   UNL     1       3.587  15.401  16.964  0.00  0.00    +0.000 NA
ATOM     28  H   UNL     1       2.813  16.008  17.233  0.00  0.00    +0.000 HD
ATOM     29  H   UNL     1       3.179  14.645  16.415  0.00  0.00    +0.000 HD
ENDBRANCH  26  27
ENDBRANCH  25  26
ENDBRANCH  24  25
ENDBRANCH  14  24
TORSDOF 5
ENDMDL
