MODEL 1
REMARK VINA RESULT:      -7.8      0.000      0.000
REMARK  Name = 
REMARK  8 active torsions:
REMARK  status: ('A' for Active; 'I' for Inactive)
REMARK    1  A    between atoms: C_1  and  C_2
REMARK    2  A    between atoms: C_2  and  C_3
REMARK    3  A    between atoms: C_3  and  N_4
REMARK    4  A    between atoms: N_9  and  C_10
REMARK    5  A    between atoms: C_10  and  C_11
REMARK    6  A    between atoms: C_10  and  C_20
REMARK    7  A    between atoms: C_11  and  S_12
REMARK    8  A    between atoms: S_12  and  C_13
REMARK                            x       y       z     vdW  Elec       q    Type
REMARK                         _______ _______ _______ _____ _____    ______ ____
ROOT
ATOM      1  C   UNL     1       2.874   6.165  18.092  0.00  0.00    +0.000 C 
ENDROOT
BRANCH   1   7
ATOM      2  N   UNL     1       6.439   4.159  15.950  0.00  0.00    +0.000 NA
ATOM      3  C   UNL     1       6.834   4.122  17.366  0.00  0.00    +0.000 C 
ATOM      4  C   UNL     1       6.679   5.415  18.162  0.00  0.00    +0.000 C 
ATOM      5  C   UNL     1       5.261   5.632  18.660  0.00  0.00    +0.000 C 
ATOM      6  O   UNL     1       5.017   5.514  19.860  0.00  0.00    +0.000 OA
ATOM      7  N   UNL     1       4.297   5.966  17.718  0.00  0.00    +0.000 N 
ATOM      8  C   UNL     1       4.599   5.910  16.283  0.00  0.00    +0.000 C 
ATOM      9  C   UNL     1       5.014   4.506  15.794  0.00  0.00    +0.000 C 
BRANCH   2  10
ATOM     10  C   UNL     1       7.306   4.960  15.073  0.00  0.00    +0.000 C 
BRANCH  10  12
ATOM     11  C   UNL     1       8.102   5.453  12.694  0.00  0.00    +0.000 C 
ATOM     12  C   UNL     1       7.012   4.854  13.570  0.00  0.00    +0.000 C 
ENDBRANCH  10  12
ENDBRANCH   2  10
ENDBRANCH   1   7
BRANCH   1  13
ATOM     13  C   UNL     1       2.253   4.880  18.638  0.00  0.00    +0.000 A 
ATOM     14  C   UNL     1       2.146   3.741  17.823  0.00  0.00    +0.000 A 
ATOM     15  C   UNL     1       1.516   2.586  18.291  0.00  0.00    +0.000 A 
ATOM     16  C   UNL     1       0.990   2.550  19.581  0.00  0.00    +0.000 A 
ATOM     17  C   UNL     1       1.110   3.662  20.409  0.00  0.00    +0.000 A 
ATOM     18  C   UNL     1       1.744   4.815  19.945  0.00  0.00    +0.000 A 
ENDBRANCH   1  13
BRANCH   1  19
ATOM     19  C   UNL     1       2.514   7.371  19.008  0.00  0.00    +0.000 C 
BRANCH  19  20
ATOM     20  S   UNL     1       1.845   8.822  18.106  0.00  0.00    +0.000 S 
BRANCH  20  21
ATOM     21  C   UNL     1       0.900   9.675  19.370  0.00  0.00    +0.000 A 
ATOM     22  C   UNL     1       0.214  10.882  19.181  0.00  0.00    +0.000 A 
ATOM     23  C   UNL     1      -0.505  11.475  20.230  0.00  0.00    +0.000 A 
ATOM     24  C   UNL     1      -0.538  10.860  21.480  0.00  0.00    +0.000 A 
ATOM     25 BR   UNL     1      -1.526  11.640  22.891  0.00  0.00    +0.000 Br
ATOM     26  C   UNL     1       0.156   9.674  21.697  0.00  0.00    +0.000 A 
ATOM     27  C   UNL     1       0.870   9.089  20.646  0.00  0.00    +0.000 A 
ENDBRANCH  20  21
ENDBRANCH  19  20
ENDBRANCH   1  19
TORSDOF 7
ENDMDL
MODEL 2
REMARK VINA RESULT:      -7.7      0.290      1.339
REMARK  Name = 
REMARK  8 active torsions:
REMARK  status: ('A' for Active; 'I' for Inactive)
REMARK    1  A    between atoms: C_1  and  C_2
REMARK    2  A    between atoms: C_2  and  C_3
REMARK    3  A    between atoms: C_3  and  N_4
REMARK    4  A    between atoms: N_9  and  C_10
REMARK    5  A    between atoms: C_10  and  C_11
REMARK    6  A    between atoms: C_10  and  C_20
REMARK    7  A    between atoms: C_11  and  S_12
REMARK    8  A    between atoms: S_12  and  C_13
REMARK                            x       y       z     vdW  Elec       q    Type
REMARK                         _______ _______ _______ _____ _____    ______ ____
ROOT
ATOM      1  C   UNL     1       2.961   6.042  18.044  0.00  0.00    +0.000 C 
ENDROOT
BRANCH   1   7
ATOM      2  N   UNL     1       6.620   4.232  15.887  0.00  0.00    +0.000 NA
ATOM      3  C   UNL     1       7.020   4.211  17.302  0.00  0.00    +0.000 C 
ATOM      4  C   UNL     1       6.800   5.492  18.102  0.00  0.00    +0.000 C 
ATOM      5  C   UNL     1       5.374   5.633  18.605  0.00  0.00    +0.000 C 
ATOM      6  O   UNL     1       5.140   5.499  19.804  0.00  0.00    +0.000 OA
ATOM      7  N   UNL     1       4.392   5.919  17.666  0.00  0.00    +0.000 N 
ATOM      8  C   UNL     1       4.691   5.883  16.230  0.00  0.00    +0.000 C 
ATOM      9  C   UNL     1       5.178   4.505  15.735  0.00  0.00    +0.000 C 
BRANCH   2  10
ATOM     10  C   UNL     1       7.441   5.080  15.010  0.00  0.00    +0.000 C 
BRANCH  10  12
ATOM     11  C   UNL     1       8.212   5.655  12.641  0.00  0.00    +0.000 C 
ATOM     12  C   UNL     1       7.216   4.893  13.502  0.00  0.00    +0.000 C 
ENDBRANCH  10  12
ENDBRANCH   2  10
ENDBRANCH   1   7
BRANCH   1  13
ATOM     13  C   UNL     1       2.374   4.695  18.464  0.00  0.00    +0.000 A 
ATOM     14  C   UNL     1       1.748   4.552  19.714  0.00  0.00    +0.000 A 
ATOM     15  C   UNL     1       1.272   3.308  20.134  0.00  0.00    +0.000 A 
ATOM     16  C   UNL     1       1.410   2.192  19.312  0.00  0.00    +0.000 A 
ATOM     17  C   UNL     1       2.005   2.323  18.061  0.00  0.00    +0.000 A 
ATOM     18  C   UNL     1       2.476   3.565  17.637  0.00  0.00    +0.000 A 
ENDBRANCH   1  13
BRANCH   1  19
ATOM     19  C   UNL     1       2.561   7.148  19.065  0.00  0.00    +0.000 C 
BRANCH  19  20
ATOM     20  S   UNL     1       1.918   8.683  18.292  0.00  0.00    +0.000 S 
BRANCH  20  21
ATOM     21  C   UNL     1       0.981   9.437  19.622  0.00  0.00    +0.000 A 
ATOM     22  C   UNL     1       0.806   8.881  20.896  0.00  0.00    +0.000 A 
ATOM     23  C   UNL     1       0.057   9.547  21.878  0.00  0.00    +0.000 A 
ATOM     24  C   UNL     1      -0.525  10.779  21.586  0.00  0.00    +0.000 A 
ATOM     25 BR   UNL     1      -1.513  11.695  22.912  0.00  0.00    +0.000 Br
ATOM     26  C   UNL     1      -0.386  11.338  20.320  0.00  0.00    +0.000 A 
ATOM     27  C   UNL     1       0.363  10.668  19.347  0.00  0.00    +0.000 A 
ENDBRANCH  20  21
ENDBRANCH  19  20
ENDBRANCH   1  19
TORSDOF 7
ENDMDL
MODEL 3
REMARK VINA RESULT:      -7.5      0.645      1.172
REMARK  Name = 
REMARK  8 active torsions:
REMARK  status: ('A' for Active; 'I' for Inactive)
REMARK    1  A    between atoms: C_1  and  C_2
REMARK    2  A    between atoms: C_2  and  C_3
REMARK    3  A    between atoms: C_3  and  N_4
REMARK    4  A    between atoms: N_9  and  C_10
REMARK    5  A    between atoms: C_10  and  C_11
REMARK    6  A    between atoms: C_10  and  C_20
REMARK    7  A    between atoms: C_11  and  S_12
REMARK    8  A    between atoms: S_12  and  C_13
REMARK                            x       y       z     vdW  Elec       q    Type
REMARK                         _______ _______ _______ _____ _____    ______ ____
ROOT
ATOM      1  C   UNL     1       3.265   6.278  17.744  0.00  0.00    +0.000 C 
ENDROOT
BRANCH   1   7
ATOM      2  N   UNL     1       6.670   4.426  15.234  0.00  0.00    +0.000 NA
ATOM      3  C   UNL     1       7.138   4.249  16.617  0.00  0.00    +0.000 C 
ATOM      4  C   UNL     1       7.052   5.463  17.537  0.00  0.00    +0.000 C 
ATOM      5  C   UNL     1       5.667   5.655  18.130  0.00  0.00    +0.000 C 
ATOM      6  O   UNL     1       5.483   5.428  19.325  0.00  0.00    +0.000 OA
ATOM      7  N   UNL     1       4.662   6.091  17.276  0.00  0.00    +0.000 N 
ATOM      8  C   UNL     1       4.887   6.167  15.828  0.00  0.00    +0.000 C 
ATOM      9  C   UNL     1       5.246   4.809  15.188  0.00  0.00    +0.000 C 
BRANCH   2  10
ATOM     10  C   UNL     1       7.506   5.293  14.390  0.00  0.00    +0.000 C 
BRANCH  10  12
ATOM     11  C   UNL     1       6.690   3.729  12.539  0.00  0.00    +0.000 C 
ATOM     12  C   UNL     1       7.488   4.976  12.888  0.00  0.00    +0.000 C 
ENDBRANCH  10  12
ENDBRANCH   2  10
ENDBRANCH   1   7
BRANCH   1  13
ATOM     13  C   UNL     1       2.672   4.971  18.270  0.00  0.00    +0.000 A 
ATOM     14  C   UNL     1       2.702   3.809  17.481  0.00  0.00    +0.000 A 
ATOM     15  C   UNL     1       2.099   2.630  17.925  0.00  0.00    +0.000 A 
ATOM     16  C   UNL     1       1.464   2.594  19.164  0.00  0.00    +0.000 A 
ATOM     17  C   UNL     1       1.448   3.729  19.969  0.00  0.00    +0.000 A 
ATOM     18  C   UNL     1       2.053   4.906  19.529  0.00  0.00    +0.000 A 
ENDBRANCH   1  13
BRANCH   1  19
ATOM     19  C   UNL     1       2.967   7.443  18.732  0.00  0.00    +0.000 C 
BRANCH  19  20
ATOM     20  S   UNL     1       1.962   8.798  18.010  0.00  0.00    +0.000 S 
BRANCH  20  21
ATOM     21  C   UNL     1       1.060   9.424  19.428  0.00  0.00    +0.000 A 
ATOM     22  C   UNL     1       0.946   8.768  20.661  0.00  0.00    +0.000 A 
ATOM     23  C   UNL     1       0.221   9.338  21.718  0.00  0.00    +0.000 A 
ATOM     24  C   UNL     1      -0.399  10.574  21.543  0.00  0.00    +0.000 A 
ATOM     25 BR   UNL     1      -1.355  11.361  22.972  0.00  0.00    +0.000 Br
ATOM     26  C   UNL     1      -0.320  11.232  20.320  0.00  0.00    +0.000 A 
ATOM     27  C   UNL     1       0.406  10.657  19.272  0.00  0.00    +0.000 A 
ENDBRANCH  20  21
ENDBRANCH  19  20
ENDBRANCH   1  19
TORSDOF 7
ENDMDL
MODEL 4
REMARK VINA RESULT:      -7.5      3.723      7.718
REMARK  Name = 
REMARK  8 active torsions:
REMARK  status: ('A' for Active; 'I' for Inactive)
REMARK    1  A    between atoms: C_1  and  C_2
REMARK    2  A    between atoms: C_2  and  C_3
REMARK    3  A    between atoms: C_3  and  N_4
REMARK    4  A    between atoms: N_9  and  C_10
REMARK    5  A    between atoms: C_10  and  C_11
REMARK    6  A    between atoms: C_10  and  C_20
REMARK    7  A    between atoms: C_11  and  S_12
REMARK    8  A    between atoms: S_12  and  C_13
REMARK                            x       y       z     vdW  Elec       q    Type
REMARK                         _______ _______ _______ _____ _____    ______ ____
ROOT
ATOM      1  C   UNL     1       2.827   6.675  19.341  0.00  0.00    +0.000 C 
ENDROOT
BRANCH   1   7
ATOM      2  N   UNL     1       1.050  10.891  18.724  0.00  0.00    +0.000 NA
ATOM      3  C   UNL     1       0.957  10.697  20.179  0.00  0.00    +0.000 C 
ATOM      4  C   UNL     1       0.375   9.373  20.665  0.00  0.00    +0.000 C 
ATOM      5  C   UNL     1       1.398   8.250  20.675  0.00  0.00    +0.000 C 
ATOM      6  O   UNL     1       1.819   7.825  21.749  0.00  0.00    +0.000 OA
ATOM      7  N   UNL     1       1.806   7.748  19.446  0.00  0.00    +0.000 N 
ATOM      8  C   UNL     1       1.418   8.412  18.197  0.00  0.00    +0.000 C 
ATOM      9  C   UNL     1       1.910   9.871  18.095  0.00  0.00    +0.000 C 
BRANCH   2  10
ATOM     10  C   UNL     1      -0.234  11.045  18.024  0.00  0.00    +0.000 C 
BRANCH  10  12
ATOM     11  C   UNL     1      -0.400  13.566  18.418  0.00  0.00    +0.000 C 
ATOM     12  C   UNL     1      -1.107  12.220  18.485  0.00  0.00    +0.000 C 
ENDBRANCH  10  12
ENDBRANCH   2  10
ENDBRANCH   1   7
BRANCH   1  13
ATOM     13  C   UNL     1       2.189   5.287  19.400  0.00  0.00    +0.000 A 
ATOM     14  C   UNL     1       1.805   4.632  18.219  0.00  0.00    +0.000 A 
ATOM     15  C   UNL     1       1.157   3.395  18.268  0.00  0.00    +0.000 A 
ATOM     16  C   UNL     1       0.890   2.794  19.496  0.00  0.00    +0.000 A 
ATOM     17  C   UNL     1       1.287   3.419  20.675  0.00  0.00    +0.000 A 
ATOM     18  C   UNL     1       1.939   4.651  20.627  0.00  0.00    +0.000 A 
ENDBRANCH   1  13
BRANCH   1  19
ATOM     19  C   UNL     1       3.856   6.747  18.175  0.00  0.00    +0.000 C 
BRANCH  19  20
ATOM     20  S   UNL     1       5.358   5.727  18.439  0.00  0.00    +0.000 S 
BRANCH  20  21
ATOM     21  C   UNL     1       5.765   5.181  16.779  0.00  0.00    +0.000 A 
ATOM     22  C   UNL     1       6.974   5.446  16.121  0.00  0.00    +0.000 A 
ATOM     23  C   UNL     1       7.206   4.973  14.821  0.00  0.00    +0.000 A 
ATOM     24  C   UNL     1       6.222   4.233  14.168  0.00  0.00    +0.000 A 
ATOM     25 BR   UNL     1       6.538   3.571  12.426  0.00  0.00    +0.000 Br
ATOM     26  C   UNL     1       5.005   3.979  14.793  0.00  0.00    +0.000 A 
ATOM     27  C   UNL     1       4.782   4.453  16.090  0.00  0.00    +0.000 A 
ENDBRANCH  20  21
ENDBRANCH  19  20
ENDBRANCH   1  19
TORSDOF 7
ENDMDL
MODEL 5
REMARK VINA RESULT:      -7.4      3.723      7.804
REMARK  Name = 
REMARK  8 active torsions:
REMARK  status: ('A' for Active; 'I' for Inactive)
REMARK    1  A    between atoms: C_1  and  C_2
REMARK    2  A    between atoms: C_2  and  C_3
REMARK    3  A    between atoms: C_3  and  N_4
REMARK    4  A    between atoms: N_9  and  C_10
REMARK    5  A    between atoms: C_10  and  C_11
REMARK    6  A    between atoms: C_10  and  C_20
REMARK    7  A    between atoms: C_11  and  S_12
REMARK    8  A    between atoms: S_12  and  C_13
REMARK                            x       y       z     vdW  Elec       q    Type
REMARK                         _______ _______ _______ _____ _____    ______ ____
ROOT
ATOM      1  C   UNL     1       2.769   6.743  19.384  0.00  0.00    +0.000 C 
ENDROOT
BRANCH   1   7
ATOM      2  N   UNL     1       1.020  10.958  18.678  0.00  0.00    +0.000 NA
ATOM      3  C   UNL     1       0.921  10.793  20.136  0.00  0.00    +0.000 C 
ATOM      4  C   UNL     1       0.329   9.483  20.646  0.00  0.00    +0.000 C 
ATOM      5  C   UNL     1       1.345   8.354  20.682  0.00  0.00    +0.000 C 
ATOM      6  O   UNL     1       1.759   7.947  21.766  0.00  0.00    +0.000 OA
ATOM      7  N   UNL     1       1.754   7.825  19.465  0.00  0.00    +0.000 N 
ATOM      8  C   UNL     1       1.374   8.466  18.201  0.00  0.00    +0.000 C 
ATOM      9  C   UNL     1       1.876   9.921  18.073  0.00  0.00    +0.000 C 
BRANCH   2  10
ATOM     10  C   UNL     1      -0.260  11.106  17.971  0.00  0.00    +0.000 C 
BRANCH  10  12
ATOM     11  C   UNL     1      -2.664  11.728  18.578  0.00  0.00    +0.000 C 
ATOM     12  C   UNL     1      -1.211  12.174  18.531  0.00  0.00    +0.000 C 
ENDBRANCH  10  12
ENDBRANCH   2  10
ENDBRANCH   1   7
BRANCH   1  13
ATOM     13  C   UNL     1       2.117   5.361  19.412  0.00  0.00    +0.000 A 
ATOM     14  C   UNL     1       1.872   4.717  20.636  0.00  0.00    +0.000 A 
ATOM     15  C   UNL     1       1.342   3.425  20.668  0.00  0.00    +0.000 A 
ATOM     16  C   UNL     1       1.046   2.761  19.480  0.00  0.00    +0.000 A 
ATOM     17  C   UNL     1       1.259   3.396  18.260  0.00  0.00    +0.000 A 
ATOM     18  C   UNL     1       1.783   4.688  18.226  0.00  0.00    +0.000 A 
ENDBRANCH   1  13
BRANCH   1  19
ATOM     19  C   UNL     1       3.835   6.815  18.252  0.00  0.00    +0.000 C 
BRANCH  19  20
ATOM     20  S   UNL     1       5.287   5.726  18.523  0.00  0.00    +0.000 S 
BRANCH  20  21
ATOM     21  C   UNL     1       5.688   5.178  16.862  0.00  0.00    +0.000 A 
ATOM     22  C   UNL     1       6.852   5.522  16.163  0.00  0.00    +0.000 A 
ATOM     23  C   UNL     1       7.083   5.041  14.865  0.00  0.00    +0.000 A 
ATOM     24  C   UNL     1       6.143   4.210  14.258  0.00  0.00    +0.000 A 
ATOM     25 BR   UNL     1       6.461   3.537  12.521  0.00  0.00    +0.000 Br
ATOM     26  C   UNL     1       4.969   3.875  14.925  0.00  0.00    +0.000 A 
ATOM     27  C   UNL     1       4.746   4.359  16.218  0.00  0.00    +0.000 A 
ENDBRANCH  20  21
ENDBRANCH  19  20
ENDBRANCH   1  19
TORSDOF 7
ENDMDL
MODEL 6
REMARK VINA RESULT:      -7.4      1.690      2.616
REMARK  Name = 
REMARK  8 active torsions:
REMARK  status: ('A' for Active; 'I' for Inactive)
REMARK    1  A    between atoms: C_1  and  C_2
REMARK    2  A    between atoms: C_2  and  C_3
REMARK    3  A    between atoms: C_3  and  N_4
REMARK    4  A    between atoms: N_9  and  C_10
REMARK    5  A    between atoms: C_10  and  C_11
REMARK    6  A    between atoms: C_10  and  C_20
REMARK    7  A    between atoms: C_11  and  S_12
REMARK    8  A    between atoms: S_12  and  C_13
REMARK                            x       y       z     vdW  Elec       q    Type
REMARK                         _______ _______ _______ _____ _____    ______ ____
ROOT
ATOM      1  C   UNL     1       2.376   5.650  18.681  0.00  0.00    +0.000 C 
ENDROOT
BRANCH   1   7
ATOM      2  N   UNL     1       6.020   6.215  15.902  0.00  0.00    +0.000 NA
ATOM      3  C   UNL     1       5.416   4.966  15.414  0.00  0.00    +0.000 C 
ATOM      4  C   UNL     1       5.047   3.921  16.462  0.00  0.00    +0.000 C 
ATOM      5  C   UNL     1       3.708   4.199  17.124  0.00  0.00    +0.000 C 
ATOM      6  O   UNL     1       2.745   3.479  16.867  0.00  0.00    +0.000 OA
ATOM      7  N   UNL     1       3.643   5.269  18.007  0.00  0.00    +0.000 N 
ATOM      8  C   UNL     1       4.765   6.206  18.135  0.00  0.00    +0.000 C 
ATOM      9  C   UNL     1       5.115   6.933  16.819  0.00  0.00    +0.000 C 
BRANCH   2  10
ATOM     10  C   UNL     1       7.379   6.088  16.449  0.00  0.00    +0.000 C 
BRANCH  10  12
ATOM     11  C   UNL     1       8.116   6.465  18.868  0.00  0.00    +0.000 C 
ATOM     12  C   UNL     1       7.757   7.105  17.535  0.00  0.00    +0.000 C 
ENDBRANCH  10  12
ENDBRANCH   2  10
ENDBRANCH   1   7
BRANCH   1  13
ATOM     13  C   UNL     1       1.957   4.607  19.717  0.00  0.00    +0.000 A 
ATOM     14  C   UNL     1       2.632   4.516  20.945  0.00  0.00    +0.000 A 
ATOM     15  C   UNL     1       2.302   3.520  21.867  0.00  0.00    +0.000 A 
ATOM     16  C   UNL     1       1.291   2.606  21.578  0.00  0.00    +0.000 A 
ATOM     17  C   UNL     1       0.595   2.700  20.376  0.00  0.00    +0.000 A 
ATOM     18  C   UNL     1       0.920   3.697  19.456  0.00  0.00    +0.000 A 
ENDBRANCH   1  13
BRANCH   1  19
ATOM     19  C   UNL     1       2.261   7.083  19.280  0.00  0.00    +0.000 C 
BRANCH  19  20
ATOM     20  S   UNL     1       1.864   8.380  18.044  0.00  0.00    +0.000 S 
BRANCH  20  21
ATOM     21  C   UNL     1       0.798   9.492  18.964  0.00  0.00    +0.000 A 
ATOM     22  C   UNL     1       0.873   9.717  20.345  0.00  0.00    +0.000 A 
ATOM     23  C   UNL     1      -0.002  10.611  20.979  0.00  0.00    +0.000 A 
ATOM     24  C   UNL     1      -0.964  11.286  20.229  0.00  0.00    +0.000 A 
ATOM     25 BR   UNL     1      -2.129  12.513  21.073  0.00  0.00    +0.000 Br
ATOM     26  C   UNL     1      -1.072  11.060  18.861  0.00  0.00    +0.000 A 
ATOM     27  C   UNL     1      -0.196  10.167  18.236  0.00  0.00    +0.000 A 
ENDBRANCH  20  21
ENDBRANCH  19  20
ENDBRANCH   1  19
TORSDOF 7
ENDMDL
MODEL 7
REMARK VINA RESULT:      -7.4      1.627      2.415
REMARK  Name = 
REMARK  8 active torsions:
REMARK  status: ('A' for Active; 'I' for Inactive)
REMARK    1  A    between atoms: C_1  and  C_2
REMARK    2  A    between atoms: C_2  and  C_3
REMARK    3  A    between atoms: C_3  and  N_4
REMARK    4  A    between atoms: N_9  and  C_10
REMARK    5  A    between atoms: C_10  and  C_11
REMARK    6  A    between atoms: C_10  and  C_20
REMARK    7  A    between atoms: C_11  and  S_12
REMARK    8  A    between atoms: S_12  and  C_13
REMARK                            x       y       z     vdW  Elec       q    Type
REMARK                         _______ _______ _______ _____ _____    ______ ____
ROOT
ATOM      1  C   UNL     1       2.419   5.739  18.694  0.00  0.00    +0.000 C 
ENDROOT
BRANCH   1   7
ATOM      2  N   UNL     1       6.157   6.470  16.083  0.00  0.00    +0.000 NA
ATOM      3  C   UNL     1       5.574   5.252  15.501  0.00  0.00    +0.000 C 
ATOM      4  C   UNL     1       5.171   4.146  16.471  0.00  0.00    +0.000 C 
ATOM      5  C   UNL     1       3.809   4.384  17.101  0.00  0.00    +0.000 C 
ATOM      6  O   UNL     1       2.857   3.680  16.768  0.00  0.00    +0.000 OA
ATOM      7  N   UNL     1       3.710   5.400  18.043  0.00  0.00    +0.000 N 
ATOM      8  C   UNL     1       4.824   6.328  18.266  0.00  0.00    +0.000 C 
ATOM      9  C   UNL     1       5.218   7.132  17.009  0.00  0.00    +0.000 C 
BRANCH   2  10
ATOM     10  C   UNL     1       7.496   6.312  16.669  0.00  0.00    +0.000 C 
BRANCH  10  12
ATOM     11  C   UNL     1       8.219   8.452  17.867  0.00  0.00    +0.000 C 
ATOM     12  C   UNL     1       7.723   7.021  18.012  0.00  0.00    +0.000 C 
ENDBRANCH  10  12
ENDBRANCH   2  10
ENDBRANCH   1   7
BRANCH   1  13
ATOM     13  C   UNL     1       1.985   4.653  19.677  0.00  0.00    +0.000 A 
ATOM     14  C   UNL     1       2.613   4.536  20.928  0.00  0.00    +0.000 A 
ATOM     15  C   UNL     1       2.271   3.502  21.803  0.00  0.00    +0.000 A 
ATOM     16  C   UNL     1       1.294   2.577  21.444  0.00  0.00    +0.000 A 
ATOM     17  C   UNL     1       0.644   2.695  20.219  0.00  0.00    +0.000 A 
ATOM     18  C   UNL     1       0.981   3.729  19.346  0.00  0.00    +0.000 A 
ENDBRANCH   1  13
BRANCH   1  19
ATOM     19  C   UNL     1       2.268   7.147  19.342  0.00  0.00    +0.000 C 
BRANCH  19  20
ATOM     20  S   UNL     1       1.832   8.474  18.153  0.00  0.00    +0.000 S 
BRANCH  20  21
ATOM     21  C   UNL     1       0.806   9.569  19.136  0.00  0.00    +0.000 A 
ATOM     22  C   UNL     1       0.001  10.594  18.621  0.00  0.00    +0.000 A 
ATOM     23  C   UNL     1      -0.773  11.399  19.470  0.00  0.00    +0.000 A 
ATOM     24  C   UNL     1      -0.742  11.183  20.846  0.00  0.00    +0.000 A 
ATOM     25 BR   UNL     1      -1.803  12.248  21.993  0.00  0.00    +0.000 Br
ATOM     26  C   UNL     1       0.069  10.188  21.382  0.00  0.00    +0.000 A 
ATOM     27  C   UNL     1       0.837   9.388  20.529  0.00  0.00    +0.000 A 
ENDBRANCH  20  21
ENDBRANCH  19  20
ENDBRANCH   1  19
TORSDOF 7
ENDMDL
MODEL 8
REMARK VINA RESULT:      -7.3      0.982      1.546
REMARK  Name = 
REMARK  8 active torsions:
REMARK  status: ('A' for Active; 'I' for Inactive)
REMARK    1  A    between atoms: C_1  and  C_2
REMARK    2  A    between atoms: C_2  and  C_3
REMARK    3  A    between atoms: C_3  and  N_4
REMARK    4  A    between atoms: N_9  and  C_10
REMARK    5  A    between atoms: C_10  and  C_11
REMARK    6  A    between atoms: C_10  and  C_20
REMARK    7  A    between atoms: C_11  and  S_12
REMARK    8  A    between atoms: S_12  and  C_13
REMARK                            x       y       z     vdW  Elec       q    Type
REMARK                         _______ _______ _______ _____ _____    ______ ____
ROOT
ATOM      1  C   UNL     1       2.686   6.142  18.037  0.00  0.00    +0.000 C 
ENDROOT
BRANCH   1   7
ATOM      2  N   UNL     1       6.369   4.131  16.111  0.00  0.00    +0.000 NA
ATOM      3  C   UNL     1       6.706   4.146  17.543  0.00  0.00    +0.000 C 
ATOM      4  C   UNL     1       6.497   5.461  18.288  0.00  0.00    +0.000 C 
ATOM      5  C   UNL     1       5.056   5.670  18.720  0.00  0.00    +0.000 C 
ATOM      6  O   UNL     1       4.764   5.587  19.912  0.00  0.00    +0.000 OA
ATOM      7  N   UNL     1       4.127   5.956  17.728  0.00  0.00    +0.000 N 
ATOM      8  C   UNL     1       4.489   5.859  16.310  0.00  0.00    +0.000 C 
ATOM      9  C   UNL     1       4.947   4.447  15.885  0.00  0.00    +0.000 C 
BRANCH   2  10
ATOM     10  C   UNL     1       7.259   4.918  15.244  0.00  0.00    +0.000 C 
BRANCH  10  12
ATOM     11  C   UNL     1       8.091   5.374  12.870  0.00  0.00    +0.000 C 
ATOM     12  C   UNL     1       6.964   4.837  13.739  0.00  0.00    +0.000 C 
ENDBRANCH  10  12
ENDBRANCH   2  10
ENDBRANCH   1   7
BRANCH   1  13
ATOM     13  C   UNL     1       2.088   4.897  18.692  0.00  0.00    +0.000 A 
ATOM     14  C   UNL     1       1.641   4.942  20.023  0.00  0.00    +0.000 A 
ATOM     15  C   UNL     1       1.159   3.791  20.650  0.00  0.00    +0.000 A 
ATOM     16  C   UNL     1       1.111   2.584  19.957  0.00  0.00    +0.000 A 
ATOM     17  C   UNL     1       1.526   2.530  18.629  0.00  0.00    +0.000 A 
ATOM     18  C   UNL     1       2.003   3.679  17.999  0.00  0.00    +0.000 A 
ENDBRANCH   1  13
BRANCH   1  19
ATOM     19  C   UNL     1       2.258   7.421  18.814  0.00  0.00    +0.000 C 
BRANCH  19  20
ATOM     20  S   UNL     1       2.323   8.960  17.817  0.00  0.00    +0.000 S 
BRANCH  20  21
ATOM     21  C   UNL     1       0.997   9.944  18.518  0.00  0.00    +0.000 A 
ATOM     22  C   UNL     1       1.128  10.797  19.622  0.00  0.00    +0.000 A 
ATOM     23  C   UNL     1       0.033  11.533  20.099  0.00  0.00    +0.000 A 
ATOM     24  C   UNL     1      -1.206  11.416  19.471  0.00  0.00    +0.000 A 
ATOM     25 BR   UNL     1      -2.679  12.425  20.092  0.00  0.00    +0.000 Br
ATOM     26  C   UNL     1      -1.365  10.557  18.388  0.00  0.00    +0.000 A 
ATOM     27  C   UNL     1      -0.268   9.827  17.918  0.00  0.00    +0.000 A 
ENDBRANCH  20  21
ENDBRANCH  19  20
ENDBRANCH   1  19
TORSDOF 7
ENDMDL
MODEL 9
REMARK VINA RESULT:      -7.2      4.603      8.606
REMARK  Name = 
REMARK  8 active torsions:
REMARK  status: ('A' for Active; 'I' for Inactive)
REMARK    1  A    between atoms: C_1  and  C_2
REMARK    2  A    between atoms: C_2  and  C_3
REMARK    3  A    between atoms: C_3  and  N_4
REMARK    4  A    between atoms: N_9  and  C_10
REMARK    5  A    between atoms: C_10  and  C_11
REMARK    6  A    between atoms: C_10  and  C_20
REMARK    7  A    between atoms: C_11  and  S_12
REMARK    8  A    between atoms: S_12  and  C_13
REMARK                            x       y       z     vdW  Elec       q    Type
REMARK                         _______ _______ _______ _____ _____    ______ ____
ROOT
ATOM      1  C   UNL     1      -0.241  10.689  19.566  0.00  0.00    +0.000 C 
ENDROOT
BRANCH   1   7
ATOM      2  N   UNL     1       2.821  14.145  19.523  0.00  0.00    +0.000 NA
ATOM      3  C   UNL     1       2.468  14.027  20.946  0.00  0.00    +0.000 C 
ATOM      4  C   UNL     1       0.983  13.944  21.285  0.00  0.00    +0.000 C 
ATOM      5  C   UNL     1       0.421  12.542  21.126  0.00  0.00    +0.000 C 
ATOM      6  O   UNL     1       0.120  11.894  22.127  0.00  0.00    +0.000 OA
ATOM      7  N   UNL     1       0.266  12.059  19.834  0.00  0.00    +0.000 N 
ATOM      8  C   UNL     1       0.811  12.794  18.687  0.00  0.00    +0.000 C 
ATOM      9  C   UNL     1       2.342  12.985  18.748  0.00  0.00    +0.000 C 
BRANCH   2  10
ATOM     10  C   UNL     1       2.467  15.422  18.888  0.00  0.00    +0.000 C 
BRANCH  10  12
ATOM     11  C   UNL     1       2.816  17.045  16.943  0.00  0.00    +0.000 C 
ATOM     12  C   UNL     1       3.359  15.851  17.714  0.00  0.00    +0.000 C 
ENDBRANCH  10  12
ENDBRANCH   2  10
ENDBRANCH   1   7
BRANCH   1  13
ATOM     13  C   UNL     1      -1.395  10.704  18.563  0.00  0.00    +0.000 A 
ATOM     14  C   UNL     1      -2.521  11.512  18.791  0.00  0.00    +0.000 A 
ATOM     15  C   UNL     1      -3.610  11.478  17.916  0.00  0.00    +0.000 A 
ATOM     16  C   UNL     1      -3.585  10.643  16.801  0.00  0.00    +0.000 A 
ATOM     17  C   UNL     1      -2.465   9.857  16.548  0.00  0.00    +0.000 A 
ATOM     18  C   UNL     1      -1.375   9.893  17.418  0.00  0.00    +0.000 A 
ENDBRANCH   1  13
BRANCH   1  19
ATOM     19  C   UNL     1       0.787   9.582  19.191  0.00  0.00    +0.000 C 
BRANCH  19  20
ATOM     20  S   UNL     1       1.328   8.552  20.610  0.00  0.00    +0.000 S 
BRANCH  20  21
ATOM     21  C   UNL     1       2.033   7.110  19.808  0.00  0.00    +0.000 A 
ATOM     22  C   UNL     1       2.687   7.119  18.570  0.00  0.00    +0.000 A 
ATOM     23  C   UNL     1       3.212   5.939  18.022  0.00  0.00    +0.000 A 
ATOM     24  C   UNL     1       3.080   4.737  18.714  0.00  0.00    +0.000 A 
ATOM     25 BR   UNL     1       3.808   3.148  17.994  0.00  0.00    +0.000 Br
ATOM     26  C   UNL     1       2.413   4.700  19.934  0.00  0.00    +0.000 A 
ATOM     27  C   UNL     1       1.893   5.881  20.474  0.00  0.00    +0.000 A 
ENDBRANCH  20  21
ENDBRANCH  19  20
ENDBRANCH   1  19
TORSDOF 7
ENDMDL
