MODEL 1
REMARK VINA RESULT:      -6.9      0.000      0.000
REMARK  Name = 
REMARK  6 active torsions:
REMARK  status: ('A' for Active; 'I' for Inactive)
REMARK    1  A    between atoms: C_1  and  N_2
REMARK    2  A    between atoms: N_2  and  C_3
REMARK    3  A    between atoms: N_2  and  C_4
REMARK    4  A    between atoms: C_4  and  C_5
REMARK    5  A    between atoms: C_11  and  O_12
REMARK    6  A    between atoms: C_13  and  O_14
REMARK                            x       y       z     vdW  Elec       q    Type
REMARK                         _______ _______ _______ _____ _____    ______ ____
ROOT
ATOM      1  C   UNL     1       3.740   5.041  19.582  0.00  0.00    +0.000 C 
ATOM      2  C   UNL     1       2.749   6.214  19.770  0.00  0.00    +0.000 C 
ATOM      3  C   UNL     1       2.224   6.713  18.433  0.00  0.00    +0.000 C 
ATOM      4  C   UNL     1       3.377   7.255  17.570  0.00  0.00    +0.000 C 
ATOM      5  C   UNL     1       4.626   6.398  17.599  0.00  0.00    +0.000 A 
ATOM      6  C   UNL     1       5.623   6.627  16.641  0.00  0.00    +0.000 A 
ATOM      7  C   UNL     1       6.785   5.839  16.610  0.00  0.00    +0.000 A 
ATOM      8  C   UNL     1       6.967   4.829  17.564  0.00  0.00    +0.000 A 
ATOM      9  C   UNL     1       5.975   4.587  18.520  0.00  0.00    +0.000 A 
ATOM     10  C   UNL     1       4.799   5.355  18.546  0.00  0.00    +0.000 A 
ENDROOT
BRANCH   7  11
ATOM     11  O   UNL     1       7.724   6.046  15.662  0.00  0.00    +0.000 OA
ATOM     12  H   UNL     1       7.863   5.426  14.933  0.00  0.00    +0.000 HD
ENDBRANCH   7  11
BRANCH   8  13
ATOM     13  O   UNL     1       8.084   4.066  17.581  0.00  0.00    +0.000 OA
ATOM     14  H   UNL     1       8.153   3.254  18.101  0.00  0.00    +0.000 HD
ENDBRANCH   8  13
BRANCH   1  15
ATOM     15  C   UNL     1       3.070   3.645  19.338  0.00  0.00    +0.000 C 
BRANCH  15  17
ATOM     16  C   UNL     1       0.834   2.610  18.968  0.00  0.00    +0.000 C 
ATOM     17  N   UNL     1       1.671   3.472  19.820  0.00  0.00    +0.000 NA
ATOM     18  C   UNL     1       1.684   2.879  21.169  0.00  0.00    +0.000 C 
ENDBRANCH  15  17
ENDBRANCH   1  15
TORSDOF 4
ENDMDL
MODEL 2
REMARK VINA RESULT:      -6.8      0.829      1.138
REMARK  Name = 
REMARK  6 active torsions:
REMARK  status: ('A' for Active; 'I' for Inactive)
REMARK    1  A    between atoms: C_1  and  N_2
REMARK    2  A    between atoms: N_2  and  C_3
REMARK    3  A    between atoms: N_2  and  C_4
REMARK    4  A    between atoms: C_4  and  C_5
REMARK    5  A    between atoms: C_11  and  O_12
REMARK    6  A    between atoms: C_13  and  O_14
REMARK                            x       y       z     vdW  Elec       q    Type
REMARK                         _______ _______ _______ _____ _____    ______ ____
ROOT
ATOM      1  C   UNL     1       3.909   5.204  19.649  0.00  0.00    +0.000 C 
ATOM      2  C   UNL     1       2.894   6.371  19.709  0.00  0.00    +0.000 C 
ATOM      3  C   UNL     1       2.296   6.653  18.339  0.00  0.00    +0.000 C 
ATOM      4  C   UNL     1       3.393   7.085  17.351  0.00  0.00    +0.000 C 
ATOM      5  C   UNL     1       4.667   6.269  17.446  0.00  0.00    +0.000 A 
ATOM      6  C   UNL     1       5.614   6.374  16.418  0.00  0.00    +0.000 A 
ATOM      7  C   UNL     1       6.794   5.615  16.448  0.00  0.00    +0.000 A 
ATOM      8  C   UNL     1       7.048   4.763  17.531  0.00  0.00    +0.000 A 
ATOM      9  C   UNL     1       6.107   4.645  18.559  0.00  0.00    +0.000 A 
ATOM     10  C   UNL     1       4.912   5.383  18.528  0.00  0.00    +0.000 A 
ENDROOT
BRANCH   7  11
ATOM     11  O   UNL     1       7.685   5.699  15.436  0.00  0.00    +0.000 OA
ATOM     12  H   UNL     1       7.640   6.397  14.769  0.00  0.00    +0.000 HD
ENDBRANCH   7  11
BRANCH   8  13
ATOM     13  O   UNL     1       8.186   4.035  17.607  0.00  0.00    +0.000 OA
ATOM     14  H   UNL     1       8.301   3.311  18.238  0.00  0.00    +0.000 HD
ENDBRANCH   8  13
BRANCH   1  15
ATOM     15  C   UNL     1       3.268   3.773  19.646  0.00  0.00    +0.000 C 
BRANCH  15  17
ATOM     16  C   UNL     1       3.398   1.917  17.991  0.00  0.00    +0.000 C 
ATOM     17  N   UNL     1       2.828   3.232  18.330  0.00  0.00    +0.000 NA
ATOM     18  C   UNL     1       1.361   3.092  18.320  0.00  0.00    +0.000 C 
ENDBRANCH  15  17
ENDBRANCH   1  15
TORSDOF 4
ENDMDL
MODEL 3
REMARK VINA RESULT:      -6.8      3.102      4.945
REMARK  Name = 
REMARK  6 active torsions:
REMARK  status: ('A' for Active; 'I' for Inactive)
REMARK    1  A    between atoms: C_1  and  N_2
REMARK    2  A    between atoms: N_2  and  C_3
REMARK    3  A    between atoms: N_2  and  C_4
REMARK    4  A    between atoms: C_4  and  C_5
REMARK    5  A    between atoms: C_11  and  O_12
REMARK    6  A    between atoms: C_13  and  O_14
REMARK                            x       y       z     vdW  Elec       q    Type
REMARK                         _______ _______ _______ _____ _____    ______ ____
ROOT
ATOM      1  C   UNL     1       4.963   5.467  17.748  0.00  0.00    +0.000 C 
ATOM      2  C   UNL     1       4.470   6.828  17.199  0.00  0.00    +0.000 C 
ATOM      3  C   UNL     1       3.287   7.350  18.000  0.00  0.00    +0.000 C 
ATOM      4  C   UNL     1       2.095   6.383  17.895  0.00  0.00    +0.000 C 
ATOM      5  C   UNL     1       2.474   4.920  18.007  0.00  0.00    +0.000 A 
ATOM      6  C   UNL     1       1.461   3.974  18.215  0.00  0.00    +0.000 A 
ATOM      7  C   UNL     1       1.767   2.612  18.354  0.00  0.00    +0.000 A 
ATOM      8  C   UNL     1       3.097   2.182  18.257  0.00  0.00    +0.000 A 
ATOM      9  C   UNL     1       4.117   3.118  18.057  0.00  0.00    +0.000 A 
ATOM     10  C   UNL     1       3.824   4.487  17.937  0.00  0.00    +0.000 A 
ENDROOT
BRANCH   7  11
ATOM     11  O   UNL     1       0.786   1.713  18.588  0.00  0.00    +0.000 OA
ATOM     12  H   UNL     1       0.495   1.083  17.914  0.00  0.00    +0.000 HD
ENDBRANCH   7  11
BRANCH   8  13
ATOM     13  O   UNL     1       3.427   0.875  18.362  0.00  0.00    +0.000 OA
ATOM     14  H   UNL     1       2.799   0.162  18.181  0.00  0.00    +0.000 HD
ENDBRANCH   8  13
BRANCH   1  15
ATOM     15  C   UNL     1       5.879   5.562  19.016  0.00  0.00    +0.000 C 
BRANCH  15  17
ATOM     16  C   UNL     1       7.678   4.532  17.634  0.00  0.00    +0.000 C 
ATOM     17  N   UNL     1       7.339   5.346  18.814  0.00  0.00    +0.000 NA
ATOM     18  C   UNL     1       8.014   6.647  18.660  0.00  0.00    +0.000 C 
ENDBRANCH  15  17
ENDBRANCH   1  15
TORSDOF 4
ENDMDL
MODEL 4
REMARK VINA RESULT:      -6.6      1.539      1.554
REMARK  Name = 
REMARK  6 active torsions:
REMARK  status: ('A' for Active; 'I' for Inactive)
REMARK    1  A    between atoms: C_1  and  N_2
REMARK    2  A    between atoms: N_2  and  C_3
REMARK    3  A    between atoms: N_2  and  C_4
REMARK    4  A    between atoms: C_4  and  C_5
REMARK    5  A    between atoms: C_11  and  O_12
REMARK    6  A    between atoms: C_13  and  O_14
REMARK                            x       y       z     vdW  Elec       q    Type
REMARK                         _______ _______ _______ _____ _____    ______ ____
ROOT
ATOM      1  C   UNL     1       2.855   4.951  18.625  0.00  0.00    +0.000 C 
ATOM      2  C   UNL     1       2.561   6.263  19.390  0.00  0.00    +0.000 C 
ATOM      3  C   UNL     1       2.315   7.418  18.431  0.00  0.00    +0.000 C 
ATOM      4  C   UNL     1       3.566   7.686  17.577  0.00  0.00    +0.000 C 
ATOM      5  C   UNL     1       4.243   6.432  17.063  0.00  0.00    +0.000 A 
ATOM      6  C   UNL     1       5.205   6.551  16.050  0.00  0.00    +0.000 A 
ATOM      7  C   UNL     1       5.837   5.415  15.521  0.00  0.00    +0.000 A 
ATOM      8  C   UNL     1       5.528   4.147  16.028  0.00  0.00    +0.000 A 
ATOM      9  C   UNL     1       4.565   4.014  17.034  0.00  0.00    +0.000 A 
ATOM     10  C   UNL     1       3.910   5.143  17.555  0.00  0.00    +0.000 A 
ENDROOT
BRANCH   7  11
ATOM     11  O   UNL     1       6.738   5.539  14.522  0.00  0.00    +0.000 OA
ATOM     12  H   UNL     1       7.672   5.321  14.643  0.00  0.00    +0.000 HD
ENDBRANCH   7  11
BRANCH   8  13
ATOM     13  O   UNL     1       6.135   3.031  15.561  0.00  0.00    +0.000 OA
ATOM     14  H   UNL     1       5.977   2.685  14.672  0.00  0.00    +0.000 HD
ENDBRANCH   8  13
BRANCH   1  15
ATOM     15  C   UNL     1       1.587   4.210  18.077  0.00  0.00    +0.000 C 
BRANCH  15  17
ATOM     16  C   UNL     1       2.221   1.920  18.824  0.00  0.00    +0.000 C 
ATOM     17  N   UNL     1       1.179   2.959  18.776  0.00  0.00    +0.000 NA
ATOM     18  C   UNL     1       0.804   3.271  20.167  0.00  0.00    +0.000 C 
ENDBRANCH  15  17
ENDBRANCH   1  15
TORSDOF 4
ENDMDL
MODEL 5
REMARK VINA RESULT:      -6.6      1.189      1.414
REMARK  Name = 
REMARK  6 active torsions:
REMARK  status: ('A' for Active; 'I' for Inactive)
REMARK    1  A    between atoms: C_1  and  N_2
REMARK    2  A    between atoms: N_2  and  C_3
REMARK    3  A    between atoms: N_2  and  C_4
REMARK    4  A    between atoms: C_4  and  C_5
REMARK    5  A    between atoms: C_11  and  O_12
REMARK    6  A    between atoms: C_13  and  O_14
REMARK                            x       y       z     vdW  Elec       q    Type
REMARK                         _______ _______ _______ _____ _____    ______ ____
ROOT
ATOM      1  C   UNL     1       3.254   4.539  18.422  0.00  0.00    +0.000 C 
ATOM      2  C   UNL     1       2.275   5.587  19.003  0.00  0.00    +0.000 C 
ATOM      3  C   UNL     1       2.070   6.745  18.039  0.00  0.00    +0.000 C 
ATOM      4  C   UNL     1       3.398   7.483  17.793  0.00  0.00    +0.000 C 
ATOM      5  C   UNL     1       4.588   6.566  17.602  0.00  0.00    +0.000 A 
ATOM      6  C   UNL     1       5.778   7.102  17.090  0.00  0.00    +0.000 A 
ATOM      7  C   UNL     1       6.897   6.285  16.868  0.00  0.00    +0.000 A 
ATOM      8  C   UNL     1       6.840   4.922  17.187  0.00  0.00    +0.000 A 
ATOM      9  C   UNL     1       5.656   4.375  17.692  0.00  0.00    +0.000 A 
ATOM     10  C   UNL     1       4.523   5.179  17.898  0.00  0.00    +0.000 A 
ENDROOT
BRANCH   7  11
ATOM     11  O   UNL     1       8.027   6.805  16.342  0.00  0.00    +0.000 OA
ATOM     12  H   UNL     1       8.860   6.314  16.327  0.00  0.00    +0.000 HD
ENDBRANCH   7  11
BRANCH   8  13
ATOM     13  O   UNL     1       7.907   4.109  17.010  0.00  0.00    +0.000 OA
ATOM     14  H   UNL     1       8.236   3.522  17.705  0.00  0.00    +0.000 HD
ENDBRANCH   8  13
BRANCH   1  15
ATOM     15  C   UNL     1       2.619   3.549  17.385  0.00  0.00    +0.000 C 
BRANCH  15  17
ATOM     16  C   UNL     1       3.470   1.531  18.571  0.00  0.00    +0.000 C 
ATOM     17  N   UNL     1       2.349   2.161  17.852  0.00  0.00    +0.000 NA
ATOM     18  C   UNL     1       1.189   2.163  18.761  0.00  0.00    +0.000 C 
ENDBRANCH  15  17
ENDBRANCH   1  15
TORSDOF 4
ENDMDL
MODEL 6
REMARK VINA RESULT:      -6.5      1.881      3.238
REMARK  Name = 
REMARK  6 active torsions:
REMARK  status: ('A' for Active; 'I' for Inactive)
REMARK    1  A    between atoms: C_1  and  N_2
REMARK    2  A    between atoms: N_2  and  C_3
REMARK    3  A    between atoms: N_2  and  C_4
REMARK    4  A    between atoms: C_4  and  C_5
REMARK    5  A    between atoms: C_11  and  O_12
REMARK    6  A    between atoms: C_13  and  O_14
REMARK                            x       y       z     vdW  Elec       q    Type
REMARK                         _______ _______ _______ _____ _____    ______ ____
ROOT
ATOM      1  C   UNL     1       2.525   5.771  18.031  0.00  0.00    +0.000 C 
ATOM      2  C   UNL     1       1.506   4.646  17.729  0.00  0.00    +0.000 C 
ATOM      3  C   UNL     1       2.057   3.283  18.120  0.00  0.00    +0.000 C 
ATOM      4  C   UNL     1       3.318   2.956  17.301  0.00  0.00    +0.000 C 
ATOM      5  C   UNL     1       4.274   4.122  17.147  0.00  0.00    +0.000 A 
ATOM      6  C   UNL     1       5.572   3.873  16.679  0.00  0.00    +0.000 A 
ATOM      7  C   UNL     1       6.501   4.916  16.548  0.00  0.00    +0.000 A 
ATOM      8  C   UNL     1       6.124   6.229  16.860  0.00  0.00    +0.000 A 
ATOM      9  C   UNL     1       4.834   6.488  17.334  0.00  0.00    +0.000 A 
ATOM     10  C   UNL     1       3.902   5.448  17.490  0.00  0.00    +0.000 A 
ENDROOT
BRANCH   7  11
ATOM     11  O   UNL     1       7.759   4.660  16.129  0.00  0.00    +0.000 OA
ATOM     12  H   UNL     1       8.222   5.240  15.509  0.00  0.00    +0.000 HD
ENDBRANCH   7  11
BRANCH   8  13
ATOM     13  O   UNL     1       6.984   7.264  16.723  0.00  0.00    +0.000 OA
ATOM     14  H   UNL     1       6.690   8.164  16.527  0.00  0.00    +0.000 HD
ENDBRANCH   8  13
BRANCH   1  15
ATOM     15  C   UNL     1       2.572   6.232  19.529  0.00  0.00    +0.000 C 
BRANCH  15  17
ATOM     16  C   UNL     1       1.874   8.448  18.631  0.00  0.00    +0.000 C 
ATOM     17  N   UNL     1       2.329   7.676  19.800  0.00  0.00    +0.000 NA
ATOM     18  C   UNL     1       1.301   7.815  20.847  0.00  0.00    +0.000 C 
ENDBRANCH  15  17
ENDBRANCH   1  15
TORSDOF 4
ENDMDL
MODEL 7
REMARK VINA RESULT:      -6.2      3.481      5.641
REMARK  Name = 
REMARK  6 active torsions:
REMARK  status: ('A' for Active; 'I' for Inactive)
REMARK    1  A    between atoms: C_1  and  N_2
REMARK    2  A    between atoms: N_2  and  C_3
REMARK    3  A    between atoms: N_2  and  C_4
REMARK    4  A    between atoms: C_4  and  C_5
REMARK    5  A    between atoms: C_11  and  O_12
REMARK    6  A    between atoms: C_13  and  O_14
REMARK                            x       y       z     vdW  Elec       q    Type
REMARK                         _______ _______ _______ _____ _____    ______ ____
ROOT
ATOM      1  C   UNL     1       6.278   5.769  16.476  0.00  0.00    +0.000 C 
ATOM      2  C   UNL     1       7.151   6.728  17.319  0.00  0.00    +0.000 C 
ATOM      3  C   UNL     1       7.786   6.005  18.497  0.00  0.00    +0.000 C 
ATOM      4  C   UNL     1       6.703   5.460  19.444  0.00  0.00    +0.000 C 
ATOM      5  C   UNL     1       5.526   4.822  18.734  0.00  0.00    +0.000 A 
ATOM      6  C   UNL     1       4.631   4.043  19.479  0.00  0.00    +0.000 A 
ATOM      7  C   UNL     1       3.543   3.408  18.860  0.00  0.00    +0.000 A 
ATOM      8  C   UNL     1       3.328   3.575  17.486  0.00  0.00    +0.000 A 
ATOM      9  C   UNL     1       4.219   4.344  16.731  0.00  0.00    +0.000 A 
ATOM     10  C   UNL     1       5.324   4.967  17.337  0.00  0.00    +0.000 A 
ENDROOT
BRANCH   7  11
ATOM     11  O   UNL     1       2.706   2.632  19.582  0.00  0.00    +0.000 OA
ATOM     12  H   UNL     1       1.881   2.973  19.953  0.00  0.00    +0.000 HD
ENDBRANCH   7  11
BRANCH   8  13
ATOM     13  O   UNL     1       2.277   2.999  16.859  0.00  0.00    +0.000 OA
ATOM     14  H   UNL     1       1.807   2.235  17.223  0.00  0.00    +0.000 HD
ENDBRANCH   8  13
BRANCH   1  15
ATOM     15  C   UNL     1       7.074   4.863  15.474  0.00  0.00    +0.000 C 
BRANCH  15  17
ATOM     16  C   UNL     1       7.940   5.316  13.183  0.00  0.00    +0.000 C 
ATOM     17  N   UNL     1       6.768   5.024  14.025  0.00  0.00    +0.000 NA
ATOM     18  C   UNL     1       6.152   3.789  13.511  0.00  0.00    +0.000 C 
ENDBRANCH  15  17
ENDBRANCH   1  15
TORSDOF 4
ENDMDL
MODEL 8
REMARK VINA RESULT:      -6.2      1.598      2.155
REMARK  Name = 
REMARK  6 active torsions:
REMARK  status: ('A' for Active; 'I' for Inactive)
REMARK    1  A    between atoms: C_1  and  N_2
REMARK    2  A    between atoms: N_2  and  C_3
REMARK    3  A    between atoms: N_2  and  C_4
REMARK    4  A    between atoms: C_4  and  C_5
REMARK    5  A    between atoms: C_11  and  O_12
REMARK    6  A    between atoms: C_13  and  O_14
REMARK                            x       y       z     vdW  Elec       q    Type
REMARK                         _______ _______ _______ _____ _____    ______ ____
ROOT
ATOM      1  C   UNL     1       2.979   5.379  19.202  0.00  0.00    +0.000 C 
ATOM      2  C   UNL     1       1.870   5.182  18.141  0.00  0.00    +0.000 C 
ATOM      3  C   UNL     1       2.011   3.840  17.439  0.00  0.00    +0.000 C 
ATOM      4  C   UNL     1       3.350   3.763  16.685  0.00  0.00    +0.000 C 
ATOM      5  C   UNL     1       4.528   4.317  17.460  0.00  0.00    +0.000 A 
ATOM      6  C   UNL     1       5.825   4.042  17.006  0.00  0.00    +0.000 A 
ATOM      7  C   UNL     1       6.947   4.509  17.707  0.00  0.00    +0.000 A 
ATOM      8  C   UNL     1       6.775   5.284  18.861  0.00  0.00    +0.000 A 
ATOM      9  C   UNL     1       5.485   5.560  19.328  0.00  0.00    +0.000 A 
ATOM     10  C   UNL     1       4.355   5.079  18.646  0.00  0.00    +0.000 A 
ENDROOT
BRANCH   7  11
ATOM     11  O   UNL     1       8.193   4.209  17.279  0.00  0.00    +0.000 OA
ATOM     12  H   UNL     1       8.895   4.872  17.238  0.00  0.00    +0.000 HD
ENDBRANCH   7  11
BRANCH   8  13
ATOM     13  O   UNL     1       7.832   5.773  19.550  0.00  0.00    +0.000 OA
ATOM     14  H   UNL     1       8.569   5.216  19.838  0.00  0.00    +0.000 HD
ENDBRANCH   8  13
BRANCH   1  15
ATOM     15  C   UNL     1       2.721   4.651  20.566  0.00  0.00    +0.000 C 
BRANCH  15  17
ATOM     16  C   UNL     1       3.706   2.367  20.700  0.00  0.00    +0.000 C 
ATOM     17  N   UNL     1       2.492   3.180  20.516  0.00  0.00    +0.000 NA
ATOM     18  C   UNL     1       1.538   2.793  21.570  0.00  0.00    +0.000 C 
ENDBRANCH  15  17
ENDBRANCH   1  15
TORSDOF 4
ENDMDL
MODEL 9
REMARK VINA RESULT:      -6.1      3.433      5.156
REMARK  Name = 
REMARK  6 active torsions:
REMARK  status: ('A' for Active; 'I' for Inactive)
REMARK    1  A    between atoms: C_1  and  N_2
REMARK    2  A    between atoms: N_2  and  C_3
REMARK    3  A    between atoms: N_2  and  C_4
REMARK    4  A    between atoms: C_4  and  C_5
REMARK    5  A    between atoms: C_11  and  O_12
REMARK    6  A    between atoms: C_13  and  O_14
REMARK                            x       y       z     vdW  Elec       q    Type
REMARK                         _______ _______ _______ _____ _____    ______ ____
ROOT
ATOM      1  C   UNL     1       3.416   6.730  18.359  0.00  0.00    +0.000 C 
ATOM      2  C   UNL     1       4.793   6.843  17.662  0.00  0.00    +0.000 C 
ATOM      3  C   UNL     1       4.807   6.087  16.342  0.00  0.00    +0.000 C 
ATOM      4  C   UNL     1       4.563   4.586  16.578  0.00  0.00    +0.000 C 
ATOM      5  C   UNL     1       3.473   4.288  17.588  0.00  0.00    +0.000 A 
ATOM      6  C   UNL     1       2.968   2.983  17.669  0.00  0.00    +0.000 A 
ATOM      7  C   UNL     1       1.938   2.667  18.568  0.00  0.00    +0.000 A 
ATOM      8  C   UNL     1       1.425   3.656  19.417  0.00  0.00    +0.000 A 
ATOM      9  C   UNL     1       1.916   4.963  19.339  0.00  0.00    +0.000 A 
ATOM     10  C   UNL     1       2.932   5.296  18.428  0.00  0.00    +0.000 A 
ENDROOT
BRANCH   7  11
ATOM     11  O   UNL     1       1.435   1.414  18.615  0.00  0.00    +0.000 OA
ATOM     12  H   UNL     1       1.197   0.926  17.815  0.00  0.00    +0.000 HD
ENDBRANCH   7  11
BRANCH   8  13
ATOM     13  O   UNL     1       0.449   3.383  20.314  0.00  0.00    +0.000 OA
ATOM     14  H   UNL     1      -0.230   2.711  20.158  0.00  0.00    +0.000 HD
ENDBRANCH   8  13
BRANCH   1  15
ATOM     15  C   UNL     1       2.316   7.699  17.806  0.00  0.00    +0.000 C 
BRANCH  15  17
ATOM     16  C   UNL     1       0.881   9.712  18.111  0.00  0.00    +0.000 C 
ATOM     17  N   UNL     1       1.991   8.896  18.631  0.00  0.00    +0.000 NA
ATOM     18  C   UNL     1       1.626   8.472  19.994  0.00  0.00    +0.000 C 
ENDBRANCH  15  17
ENDBRANCH   1  15
TORSDOF 4
ENDMDL
