MODEL 1
REMARK VINA RESULT:      -6.8      0.000      0.000
REMARK  Name = 
REMARK  2 active torsions:
REMARK  status: ('A' for Active; 'I' for Inactive)
REMARK    1  A    between atoms: N_3  and  C_4
REMARK    2  A    between atoms: C_14  and  C_15
REMARK                            x       y       z     vdW  Elec       q    Type
REMARK                         _______ _______ _______ _____ _____    ______ ____
ROOT
ATOM      1  O   UNL     1       2.174  10.715  17.960  0.00  0.00    +0.000 OA
ATOM      2  C   UNL     1       2.223   9.543  18.342  0.00  0.00    +0.000 C 
ATOM      3  N   UNL     1       1.542   9.024  19.411  0.00  0.00    +0.000 N 
ATOM      4  N   UNL     1       3.052   8.701  17.659  0.00  0.00    +0.000 N 
ATOM      5  C   UNL     1       3.214   7.370  17.890  0.00  0.00    +0.000 A 
ATOM      6  N   UNL     1       2.614   6.638  18.793  0.00  0.00    +0.000 NA
ATOM      7  C   UNL     1       3.063   5.331  18.699  0.00  0.00    +0.000 A 
ATOM      8  C   UNL     1       4.020   5.117  17.723  0.00  0.00    +0.000 A 
ATOM      9  S   UNL     1       4.330   6.582  16.877  0.00  0.00    +0.000 S 
ATOM     10  H   UNL     1       1.797   8.073  19.666  0.00  0.00    +0.000 HD
ATOM     11  H   UNL     1       3.570   9.121  16.903  0.00  0.00    +0.000 HD
ENDROOT
BRANCH   3  12
ATOM     12  C   UNL     1       0.632   9.689  20.255  0.00  0.00    +0.000 A 
ATOM     13  C   UNL     1      -0.294  10.631  19.800  0.00  0.00    +0.000 A 
ATOM     14  C   UNL     1      -1.147  11.280  20.698  0.00  0.00    +0.000 A 
ATOM     15  C   UNL     1      -1.079  10.986  22.057  0.00  0.00    +0.000 A 
ATOM     16 CL   UNL     1      -2.100  11.815  23.166  0.00  0.00    +0.000 Cl
ATOM     17  C   UNL     1      -0.183  10.029  22.523  0.00  0.00    +0.000 A 
ATOM     18  C   UNL     1       0.667   9.380  21.621  0.00  0.00    +0.000 A 
ENDBRANCH   3  12
BRANCH   7  19
ATOM     19  C   UNL     1       2.543   4.265  19.618  0.00  0.00    +0.000 A 
ATOM     20  S   UNL     1       2.208   4.534  21.282  0.00  0.00    +0.000 S 
ATOM     21  C   UNL     1       1.615   2.946  21.494  0.00  0.00    +0.000 A 
ATOM     22  C   UNL     1       1.719   2.199  20.342  0.00  0.00    +0.000 A 
ATOM     23  C   UNL     1       2.264   2.959  19.273  0.00  0.00    +0.000 A 
ATOM     24 BR   UNL     1       2.617   2.093  17.627  0.00  0.00    +0.000 Br
ENDBRANCH   7  19
TORSDOF 2
ENDMDL
MODEL 2
REMARK VINA RESULT:      -6.7      1.549      1.610
REMARK  Name = 
REMARK  2 active torsions:
REMARK  status: ('A' for Active; 'I' for Inactive)
REMARK    1  A    between atoms: N_3  and  C_4
REMARK    2  A    between atoms: C_14  and  C_15
REMARK                            x       y       z     vdW  Elec       q    Type
REMARK                         _______ _______ _______ _____ _____    ______ ____
ROOT
ATOM      1  O   UNL     1       2.354   9.770  17.500  0.00  0.00    +0.000 OA
ATOM      2  C   UNL     1       2.557   8.655  17.987  0.00  0.00    +0.000 C 
ATOM      3  N   UNL     1       2.052   8.201  19.176  0.00  0.00    +0.000 N 
ATOM      4  N   UNL     1       3.381   7.815  17.294  0.00  0.00    +0.000 N 
ATOM      5  C   UNL     1       3.694   6.535  17.635  0.00  0.00    +0.000 A 
ATOM      6  N   UNL     1       3.271   5.859  18.672  0.00  0.00    +0.000 NA
ATOM      7  C   UNL     1       3.830   4.592  18.653  0.00  0.00    +0.000 A 
ATOM      8  C   UNL     1       4.687   4.353  17.595  0.00  0.00    +0.000 A 
ATOM      9  S   UNL     1       4.760   5.738  16.577  0.00  0.00    +0.000 S 
ATOM     10  H   UNL     1       2.423   7.308  19.491  0.00  0.00    +0.000 HD
ATOM     11  H   UNL     1       3.768   8.192  16.444  0.00  0.00    +0.000 HD
ENDROOT
BRANCH   3  12
ATOM     12  C   UNL     1       1.182   8.875  20.054  0.00  0.00    +0.000 A 
ATOM     13  C   UNL     1       0.273   9.852  19.639  0.00  0.00    +0.000 A 
ATOM     14  C   UNL     1      -0.539  10.508  20.570  0.00  0.00    +0.000 A 
ATOM     15  C   UNL     1      -0.446  10.187  21.922  0.00  0.00    +0.000 A 
ATOM     16 CL   UNL     1      -1.415  11.024  23.070  0.00  0.00    +0.000 Cl
ATOM     17  C   UNL     1       0.433   9.196  22.348  0.00  0.00    +0.000 A 
ATOM     18  C   UNL     1       1.242   8.540  21.414  0.00  0.00    +0.000 A 
ENDBRANCH   3  12
BRANCH   7  19
ATOM     19  C   UNL     1       3.520   3.593  19.729  0.00  0.00    +0.000 A 
ATOM     20  S   UNL     1       4.543   2.266  20.108  0.00  0.00    +0.000 S 
ATOM     21  C   UNL     1       3.544   1.772  21.403  0.00  0.00    +0.000 A 
ATOM     22  C   UNL     1       2.421   2.560  21.517  0.00  0.00    +0.000 A 
ATOM     23  C   UNL     1       2.408   3.595  20.545  0.00  0.00    +0.000 A 
ATOM     24 BR   UNL     1       0.890   4.722  20.434  0.00  0.00    +0.000 Br
ENDBRANCH   7  19
TORSDOF 2
ENDMDL
MODEL 3
REMARK VINA RESULT:      -6.7      2.892      4.577
REMARK  Name = 
REMARK  2 active torsions:
REMARK  status: ('A' for Active; 'I' for Inactive)
REMARK    1  A    between atoms: N_3  and  C_4
REMARK    2  A    between atoms: C_14  and  C_15
REMARK                            x       y       z     vdW  Elec       q    Type
REMARK                         _______ _______ _______ _____ _____    ______ ____
ROOT
ATOM      1  O   UNL     1       0.762   6.950  21.465  0.00  0.00    +0.000 OA
ATOM      2  C   UNL     1       1.612   6.557  20.662  0.00  0.00    +0.000 C 
ATOM      3  N   UNL     1       2.123   7.287  19.621  0.00  0.00    +0.000 N 
ATOM      4  N   UNL     1       2.057   5.274  20.805  0.00  0.00    +0.000 N 
ATOM      5  C   UNL     1       3.018   4.669  20.057  0.00  0.00    +0.000 A 
ATOM      6  N   UNL     1       3.705   5.185  19.070  0.00  0.00    +0.000 NA
ATOM      7  C   UNL     1       4.581   4.234  18.573  0.00  0.00    +0.000 A 
ATOM      8  C   UNL     1       4.513   3.002  19.198  0.00  0.00    +0.000 A 
ATOM      9  S   UNL     1       3.354   3.052  20.467  0.00  0.00    +0.000 S 
ATOM     10  H   UNL     1       2.717   6.767  18.980  0.00  0.00    +0.000 HD
ATOM     11  H   UNL     1       1.633   4.750  21.555  0.00  0.00    +0.000 HD
ENDROOT
BRANCH   3  12
ATOM     12  C   UNL     1       1.827   8.620  19.280  0.00  0.00    +0.000 A 
ATOM     13  C   UNL     1       2.230   9.216  18.082  0.00  0.00    +0.000 A 
ATOM     14  C   UNL     1       1.932  10.557  17.820  0.00  0.00    +0.000 A 
ATOM     15  C   UNL     1       1.225  11.307  18.756  0.00  0.00    +0.000 A 
ATOM     16 CL   UNL     1       0.895  12.968  18.450  0.00  0.00    +0.000 Cl
ATOM     17  C   UNL     1       0.791  10.721  19.940  0.00  0.00    +0.000 A 
ATOM     18  C   UNL     1       1.088   9.378  20.198  0.00  0.00    +0.000 A 
ENDBRANCH   3  12
BRANCH   7  19
ATOM     19  C   UNL     1       5.499   4.550  17.429  0.00  0.00    +0.000 A 
ATOM     20  S   UNL     1       5.168   4.108  15.802  0.00  0.00    +0.000 S 
ATOM     21  C   UNL     1       6.573   4.892  15.227  0.00  0.00    +0.000 A 
ATOM     22  C   UNL     1       7.317   5.433  16.251  0.00  0.00    +0.000 A 
ATOM     23  C   UNL     1       6.701   5.222  17.513  0.00  0.00    +0.000 A 
ATOM     24 BR   UNL     1       7.617   5.771  19.077  0.00  0.00    +0.000 Br
ENDBRANCH   7  19
TORSDOF 2
ENDMDL
MODEL 4
REMARK VINA RESULT:      -6.6      5.123      8.032
REMARK  Name = 
REMARK  2 active torsions:
REMARK  status: ('A' for Active; 'I' for Inactive)
REMARK    1  A    between atoms: N_3  and  C_4
REMARK    2  A    between atoms: C_14  and  C_15
REMARK                            x       y       z     vdW  Elec       q    Type
REMARK                         _______ _______ _______ _____ _____    ______ ____
ROOT
ATOM      1  O   UNL     1       1.840   9.460  22.566  0.00  0.00    +0.000 OA
ATOM      2  C   UNL     1       0.999   9.824  21.739  0.00  0.00    +0.000 C 
ATOM      3  N   UNL     1       0.811   9.276  20.499  0.00  0.00    +0.000 N 
ATOM      4  N   UNL     1       0.212  10.886  22.081  0.00  0.00    +0.000 N 
ATOM      5  C   UNL     1      -0.798  11.410  21.335  0.00  0.00    +0.000 A 
ATOM      6  N   UNL     1      -1.218  11.007  20.164  0.00  0.00    +0.000 NA
ATOM      7  C   UNL     1      -2.265  11.813  19.748  0.00  0.00    +0.000 A 
ATOM      8  C   UNL     1      -2.596  12.830  20.625  0.00  0.00    +0.000 A 
ATOM      9  S   UNL     1      -1.597  12.745  22.023  0.00  0.00    +0.000 S 
ATOM     10  H   UNL     1       0.165   9.780  19.897  0.00  0.00    +0.000 HD
ATOM     11  H   UNL     1       0.402  11.294  22.984  0.00  0.00    +0.000 HD
ENDROOT
BRANCH   3  12
ATOM     12  C   UNL     1       1.489   8.180  19.932  0.00  0.00    +0.000 A 
ATOM     13  C   UNL     1       1.567   6.924  20.539  0.00  0.00    +0.000 A 
ATOM     14  C   UNL     1       2.287   5.887  19.936  0.00  0.00    +0.000 A 
ATOM     15  C   UNL     1       2.930   6.103  18.720  0.00  0.00    +0.000 A 
ATOM     16 CL   UNL     1       3.849   4.839  18.001  0.00  0.00    +0.000 Cl
ATOM     17  C   UNL     1       2.837   7.339  18.089  0.00  0.00    +0.000 A 
ATOM     18  C   UNL     1       2.114   8.373  18.692  0.00  0.00    +0.000 A 
ENDBRANCH   3  12
BRANCH   7  19
ATOM     19  C   UNL     1      -2.946  11.580  18.431  0.00  0.00    +0.000 A 
ATOM     20  S   UNL     1      -2.096  11.233  16.978  0.00  0.00    +0.000 S 
ATOM     21  C   UNL     1      -3.545  11.034  16.094  0.00  0.00    +0.000 A 
ATOM     22  C   UNL     1      -4.658  11.281  16.866  0.00  0.00    +0.000 A 
ATOM     23  C   UNL     1      -4.305  11.606  18.203  0.00  0.00    +0.000 A 
ATOM     24 BR   UNL     1      -5.675  12.110  19.409  0.00  0.00    +0.000 Br
ENDBRANCH   7  19
TORSDOF 2
ENDMDL
MODEL 5
REMARK VINA RESULT:      -6.5      5.510      8.586
REMARK  Name = 
REMARK  2 active torsions:
REMARK  status: ('A' for Active; 'I' for Inactive)
REMARK    1  A    between atoms: N_3  and  C_4
REMARK    2  A    between atoms: C_14  and  C_15
REMARK                            x       y       z     vdW  Elec       q    Type
REMARK                         _______ _______ _______ _____ _____    ______ ____
ROOT
ATOM      1  O   UNL     1      -0.799   8.228  21.764  0.00  0.00    +0.000 OA
ATOM      2  C   UNL     1      -0.263   9.314  21.533  0.00  0.00    +0.000 C 
ATOM      3  N   UNL     1       0.819   9.511  20.716  0.00  0.00    +0.000 N 
ATOM      4  N   UNL     1      -0.774  10.408  22.171  0.00  0.00    +0.000 N 
ATOM      5  C   UNL     1      -0.358  11.694  22.018  0.00  0.00    +0.000 A 
ATOM      6  N   UNL     1       0.594  12.138  21.237  0.00  0.00    +0.000 NA
ATOM      7  C   UNL     1       0.702  13.512  21.380  0.00  0.00    +0.000 A 
ATOM      8  C   UNL     1      -0.172  14.069  22.295  0.00  0.00    +0.000 A 
ATOM      9  S   UNL     1      -1.184  12.846  22.958  0.00  0.00    +0.000 S 
ATOM     10  H   UNL     1       1.213  10.448  20.740  0.00  0.00    +0.000 HD
ATOM     11  H   UNL     1      -1.544  10.225  22.795  0.00  0.00    +0.000 HD
ENDROOT
BRANCH   3  12
ATOM     12  C   UNL     1       1.507   8.548  19.954  0.00  0.00    +0.000 A 
ATOM     13  C   UNL     1       1.906   7.307  20.458  0.00  0.00    +0.000 A 
ATOM     14  C   UNL     1       2.617   6.410  19.655  0.00  0.00    +0.000 A 
ATOM     15  C   UNL     1       2.930   6.750  18.341  0.00  0.00    +0.000 A 
ATOM     16 CL   UNL     1       3.841   5.662  17.368  0.00  0.00    +0.000 Cl
ATOM     17  C   UNL     1       2.515   7.969  17.815  0.00  0.00    +0.000 A 
ATOM     18  C   UNL     1       1.801   8.863  18.620  0.00  0.00    +0.000 A 
ENDBRANCH   3  12
BRANCH   7  19
ATOM     19  C   UNL     1       1.719  14.293  20.601  0.00  0.00    +0.000 A 
ATOM     20  S   UNL     1       3.404  14.249  20.937  0.00  0.00    +0.000 S 
ATOM     21  C   UNL     1       3.768  15.265  19.612  0.00  0.00    +0.000 A 
ATOM     22  C   UNL     1       2.633  15.681  18.955  0.00  0.00    +0.000 A 
ATOM     23  C   UNL     1       1.460  15.130  19.536  0.00  0.00    +0.000 A 
ATOM     24 BR   UNL     1      -0.228  15.673  18.871  0.00  0.00    +0.000 Br
ENDBRANCH   7  19
TORSDOF 2
ENDMDL
MODEL 6
REMARK VINA RESULT:      -6.5      5.159      8.012
REMARK  Name = 
REMARK  2 active torsions:
REMARK  status: ('A' for Active; 'I' for Inactive)
REMARK    1  A    between atoms: N_3  and  C_4
REMARK    2  A    between atoms: C_14  and  C_15
REMARK                            x       y       z     vdW  Elec       q    Type
REMARK                         _______ _______ _______ _____ _____    ______ ____
ROOT
ATOM      1  O   UNL     1       1.807   9.638  22.491  0.00  0.00    +0.000 OA
ATOM      2  C   UNL     1       0.954   9.979  21.668  0.00  0.00    +0.000 C 
ATOM      3  N   UNL     1       0.773   9.420  20.430  0.00  0.00    +0.000 N 
ATOM      4  N   UNL     1       0.144  11.024  22.008  0.00  0.00    +0.000 N 
ATOM      5  C   UNL     1      -0.882  11.521  21.265  0.00  0.00    +0.000 A 
ATOM      6  N   UNL     1      -1.298  11.102  20.098  0.00  0.00    +0.000 NA
ATOM      7  C   UNL     1      -2.365  11.881  19.683  0.00  0.00    +0.000 A 
ATOM      8  C   UNL     1      -2.715  12.895  20.557  0.00  0.00    +0.000 A 
ATOM      9  S   UNL     1      -1.709  12.840  21.950  0.00  0.00    +0.000 S 
ATOM     10  H   UNL     1       0.113   9.907  19.829  0.00  0.00    +0.000 HD
ATOM     11  H   UNL     1       0.328  11.439  22.908  0.00  0.00    +0.000 HD
ENDROOT
BRANCH   3  12
ATOM     12  C   UNL     1       1.474   8.338  19.865  0.00  0.00    +0.000 A 
ATOM     13  C   UNL     1       2.100   8.394  18.617  0.00  0.00    +0.000 A 
ATOM     14  C   UNL     1       2.751   7.270  18.098  0.00  0.00    +0.000 A 
ATOM     15  C   UNL     1       2.780   6.085  18.828  0.00  0.00    +0.000 A 
ATOM     16 CL   UNL     1       3.545   4.692  18.170  0.00  0.00    +0.000 Cl
ATOM     17  C   UNL     1       2.186   6.022  20.085  0.00  0.00    +0.000 A 
ATOM     18  C   UNL     1       1.539   7.149  20.602  0.00  0.00    +0.000 A 
ENDBRANCH   3  12
BRANCH   7  19
ATOM     19  C   UNL     1      -3.046  11.627  18.370  0.00  0.00    +0.000 A 
ATOM     20  S   UNL     1      -2.198  11.231  16.928  0.00  0.00    +0.000 S 
ATOM     21  C   UNL     1      -3.648  11.033  16.045  0.00  0.00    +0.000 A 
ATOM     22  C   UNL     1      -4.759  11.316  16.807  0.00  0.00    +0.000 A 
ATOM     23  C   UNL     1      -4.404  11.669  18.137  0.00  0.00    +0.000 A 
ATOM     24 BR   UNL     1      -5.769  12.224  19.326  0.00  0.00    +0.000 Br
ENDBRANCH   7  19
TORSDOF 2
ENDMDL
MODEL 7
REMARK VINA RESULT:      -6.5      0.214      1.047
REMARK  Name = 
REMARK  2 active torsions:
REMARK  status: ('A' for Active; 'I' for Inactive)
REMARK    1  A    between atoms: N_3  and  C_4
REMARK    2  A    between atoms: C_14  and  C_15
REMARK                            x       y       z     vdW  Elec       q    Type
REMARK                         _______ _______ _______ _____ _____    ______ ____
ROOT
ATOM      1  O   UNL     1       1.987  10.825  18.160  0.00  0.00    +0.000 OA
ATOM      2  C   UNL     1       2.067   9.646  18.511  0.00  0.00    +0.000 C 
ATOM      3  N   UNL     1       1.456   9.096  19.606  0.00  0.00    +0.000 N 
ATOM      4  N   UNL     1       2.858   8.826  17.758  0.00  0.00    +0.000 N 
ATOM      5  C   UNL     1       3.043   7.491  17.948  0.00  0.00    +0.000 A 
ATOM      6  N   UNL     1       2.504   6.734  18.868  0.00  0.00    +0.000 NA
ATOM      7  C   UNL     1       2.956   5.433  18.716  0.00  0.00    +0.000 A 
ATOM      8  C   UNL     1       3.853   5.250  17.679  0.00  0.00    +0.000 A 
ATOM      9  S   UNL     1       4.101   6.737  16.850  0.00  0.00    +0.000 S 
ATOM     10  H   UNL     1       1.732   8.142  19.822  0.00  0.00    +0.000 HD
ATOM     11  H   UNL     1       3.326   9.269  16.982  0.00  0.00    +0.000 HD
ENDROOT
BRANCH   3  12
ATOM     12  C   UNL     1       0.594   9.733  20.519  0.00  0.00    +0.000 A 
ATOM     13  C   UNL     1       0.515   9.391  21.872  0.00  0.00    +0.000 A 
ATOM     14  C   UNL     1      -0.389  10.042  22.717  0.00  0.00    +0.000 A 
ATOM     15  C   UNL     1      -1.217  11.041  22.213  0.00  0.00    +0.000 A 
ATOM     16 CL   UNL     1      -2.357  11.812  23.245  0.00  0.00    +0.000 Cl
ATOM     17  C   UNL     1      -1.130  11.414  20.875  0.00  0.00    +0.000 A 
ATOM     18  C   UNL     1      -0.223  10.763  20.033  0.00  0.00    +0.000 A 
ENDBRANCH   3  12
BRANCH   7  19
ATOM     19  C   UNL     1       2.500   4.342  19.639  0.00  0.00    +0.000 A 
ATOM     20  S   UNL     1       2.197   4.587  21.313  0.00  0.00    +0.000 S 
ATOM     21  C   UNL     1       1.670   2.976  21.527  0.00  0.00    +0.000 A 
ATOM     22  C   UNL     1       1.773   2.241  20.367  0.00  0.00    +0.000 A 
ATOM     23  C   UNL     1       2.262   3.029  19.291  0.00  0.00    +0.000 A 
ATOM     24 BR   UNL     1       2.606   2.188  17.630  0.00  0.00    +0.000 Br
ENDBRANCH   7  19
TORSDOF 2
ENDMDL
MODEL 8
REMARK VINA RESULT:      -6.5      2.886      4.610
REMARK  Name = 
REMARK  2 active torsions:
REMARK  status: ('A' for Active; 'I' for Inactive)
REMARK    1  A    between atoms: N_3  and  C_4
REMARK    2  A    between atoms: C_14  and  C_15
REMARK                            x       y       z     vdW  Elec       q    Type
REMARK                         _______ _______ _______ _____ _____    ______ ____
ROOT
ATOM      1  O   UNL     1       0.677   6.985  21.546  0.00  0.00    +0.000 OA
ATOM      2  C   UNL     1       1.529   6.613  20.735  0.00  0.00    +0.000 C 
ATOM      3  N   UNL     1       2.060   7.376  19.730  0.00  0.00    +0.000 N 
ATOM      4  N   UNL     1       1.955   5.319  20.832  0.00  0.00    +0.000 N 
ATOM      5  C   UNL     1       2.915   4.730  20.069  0.00  0.00    +0.000 A 
ATOM      6  N   UNL     1       3.618   5.275  19.110  0.00  0.00    +0.000 NA
ATOM      7  C   UNL     1       4.485   4.332  18.583  0.00  0.00    +0.000 A 
ATOM      8  C   UNL     1       4.395   3.077  19.158  0.00  0.00    +0.000 A 
ATOM      9  S   UNL     1       3.223   3.094  20.417  0.00  0.00    +0.000 S 
ATOM     10  H   UNL     1       2.653   6.874  19.074  0.00  0.00    +0.000 HD
ATOM     11  H   UNL     1       1.516   4.771  21.556  0.00  0.00    +0.000 HD
ENDROOT
BRANCH   3  12
ATOM     12  C   UNL     1       1.786   8.726  19.439  0.00  0.00    +0.000 A 
ATOM     13  C   UNL     1       1.122   9.584  20.319  0.00  0.00    +0.000 A 
ATOM     14  C   UNL     1       0.852  10.906  19.952  0.00  0.00    +0.000 A 
ATOM     15  C   UNL     1       1.247  11.376  18.703  0.00  0.00    +0.000 A 
ATOM     16 CL   UNL     1       0.876  12.990  18.238  0.00  0.00    +0.000 Cl
ATOM     17  C   UNL     1       1.935  10.543  17.827  0.00  0.00    +0.000 A 
ATOM     18  C   UNL     1       2.207   9.222  18.197  0.00  0.00    +0.000 A 
ENDBRANCH   3  12
BRANCH   7  19
ATOM     19  C   UNL     1       5.419   4.680  17.461  0.00  0.00    +0.000 A 
ATOM     20  S   UNL     1       5.084   4.336  15.812  0.00  0.00    +0.000 S 
ATOM     21  C   UNL     1       6.515   5.105  15.284  0.00  0.00    +0.000 A 
ATOM     22  C   UNL     1       7.270   5.568  16.338  0.00  0.00    +0.000 A 
ATOM     23  C   UNL     1       6.640   5.309  17.585  0.00  0.00    +0.000 A 
ATOM     24 BR   UNL     1       7.564   5.746  19.180  0.00  0.00    +0.000 Br
ENDBRANCH   7  19
TORSDOF 2
ENDMDL
MODEL 9
REMARK VINA RESULT:      -6.4      5.502      8.526
REMARK  Name = 
REMARK  2 active torsions:
REMARK  status: ('A' for Active; 'I' for Inactive)
REMARK    1  A    between atoms: N_3  and  C_4
REMARK    2  A    between atoms: C_14  and  C_15
REMARK                            x       y       z     vdW  Elec       q    Type
REMARK                         _______ _______ _______ _____ _____    ______ ____
ROOT
ATOM      1  O   UNL     1      -0.753   8.202  21.687  0.00  0.00    +0.000 OA
ATOM      2  C   UNL     1      -0.225   9.294  21.465  0.00  0.00    +0.000 C 
ATOM      3  N   UNL     1       0.851   9.507  20.644  0.00  0.00    +0.000 N 
ATOM      4  N   UNL     1      -0.737  10.377  22.119  0.00  0.00    +0.000 N 
ATOM      5  C   UNL     1      -0.330  11.668  21.979  0.00  0.00    +0.000 A 
ATOM      6  N   UNL     1       0.614  12.126  21.198  0.00  0.00    +0.000 NA
ATOM      7  C   UNL     1       0.716  13.498  21.357  0.00  0.00    +0.000 A 
ATOM      8  C   UNL     1      -0.156  14.040  22.284  0.00  0.00    +0.000 A 
ATOM      9  S   UNL     1      -1.156  12.803  22.939  0.00  0.00    +0.000 S 
ATOM     10  H   UNL     1       1.240  10.446  20.676  0.00  0.00    +0.000 HD
ATOM     11  H   UNL     1      -1.502  10.182  22.747  0.00  0.00    +0.000 HD
ENDROOT
BRANCH   3  12
ATOM     12  C   UNL     1       1.539   8.557  19.865  0.00  0.00    +0.000 A 
ATOM     13  C   UNL     1       1.875   8.758  18.524  0.00  0.00    +0.000 A 
ATOM     14  C   UNL     1       2.530   7.758  17.798  0.00  0.00    +0.000 A 
ATOM     15  C   UNL     1       2.853   6.551  18.413  0.00  0.00    +0.000 A 
ATOM     16 CL   UNL     1       3.620   5.307  17.507  0.00  0.00    +0.000 Cl
ATOM     17  C   UNL     1       2.551   6.346  19.755  0.00  0.00    +0.000 A 
ATOM     18  C   UNL     1       1.899   7.350  20.480  0.00  0.00    +0.000 A 
ENDBRANCH   3  12
BRANCH   7  19
ATOM     19  C   UNL     1       1.723  14.295  20.580  0.00  0.00    +0.000 A 
ATOM     20  S   UNL     1       3.409  14.264  20.911  0.00  0.00    +0.000 S 
ATOM     21  C   UNL     1       3.759  15.293  19.592  0.00  0.00    +0.000 A 
ATOM     22  C   UNL     1       2.618  15.704  18.942  0.00  0.00    +0.000 A 
ATOM     23  C   UNL     1       1.452  15.138  19.523  0.00  0.00    +0.000 A 
ATOM     24 BR   UNL     1      -0.243  15.670  18.867  0.00  0.00    +0.000 Br
ENDBRANCH   7  19
TORSDOF 2
ENDMDL
