MODEL 1
REMARK VINA RESULT:      -9.3      0.000      0.000
REMARK  Name = 
REMARK  3 active torsions:
REMARK  status: ('A' for Active; 'I' for Inactive)
REMARK    1  A    between atoms: C_4  and  N_5
REMARK    2  A    between atoms: N_5  and  C_6
REMARK    3  A    between atoms: C_12  and  C_13
REMARK                            x       y       z     vdW  Elec       q    Type
REMARK                         _______ _______ _______ _____ _____    ______ ____
ROOT
ATOM      1  C   UNL     1       4.123   3.367  19.800  0.00  0.00    +0.000 A 
ATOM      2  N   UNL     1       3.791   2.320  20.603  0.00  0.00    +0.000 NA
ATOM      3  C   UNL     1       2.754   2.395  21.470  0.00  0.00    +0.000 A 
ATOM      4  C   UNL     1       1.943   3.499  21.624  0.00  0.00    +0.000 A 
ATOM      5  C   UNL     1       2.260   4.583  20.814  0.00  0.00    +0.000 A 
ATOM      6  N   UNL     1       1.642   5.803  20.724  0.00  0.00    +0.000 NA
ATOM      7  C   UNL     1       2.316   6.506  19.834  0.00  0.00    +0.000 A 
ATOM      8  N   UNL     1       3.362   5.747  19.353  0.00  0.00    +0.000 N 
ATOM      9  C   UNL     1       3.332   4.509  19.938  0.00  0.00    +0.000 A 
ATOM     10  H   UNL     1       4.013   6.052  18.644  0.00  0.00    +0.000 HD
ENDROOT
BRANCH   7  11
ATOM     11  C   UNL     1       2.013   7.882  19.403  0.00  0.00    +0.000 A 
ATOM     12  C   UNL     1       1.235   8.741  20.215  0.00  0.00    +0.000 A 
ATOM     13 CL   UNL     1       0.686   8.318  21.806  0.00  0.00    +0.000 Cl
ATOM     14  C   UNL     1       0.891  10.032  19.788  0.00  0.00    +0.000 A 
ATOM     15  C   UNL     1       1.321  10.506  18.555  0.00  0.00    +0.000 A 
ATOM     16  C   UNL     1       2.104   9.692  17.746  0.00  0.00    +0.000 A 
ATOM     17  C   UNL     1       2.446   8.396  18.159  0.00  0.00    +0.000 A 
ATOM     18 CL   UNL     1       3.409   7.489  17.035  0.00  0.00    +0.000 Cl
ENDBRANCH   7  11
BRANCH   1  19
ATOM     19  N   UNL     1       5.197   3.305  18.916  0.00  0.00    +0.000 N 
ATOM     20  H   UNL     1       5.347   2.440  18.424  0.00  0.00    +0.000 HD
BRANCH  19  24
ATOM     21  N   UNL     1       7.259   5.663  15.227  0.00  0.00    +0.000 N 
ATOM     22  C   UNL     1       7.038   5.460  16.590  0.00  0.00    +0.000 A 
ATOM     23  C   UNL     1       6.168   4.478  17.005  0.00  0.00    +0.000 A 
ATOM     24  C   UNL     1       5.985   4.313  18.361  0.00  0.00    +0.000 A 
ATOM     25  N   UNL     1       6.592   5.122  19.247  0.00  0.00    +0.000 NA
ATOM     26  C   UNL     1       7.398   6.067  18.737  0.00  0.00    +0.000 A 
ATOM     27  N   UNL     1       7.663   6.275  17.441  0.00  0.00    +0.000 NA
ATOM     28  H   UNL     1       7.489   4.798  14.751  0.00  0.00    +0.000 HD
ATOM     29  H   UNL     1       7.983   6.369  15.128  0.00  0.00    +0.000 HD
ENDBRANCH  19  24
ENDBRANCH   1  19
TORSDOF 3
ENDMDL
MODEL 2
REMARK VINA RESULT:      -9.2      0.742      1.240
REMARK  Name = 
REMARK  3 active torsions:
REMARK  status: ('A' for Active; 'I' for Inactive)
REMARK    1  A    between atoms: C_4  and  N_5
REMARK    2  A    between atoms: N_5  and  C_6
REMARK    3  A    between atoms: C_12  and  C_13
REMARK                            x       y       z     vdW  Elec       q    Type
REMARK                         _______ _______ _______ _____ _____    ______ ____
ROOT
ATOM      1  C   UNL     1       4.233   3.531  19.801  0.00  0.00    +0.000 A 
ATOM      2  N   UNL     1       3.897   2.433  20.531  0.00  0.00    +0.000 NA
ATOM      3  C   UNL     1       2.802   2.423  21.328  0.00  0.00    +0.000 A 
ATOM      4  C   UNL     1       1.934   3.483  21.475  0.00  0.00    +0.000 A 
ATOM      5  C   UNL     1       2.254   4.617  20.738  0.00  0.00    +0.000 A 
ATOM      6  N   UNL     1       1.589   5.812  20.662  0.00  0.00    +0.000 NA
ATOM      7  C   UNL     1       2.287   6.585  19.852  0.00  0.00    +0.000 A 
ATOM      8  N   UNL     1       3.396   5.895  19.410  0.00  0.00    +0.000 N 
ATOM      9  C   UNL     1       3.384   4.630  19.936  0.00  0.00    +0.000 A 
ATOM     10  H   UNL     1       4.078   6.261  18.761  0.00  0.00    +0.000 HD
ENDROOT
BRANCH   7  11
ATOM     11  C   UNL     1       1.951   7.967  19.464  0.00  0.00    +0.000 A 
ATOM     12  C   UNL     1       1.196   8.798  20.324  0.00  0.00    +0.000 A 
ATOM     13 CL   UNL     1       0.714   8.333  21.926  0.00  0.00    +0.000 Cl
ATOM     14  C   UNL     1       0.820  10.093  19.940  0.00  0.00    +0.000 A 
ATOM     15  C   UNL     1       1.196  10.600  18.702  0.00  0.00    +0.000 A 
ATOM     16  C   UNL     1       1.956   9.812  17.845  0.00  0.00    +0.000 A 
ATOM     17  C   UNL     1       2.329   8.512  18.215  0.00  0.00    +0.000 A 
ATOM     18 CL   UNL     1       3.258   7.643  17.035  0.00  0.00    +0.000 Cl
ENDBRANCH   7  11
BRANCH   1  19
ATOM     19  N   UNL     1       5.365   3.557  18.990  0.00  0.00    +0.000 N 
ATOM     20  H   UNL     1       5.987   2.766  19.031  0.00  0.00    +0.000 HD
BRANCH  19  24
ATOM     21  N   UNL     1       7.751   7.185  16.853  0.00  0.00    +0.000 N 
ATOM     22  C   UNL     1       6.809   6.154  16.843  0.00  0.00    +0.000 A 
ATOM     23  C   UNL     1       6.638   5.371  17.961  0.00  0.00    +0.000 A 
ATOM     24  C   UNL     1       5.694   4.367  17.905  0.00  0.00    +0.000 A 
ATOM     25  N   UNL     1       5.004   4.126  16.776  0.00  0.00    +0.000 NA
ATOM     26  C   UNL     1       5.268   4.930  15.733  0.00  0.00    +0.000 A 
ATOM     27  N   UNL     1       6.137   5.948  15.710  0.00  0.00    +0.000 NA
ATOM     28  H   UNL     1       7.641   7.786  17.662  0.00  0.00    +0.000 HD
ATOM     29  H   UNL     1       7.672   7.690  15.976  0.00  0.00    +0.000 HD
ENDBRANCH  19  24
ENDBRANCH   1  19
TORSDOF 3
ENDMDL
MODEL 3
REMARK VINA RESULT:      -9.1      0.275      1.862
REMARK  Name = 
REMARK  3 active torsions:
REMARK  status: ('A' for Active; 'I' for Inactive)
REMARK    1  A    between atoms: C_4  and  N_5
REMARK    2  A    between atoms: N_5  and  C_6
REMARK    3  A    between atoms: C_12  and  C_13
REMARK                            x       y       z     vdW  Elec       q    Type
REMARK                         _______ _______ _______ _____ _____    ______ ____
ROOT
ATOM      1  C   UNL     1       4.258   3.424  19.826  0.00  0.00    +0.000 A 
ATOM      2  N   UNL     1       3.941   2.367  20.622  0.00  0.00    +0.000 NA
ATOM      3  C   UNL     1       2.877   2.408  21.458  0.00  0.00    +0.000 A 
ATOM      4  C   UNL     1       2.024   3.483  21.586  0.00  0.00    +0.000 A 
ATOM      5  C   UNL     1       2.326   4.576  20.782  0.00  0.00    +0.000 A 
ATOM      6  N   UNL     1       1.668   5.773  20.671  0.00  0.00    +0.000 NA
ATOM      7  C   UNL     1       2.342   6.498  19.799  0.00  0.00    +0.000 A 
ATOM      8  N   UNL     1       3.427   5.775  19.350  0.00  0.00    +0.000 N 
ATOM      9  C   UNL     1       3.424   4.538  19.938  0.00  0.00    +0.000 A 
ATOM     10  H   UNL     1       4.087   6.101  18.659  0.00  0.00    +0.000 HD
ENDROOT
BRANCH   7  11
ATOM     11  C   UNL     1       2.002   7.862  19.355  0.00  0.00    +0.000 A 
ATOM     12  C   UNL     1       2.498   8.371  18.133  0.00  0.00    +0.000 A 
ATOM     13 CL   UNL     1       3.422   7.427  17.006  0.00  0.00    +0.000 Cl
ATOM     14  C   UNL     1       2.230   9.687  17.730  0.00  0.00    +0.000 A 
ATOM     15  C   UNL     1       1.453  10.523  18.521  0.00  0.00    +0.000 A 
ATOM     16  C   UNL     1       0.935  10.042  19.718  0.00  0.00    +0.000 A 
ATOM     17  C   UNL     1       1.205   8.731  20.135  0.00  0.00    +0.000 A 
ATOM     18 CL   UNL     1       0.508   8.279  21.660  0.00  0.00    +0.000 Cl
ENDBRANCH   7  11
BRANCH   1  19
ATOM     19  N   UNL     1       5.359   3.399  18.973  0.00  0.00    +0.000 N 
ATOM     20  H   UNL     1       5.674   2.501  18.644  0.00  0.00    +0.000 HD
BRANCH  19  24
ATOM     21  N   UNL     1       6.567   5.709  14.895  0.00  0.00    +0.000 N 
ATOM     22  C   UNL     1       6.622   5.543  16.280  0.00  0.00    +0.000 A 
ATOM     23  C   UNL     1       5.892   4.543  16.880  0.00  0.00    +0.000 A 
ATOM     24  C   UNL     1       5.980   4.417  18.250  0.00  0.00    +0.000 A 
ATOM     25  N   UNL     1       6.711   5.277  18.981  0.00  0.00    +0.000 NA
ATOM     26  C   UNL     1       7.362   6.234  18.300  0.00  0.00    +0.000 A 
ATOM     27  N   UNL     1       7.363   6.409  16.973  0.00  0.00    +0.000 NA
ATOM     28  H   UNL     1       6.738   4.838  14.406  0.00  0.00    +0.000 HD
ATOM     29  H   UNL     1       7.226   6.437  14.640  0.00  0.00    +0.000 HD
ENDBRANCH  19  24
ENDBRANCH   1  19
TORSDOF 3
ENDMDL
MODEL 4
REMARK VINA RESULT:      -9.1      0.742      2.220
REMARK  Name = 
REMARK  3 active torsions:
REMARK  status: ('A' for Active; 'I' for Inactive)
REMARK    1  A    between atoms: C_4  and  N_5
REMARK    2  A    between atoms: N_5  and  C_6
REMARK    3  A    between atoms: C_12  and  C_13
REMARK                            x       y       z     vdW  Elec       q    Type
REMARK                         _______ _______ _______ _____ _____    ______ ____
ROOT
ATOM      1  C   UNL     1       4.224   3.578  19.836  0.00  0.00    +0.000 A 
ATOM      2  N   UNL     1       3.888   2.472  20.554  0.00  0.00    +0.000 NA
ATOM      3  C   UNL     1       2.776   2.442  21.325  0.00  0.00    +0.000 A 
ATOM      4  C   UNL     1       1.887   3.488  21.457  0.00  0.00    +0.000 A 
ATOM      5  C   UNL     1       2.207   4.630  20.732  0.00  0.00    +0.000 A 
ATOM      6  N   UNL     1       1.525   5.815  20.645  0.00  0.00    +0.000 NA
ATOM      7  C   UNL     1       2.230   6.602  19.854  0.00  0.00    +0.000 A 
ATOM      8  N   UNL     1       3.360   5.931  19.435  0.00  0.00    +0.000 N 
ATOM      9  C   UNL     1       3.354   4.664  19.955  0.00  0.00    +0.000 A 
ATOM     10  H   UNL     1       4.051   6.309  18.803  0.00  0.00    +0.000 HD
ENDROOT
BRANCH   7  11
ATOM     11  C   UNL     1       1.881   7.980  19.464  0.00  0.00    +0.000 A 
ATOM     12  C   UNL     1       2.322   8.517  18.232  0.00  0.00    +0.000 A 
ATOM     13 CL   UNL     1       3.181   7.596  17.037  0.00  0.00    +0.000 Cl
ATOM     14  C   UNL     1       2.045   9.846  17.877  0.00  0.00    +0.000 A 
ATOM     15  C   UNL     1       1.315  10.666  18.727  0.00  0.00    +0.000 A 
ATOM     16  C   UNL     1       0.851  10.158  19.935  0.00  0.00    +0.000 A 
ATOM     17  C   UNL     1       1.131   8.834  20.304  0.00  0.00    +0.000 A 
ATOM     18 CL   UNL     1       0.505   8.347  21.849  0.00  0.00    +0.000 Cl
ENDBRANCH   7  11
BRANCH   1  19
ATOM     19  N   UNL     1       5.373   3.625  19.052  0.00  0.00    +0.000 N 
ATOM     20  H   UNL     1       6.025   2.862  19.133  0.00  0.00    +0.000 HD
BRANCH  19  24
ATOM     21  N   UNL     1       7.739   7.215  16.830  0.00  0.00    +0.000 N 
ATOM     22  C   UNL     1       6.802   6.182  16.846  0.00  0.00    +0.000 A 
ATOM     23  C   UNL     1       6.637   5.421  17.981  0.00  0.00    +0.000 A 
ATOM     24  C   UNL     1       5.697   4.413  17.948  0.00  0.00    +0.000 A 
ATOM     25  N   UNL     1       5.004   4.146  16.827  0.00  0.00    +0.000 NA
ATOM     26  C   UNL     1       5.261   4.929  15.766  0.00  0.00    +0.000 A 
ATOM     27  N   UNL     1       6.126   5.949  15.719  0.00  0.00    +0.000 NA
ATOM     28  H   UNL     1       7.630   7.833  17.626  0.00  0.00    +0.000 HD
ATOM     29  H   UNL     1       7.656   7.702  15.943  0.00  0.00    +0.000 HD
ENDBRANCH  19  24
ENDBRANCH   1  19
TORSDOF 3
ENDMDL
MODEL 5
REMARK VINA RESULT:      -8.8      3.017      5.579
REMARK  Name = 
REMARK  3 active torsions:
REMARK  status: ('A' for Active; 'I' for Inactive)
REMARK    1  A    between atoms: C_4  and  N_5
REMARK    2  A    between atoms: N_5  and  C_6
REMARK    3  A    between atoms: C_12  and  C_13
REMARK                            x       y       z     vdW  Elec       q    Type
REMARK                         _______ _______ _______ _____ _____    ______ ____
ROOT
ATOM      1  C   UNL     1       6.387   5.929  16.431  0.00  0.00    +0.000 A 
ATOM      2  N   UNL     1       7.597   6.441  16.784  0.00  0.00    +0.000 NA
ATOM      3  C   UNL     1       8.012   6.445  18.072  0.00  0.00    +0.000 A 
ATOM      4  C   UNL     1       7.285   5.942  19.130  0.00  0.00    +0.000 A 
ATOM      5  C   UNL     1       6.045   5.412  18.795  0.00  0.00    +0.000 A 
ATOM      6  N   UNL     1       5.107   4.833  19.609  0.00  0.00    +0.000 NA
ATOM      7  C   UNL     1       4.087   4.503  18.839  0.00  0.00    +0.000 A 
ATOM      8  N   UNL     1       4.363   4.868  17.538  0.00  0.00    +0.000 N 
ATOM      9  C   UNL     1       5.615   5.422  17.478  0.00  0.00    +0.000 A 
ATOM     10  H   UNL     1       3.750   4.704  16.753  0.00  0.00    +0.000 HD
ENDROOT
BRANCH   7  11
ATOM     11  C   UNL     1       2.845   3.844  19.278  0.00  0.00    +0.000 A 
ATOM     12  C   UNL     1       2.595   2.487  18.968  0.00  0.00    +0.000 A 
ATOM     13 CL   UNL     1       3.748   1.458  18.177  0.00  0.00    +0.000 Cl
ATOM     14  C   UNL     1       1.391   1.867  19.329  0.00  0.00    +0.000 A 
ATOM     15  C   UNL     1       0.412   2.572  20.018  0.00  0.00    +0.000 A 
ATOM     16  C   UNL     1       0.639   3.902  20.354  0.00  0.00    +0.000 A 
ATOM     17  C   UNL     1       1.835   4.534  19.989  0.00  0.00    +0.000 A 
ATOM     18 CL   UNL     1       1.967   6.201  20.458  0.00  0.00    +0.000 Cl
ENDBRANCH   7  11
BRANCH   1  19
ATOM     19  N   UNL     1       5.943   5.933  15.110  0.00  0.00    +0.000 N 
ATOM     20  H   UNL     1       5.384   6.713  14.808  0.00  0.00    +0.000 HD
BRANCH  19  24
ATOM     21  N   UNL     1       5.545   2.231  12.018  0.00  0.00    +0.000 N 
ATOM     22  C   UNL     1       6.200   3.360  12.510  0.00  0.00    +0.000 A 
ATOM     23  C   UNL     1       5.655   4.069  13.556  0.00  0.00    +0.000 A 
ATOM     24  C   UNL     1       6.342   5.176  14.009  0.00  0.00    +0.000 A 
ATOM     25  N   UNL     1       7.477   5.581  13.413  0.00  0.00    +0.000 NA
ATOM     26  C   UNL     1       7.908   4.835  12.383  0.00  0.00    +0.000 A 
ATOM     27  N   UNL     1       7.329   3.730  11.901  0.00  0.00    +0.000 NA
ATOM     28  H   UNL     1       5.300   1.586  12.760  0.00  0.00    +0.000 HD
ATOM     29  H   UNL     1       6.137   1.807  11.310  0.00  0.00    +0.000 HD
ENDBRANCH  19  24
ENDBRANCH   1  19
TORSDOF 3
ENDMDL
MODEL 6
REMARK VINA RESULT:      -8.8      2.986      5.378
REMARK  Name = 
REMARK  3 active torsions:
REMARK  status: ('A' for Active; 'I' for Inactive)
REMARK    1  A    between atoms: C_4  and  N_5
REMARK    2  A    between atoms: N_5  and  C_6
REMARK    3  A    between atoms: C_12  and  C_13
REMARK                            x       y       z     vdW  Elec       q    Type
REMARK                         _______ _______ _______ _____ _____    ______ ____
ROOT
ATOM      1  C   UNL     1       6.391   5.965  16.397  0.00  0.00    +0.000 A 
ATOM      2  N   UNL     1       7.600   6.477  16.755  0.00  0.00    +0.000 NA
ATOM      3  C   UNL     1       8.008   6.486  18.046  0.00  0.00    +0.000 A 
ATOM      4  C   UNL     1       7.274   5.988  19.101  0.00  0.00    +0.000 A 
ATOM      5  C   UNL     1       6.035   5.458  18.762  0.00  0.00    +0.000 A 
ATOM      6  N   UNL     1       5.092   4.883  19.572  0.00  0.00    +0.000 NA
ATOM      7  C   UNL     1       4.076   4.552  18.798  0.00  0.00    +0.000 A 
ATOM      8  N   UNL     1       4.360   4.911  17.497  0.00  0.00    +0.000 N 
ATOM      9  C   UNL     1       5.613   5.464  17.442  0.00  0.00    +0.000 A 
ATOM     10  H   UNL     1       3.751   4.744  16.709  0.00  0.00    +0.000 HD
ENDROOT
BRANCH   7  11
ATOM     11  C   UNL     1       2.830   3.896  19.232  0.00  0.00    +0.000 A 
ATOM     12  C   UNL     1       1.860   4.604  19.980  0.00  0.00    +0.000 A 
ATOM     13 CL   UNL     1       1.978   6.298  20.340  0.00  0.00    +0.000 Cl
ATOM     14  C   UNL     1       0.699   3.973  20.448  0.00  0.00    +0.000 A 
ATOM     15  C   UNL     1       0.464   2.632  20.174  0.00  0.00    +0.000 A 
ATOM     16  C   UNL     1       1.390   1.917  19.423  0.00  0.00    +0.000 A 
ATOM     17  C   UNL     1       2.559   2.535  18.959  0.00  0.00    +0.000 A 
ATOM     18 CL   UNL     1       3.630   1.511  18.053  0.00  0.00    +0.000 Cl
ENDBRANCH   7  11
BRANCH   1  19
ATOM     19  N   UNL     1       5.955   5.964  15.075  0.00  0.00    +0.000 N 
ATOM     20  H   UNL     1       5.406   6.749  14.763  0.00  0.00    +0.000 HD
BRANCH  19  24
ATOM     21  N   UNL     1       5.536   2.246  12.005  0.00  0.00    +0.000 N 
ATOM     22  C   UNL     1       6.201   3.371  12.494  0.00  0.00    +0.000 A 
ATOM     23  C   UNL     1       5.657   4.094  13.531  0.00  0.00    +0.000 A 
ATOM     24  C   UNL     1       6.352   5.196  13.981  0.00  0.00    +0.000 A 
ATOM     25  N   UNL     1       7.495   5.585  13.389  0.00  0.00    +0.000 NA
ATOM     26  C   UNL     1       7.924   4.828  12.366  0.00  0.00    +0.000 A 
ATOM     27  N   UNL     1       7.336   3.725  11.888  0.00  0.00    +0.000 NA
ATOM     28  H   UNL     1       5.280   1.609  12.751  0.00  0.00    +0.000 HD
ATOM     29  H   UNL     1       6.127   1.811  11.304  0.00  0.00    +0.000 HD
ENDBRANCH  19  24
ENDBRANCH   1  19
TORSDOF 3
ENDMDL
MODEL 7
REMARK VINA RESULT:      -8.5      1.368      1.679
REMARK  Name = 
REMARK  3 active torsions:
REMARK  status: ('A' for Active; 'I' for Inactive)
REMARK    1  A    between atoms: C_4  and  N_5
REMARK    2  A    between atoms: N_5  and  C_6
REMARK    3  A    between atoms: C_12  and  C_13
REMARK                            x       y       z     vdW  Elec       q    Type
REMARK                         _______ _______ _______ _____ _____    ______ ____
ROOT
ATOM      1  C   UNL     1       3.920   4.337  19.624  0.00  0.00    +0.000 A 
ATOM      2  N   UNL     1       3.605   3.104  20.108  0.00  0.00    +0.000 NA
ATOM      3  C   UNL     1       2.487   2.900  20.843  0.00  0.00    +0.000 A 
ATOM      4  C   UNL     1       1.573   3.880  21.165  0.00  0.00    +0.000 A 
ATOM      5  C   UNL     1       1.871   5.148  20.681  0.00  0.00    +0.000 A 
ATOM      6  N   UNL     1       1.161   6.312  20.817  0.00  0.00    +0.000 NA
ATOM      7  C   UNL     1       1.853   7.254  20.205  0.00  0.00    +0.000 A 
ATOM      8  N   UNL     1       3.002   6.703  19.678  0.00  0.00    +0.000 N 
ATOM      9  C   UNL     1       3.023   5.358  19.941  0.00  0.00    +0.000 A 
ATOM     10  H   UNL     1       3.689   7.213  19.141  0.00  0.00    +0.000 HD
ENDROOT
BRANCH   7  11
ATOM     11  C   UNL     1       1.474   8.673  20.086  0.00  0.00    +0.000 A 
ATOM     12  C   UNL     1       1.117   9.426  21.229  0.00  0.00    +0.000 A 
ATOM     13 CL   UNL     1       1.210   8.810  22.849  0.00  0.00    +0.000 Cl
ATOM     14  C   UNL     1       0.698  10.760  21.120  0.00  0.00    +0.000 A 
ATOM     15  C   UNL     1       0.638  11.382  19.879  0.00  0.00    +0.000 A 
ATOM     16  C   UNL     1       1.003  10.672  18.742  0.00  0.00    +0.000 A 
ATOM     17  C   UNL     1       1.414   9.335  18.838  0.00  0.00    +0.000 A 
ATOM     18 CL   UNL     1       1.818   8.573  17.331  0.00  0.00    +0.000 Cl
ENDBRANCH   7  11
BRANCH   1  19
ATOM     19  N   UNL     1       5.075   4.561  18.879  0.00  0.00    +0.000 N 
ATOM     20  H   UNL     1       5.950   4.251  19.269  0.00  0.00    +0.000 HD
BRANCH  19  24
ATOM     21  N   UNL     1       6.310   3.665  14.286  0.00  0.00    +0.000 N 
ATOM     22  C   UNL     1       5.879   4.520  15.301  0.00  0.00    +0.000 A 
ATOM     23  C   UNL     1       5.669   4.028  16.569  0.00  0.00    +0.000 A 
ATOM     24  C   UNL     1       5.246   4.911  17.540  0.00  0.00    +0.000 A 
ATOM     25  N   UNL     1       4.994   6.198  17.245  0.00  0.00    +0.000 NA
ATOM     26  C   UNL     1       5.204   6.570  15.971  0.00  0.00    +0.000 A 
ATOM     27  N   UNL     1       5.647   5.793  14.976  0.00  0.00    +0.000 NA
ATOM     28  H   UNL     1       7.120   3.126  14.567  0.00  0.00    +0.000 HD
ATOM     29  H   UNL     1       6.481   4.225  13.456  0.00  0.00    +0.000 HD
ENDBRANCH  19  24
ENDBRANCH   1  19
TORSDOF 3
ENDMDL
MODEL 8
REMARK VINA RESULT:      -8.4      1.267      1.403
REMARK  Name = 
REMARK  3 active torsions:
REMARK  status: ('A' for Active; 'I' for Inactive)
REMARK    1  A    between atoms: C_4  and  N_5
REMARK    2  A    between atoms: N_5  and  C_6
REMARK    3  A    between atoms: C_12  and  C_13
REMARK                            x       y       z     vdW  Elec       q    Type
REMARK                         _______ _______ _______ _____ _____    ______ ____
ROOT
ATOM      1  C   UNL     1       3.719   4.282  19.479  0.00  0.00    +0.000 A 
ATOM      2  N   UNL     1       3.448   3.075  20.048  0.00  0.00    +0.000 NA
ATOM      3  C   UNL     1       2.438   2.925  20.936  0.00  0.00    +0.000 A 
ATOM      4  C   UNL     1       1.596   3.939  21.342  0.00  0.00    +0.000 A 
ATOM      5  C   UNL     1       1.851   5.181  20.774  0.00  0.00    +0.000 A 
ATOM      6  N   UNL     1       1.191   6.367  20.963  0.00  0.00    +0.000 NA
ATOM      7  C   UNL     1       1.812   7.269  20.227  0.00  0.00    +0.000 A 
ATOM      8  N   UNL     1       2.866   6.671  19.569  0.00  0.00    +0.000 N 
ATOM      9  C   UNL     1       2.896   5.336  19.877  0.00  0.00    +0.000 A 
ATOM     10  H   UNL     1       3.484   7.144  18.925  0.00  0.00    +0.000 HD
ENDROOT
BRANCH   7  11
ATOM     11  C   UNL     1       1.450   8.693  20.107  0.00  0.00    +0.000 A 
ATOM     12  C   UNL     1       1.101   9.450  21.250  0.00  0.00    +0.000 A 
ATOM     13 CL   UNL     1       1.185   8.834  22.870  0.00  0.00    +0.000 Cl
ATOM     14  C   UNL     1       0.697  10.789  21.140  0.00  0.00    +0.000 A 
ATOM     15  C   UNL     1       0.646  11.412  19.900  0.00  0.00    +0.000 A 
ATOM     16  C   UNL     1       1.004  10.697  18.762  0.00  0.00    +0.000 A 
ATOM     17  C   UNL     1       1.398   9.355  18.859  0.00  0.00    +0.000 A 
ATOM     18 CL   UNL     1       1.795   8.589  17.353  0.00  0.00    +0.000 Cl
ENDBRANCH   7  11
BRANCH   1  19
ATOM     19  N   UNL     1       4.765   4.451  18.575  0.00  0.00    +0.000 N 
ATOM     20  H   UNL     1       4.636   4.099  17.641  0.00  0.00    +0.000 HD
BRANCH  19  24
ATOM     21  N   UNL     1       7.684   7.935  16.915  0.00  0.00    +0.000 N 
ATOM     22  C   UNL     1       7.363   6.927  17.825  0.00  0.00    +0.000 A 
ATOM     23  C   UNL     1       6.169   6.253  17.708  0.00  0.00    +0.000 A 
ATOM     24  C   UNL     1       5.897   5.263  18.628  0.00  0.00    +0.000 A 
ATOM     25  N   UNL     1       6.744   5.003  19.639  0.00  0.00    +0.000 NA
ATOM     26  C   UNL     1       7.868   5.737  19.679  0.00  0.00    +0.000 A 
ATOM     27  N   UNL     1       8.230   6.689  18.811  0.00  0.00    +0.000 NA
ATOM     28  H   UNL     1       7.575   7.625  15.957  0.00  0.00    +0.000 HD
ATOM     29  H   UNL     1       8.627   8.253  17.119  0.00  0.00    +0.000 HD
ENDBRANCH  19  24
ENDBRANCH   1  19
TORSDOF 3
ENDMDL
MODEL 9
REMARK VINA RESULT:      -8.4      1.316      2.280
REMARK  Name = 
REMARK  3 active torsions:
REMARK  status: ('A' for Active; 'I' for Inactive)
REMARK    1  A    between atoms: C_4  and  N_5
REMARK    2  A    between atoms: N_5  and  C_6
REMARK    3  A    between atoms: C_12  and  C_13
REMARK                            x       y       z     vdW  Elec       q    Type
REMARK                         _______ _______ _______ _____ _____    ______ ____
ROOT
ATOM      1  C   UNL     1       3.750   4.356  19.457  0.00  0.00    +0.000 A 
ATOM      2  N   UNL     1       3.497   3.142  20.018  0.00  0.00    +0.000 NA
ATOM      3  C   UNL     1       2.491   2.971  20.907  0.00  0.00    +0.000 A 
ATOM      4  C   UNL     1       1.636   3.970  21.321  0.00  0.00    +0.000 A 
ATOM      5  C   UNL     1       1.872   5.220  20.762  0.00  0.00    +0.000 A 
ATOM      6  N   UNL     1       1.196   6.395  20.959  0.00  0.00    +0.000 NA
ATOM      7  C   UNL     1       1.803   7.311  20.229  0.00  0.00    +0.000 A 
ATOM      8  N   UNL     1       2.864   6.732  19.565  0.00  0.00    +0.000 N 
ATOM      9  C   UNL     1       2.913   5.396  19.864  0.00  0.00    +0.000 A 
ATOM     10  H   UNL     1       3.474   7.219  18.923  0.00  0.00    +0.000 HD
ENDROOT
BRANCH   7  11
ATOM     11  C   UNL     1       1.421   8.730  20.120  0.00  0.00    +0.000 A 
ATOM     12  C   UNL     1       1.360   9.370  18.860  0.00  0.00    +0.000 A 
ATOM     13 CL   UNL     1       1.598   8.542  17.353  0.00  0.00    +0.000 Cl
ATOM     14  C   UNL     1       1.055  10.734  18.750  0.00  0.00    +0.000 A 
ATOM     15  C   UNL     1       0.789  11.492  19.883  0.00  0.00    +0.000 A 
ATOM     16  C   UNL     1       0.820  10.884  21.133  0.00  0.00    +0.000 A 
ATOM     17  C   UNL     1       1.134   9.523  21.255  0.00  0.00    +0.000 A 
ATOM     18 CL   UNL     1       1.155   8.909  22.879  0.00  0.00    +0.000 Cl
ENDBRANCH   7  11
BRANCH   1  19
ATOM     19  N   UNL     1       4.792   4.546  18.553  0.00  0.00    +0.000 N 
ATOM     20  H   UNL     1       4.655   4.227  17.608  0.00  0.00    +0.000 HD
BRANCH  19  24
ATOM     21  N   UNL     1       7.722   8.072  17.002  0.00  0.00    +0.000 N 
ATOM     22  C   UNL     1       7.402   7.030  17.873  0.00  0.00    +0.000 A 
ATOM     23  C   UNL     1       6.201   6.371  17.743  0.00  0.00    +0.000 A 
ATOM     24  C   UNL     1       5.932   5.346  18.626  0.00  0.00    +0.000 A 
ATOM     25  N   UNL     1       6.788   5.038  19.615  0.00  0.00    +0.000 NA
ATOM     26  C   UNL     1       7.919   5.762  19.672  0.00  0.00    +0.000 A 
ATOM     27  N   UNL     1       8.279   6.746  18.839  0.00  0.00    +0.000 NA
ATOM     28  H   UNL     1       7.599   7.802  16.033  0.00  0.00    +0.000 HD
ATOM     29  H   UNL     1       8.670   8.374  17.207  0.00  0.00    +0.000 HD
ENDBRANCH  19  24
ENDBRANCH   1  19
TORSDOF 3
ENDMDL
