MODEL 1
REMARK VINA RESULT:      -6.8      0.000      0.000
REMARK  Name = 
REMARK  3 active torsions:
REMARK  status: ('A' for Active; 'I' for Inactive)
REMARK    1  A    between atoms: C_1  and  C_2
REMARK    2  A    between atoms: C_5  and  C_6
REMARK    3  A    between atoms: C_11  and  O_12
REMARK                            x       y       z     vdW  Elec       q    Type
REMARK                         _______ _______ _______ _____ _____    ______ ____
ROOT
ATOM      1  C   UNL     1       4.422   5.342  17.644  0.00  0.00    +0.000 C 
ATOM      2  C   UNL     1       5.192   6.320  17.167  0.00  0.00    +0.000 C 
ATOM      3  C   UNL     1       6.471   5.719  16.801  0.00  0.00    +0.000 C 
ATOM      4  O   UNL     1       7.407   6.326  16.319  0.00  0.00    +0.000 OA
ATOM      5  O   UNL     1       6.432   4.389  17.067  0.00  0.00    +0.000 OA
ATOM      6  C   UNL     1       5.152   4.059  17.597  0.00  0.00    +0.000 C 
ENDROOT
BRANCH   1  11
ATOM      7  C   UNL     1       1.296   2.922  21.151  0.00  0.00    +0.000 C 
ATOM      8  C   UNL     1       1.819   3.771  20.026  0.00  0.00    +0.000 C 
ATOM      9  C   UNL     1       1.568   3.479  18.744  0.00  0.00    +0.000 C 
ATOM     10  C   UNL     1       2.063   4.333  17.630  0.00  0.00    +0.000 C 
ATOM     11  C   UNL     1       2.988   5.490  18.056  0.00  0.00    +0.000 C 
ATOM     12  O   UNL     1       2.877   5.925  19.408  0.00  0.00    +0.000 OA
ATOM     13  C   UNL     1       2.630   4.966  20.432  0.00  0.00    +0.000 C 
ENDBRANCH   1  11
BRANCH   6  14
ATOM     14  O   UNL     1       5.300   3.482  18.873  0.00  0.00    +0.000 OA
ATOM     15  H   UNL     1       6.252   3.342  19.008  0.00  0.00    +0.000 HD
ENDBRANCH   6  14
TORSDOF 2
ENDMDL
MODEL 2
REMARK VINA RESULT:      -6.7      1.580      2.006
REMARK  Name = 
REMARK  3 active torsions:
REMARK  status: ('A' for Active; 'I' for Inactive)
REMARK    1  A    between atoms: C_1  and  C_2
REMARK    2  A    between atoms: C_5  and  C_6
REMARK    3  A    between atoms: C_11  and  O_12
REMARK                            x       y       z     vdW  Elec       q    Type
REMARK                         _______ _______ _______ _____ _____    ______ ____
ROOT
ATOM      1  C   UNL     1       5.858   5.227  17.480  0.00  0.00    +0.000 C 
ATOM      2  C   UNL     1       5.882   5.626  16.207  0.00  0.00    +0.000 C 
ATOM      3  C   UNL     1       7.142   5.160  15.636  0.00  0.00    +0.000 C 
ATOM      4  O   UNL     1       7.486   5.339  14.484  0.00  0.00    +0.000 OA
ATOM      5  O   UNL     1       7.842   4.489  16.584  0.00  0.00    +0.000 OA
ATOM      6  C   UNL     1       7.088   4.472  17.793  0.00  0.00    +0.000 C 
ENDROOT
BRANCH   1  11
ATOM      7  C   UNL     1       1.484   2.474  18.580  0.00  0.00    +0.000 C 
ATOM      8  C   UNL     1       2.534   3.546  18.500  0.00  0.00    +0.000 C 
ATOM      9  C   UNL     1       2.335   4.680  17.815  0.00  0.00    +0.000 C 
ATOM     10  C   UNL     1       3.363   5.755  17.756  0.00  0.00    +0.000 C 
ATOM     11  C   UNL     1       4.708   5.409  18.424  0.00  0.00    +0.000 C 
ATOM     12  O   UNL     1       4.680   4.385  19.413  0.00  0.00    +0.000 OA
ATOM     13  C   UNL     1       3.809   3.270  19.239  0.00  0.00    +0.000 C 
ENDBRANCH   1  11
BRANCH   6  14
ATOM     14  O   UNL     1       7.834   5.071  18.827  0.00  0.00    +0.000 OA
ATOM     15  H   UNL     1       7.332   5.850  19.118  0.00  0.00    +0.000 HD
ENDBRANCH   6  14
TORSDOF 2
ENDMDL
MODEL 3
REMARK VINA RESULT:      -6.7      1.972      5.005
REMARK  Name = 
REMARK  3 active torsions:
REMARK  status: ('A' for Active; 'I' for Inactive)
REMARK    1  A    between atoms: C_1  and  C_2
REMARK    2  A    between atoms: C_5  and  C_6
REMARK    3  A    between atoms: C_11  and  O_12
REMARK                            x       y       z     vdW  Elec       q    Type
REMARK                         _______ _______ _______ _____ _____    ______ ____
ROOT
ATOM      1  C   UNL     1       4.938   4.080  17.805  0.00  0.00    +0.000 C 
ATOM      2  C   UNL     1       3.867   4.144  17.012  0.00  0.00    +0.000 C 
ATOM      3  C   UNL     1       2.699   3.901  17.853  0.00  0.00    +0.000 C 
ATOM      4  O   UNL     1       1.550   3.899  17.454  0.00  0.00    +0.000 OA
ATOM      5  O   UNL     1       3.101   3.699  19.132  0.00  0.00    +0.000 OA
ATOM      6  C   UNL     1       4.520   3.810  19.195  0.00  0.00    +0.000 C 
ENDROOT
BRANCH   1  11
ATOM      7  C   UNL     1       8.159   8.257  18.129  0.00  0.00    +0.000 C 
ATOM      8  C   UNL     1       7.545   6.930  17.782  0.00  0.00    +0.000 C 
ATOM      9  C   UNL     1       7.078   6.666  16.555  0.00  0.00    +0.000 C 
ATOM     10  C   UNL     1       6.494   5.343  16.202  0.00  0.00    +0.000 C 
ATOM     11  C   UNL     1       6.349   4.359  17.380  0.00  0.00    +0.000 C 
ATOM     12  O   UNL     1       7.196   4.584  18.503  0.00  0.00    +0.000 OA
ATOM     13  C   UNL     1       7.499   5.921  18.891  0.00  0.00    +0.000 C 
ENDBRANCH   1  11
BRANCH   6  14
ATOM     14  O   UNL     1       5.068   2.613  19.695  0.00  0.00    +0.000 OA
ATOM     15  H   UNL     1       4.363   2.169  20.195  0.00  0.00    +0.000 HD
ENDBRANCH   6  14
TORSDOF 2
ENDMDL
MODEL 4
REMARK VINA RESULT:      -6.6      1.654      2.683
REMARK  Name = 
REMARK  3 active torsions:
REMARK  status: ('A' for Active; 'I' for Inactive)
REMARK    1  A    between atoms: C_1  and  C_2
REMARK    2  A    between atoms: C_5  and  C_6
REMARK    3  A    between atoms: C_11  and  O_12
REMARK                            x       y       z     vdW  Elec       q    Type
REMARK                         _______ _______ _______ _____ _____    ______ ____
ROOT
ATOM      1  C   UNL     1       5.715   4.855  16.663  0.00  0.00    +0.000 C 
ATOM      2  C   UNL     1       5.259   4.300  15.539  0.00  0.00    +0.000 C 
ATOM      3  C   UNL     1       6.390   4.202  14.621  0.00  0.00    +0.000 C 
ATOM      4  O   UNL     1       6.333   3.730  13.502  0.00  0.00    +0.000 OA
ATOM      5  O   UNL     1       7.499   4.701  15.223  0.00  0.00    +0.000 OA
ATOM      6  C   UNL     1       7.161   5.129  16.538  0.00  0.00    +0.000 C 
ENDROOT
BRANCH   1  11
ATOM      7  C   UNL     1       1.201   2.865  18.557  0.00  0.00    +0.000 C 
ATOM      8  C   UNL     1       2.432   3.698  18.337  0.00  0.00    +0.000 C 
ATOM      9  C   UNL     1       2.360   4.967  17.912  0.00  0.00    +0.000 C 
ATOM     10  C   UNL     1       3.577   5.802  17.718  0.00  0.00    +0.000 C 
ATOM     11  C   UNL     1       4.915   5.062  17.914  0.00  0.00    +0.000 C 
ATOM     12  O   UNL     1       4.876   3.881  18.709  0.00  0.00    +0.000 OA
ATOM     13  C   UNL     1       3.739   3.025  18.631  0.00  0.00    +0.000 C 
ENDBRANCH   1  11
BRANCH   6  14
ATOM     14  O   UNL     1       7.459   6.498  16.684  0.00  0.00    +0.000 OA
ATOM     15  H   UNL     1       7.909   6.597  17.539  0.00  0.00    +0.000 HD
ENDBRANCH   6  14
TORSDOF 2
ENDMDL
MODEL 5
REMARK VINA RESULT:      -6.6      1.765      2.842
REMARK  Name = 
REMARK  3 active torsions:
REMARK  status: ('A' for Active; 'I' for Inactive)
REMARK    1  A    between atoms: C_1  and  C_2
REMARK    2  A    between atoms: C_5  and  C_6
REMARK    3  A    between atoms: C_11  and  O_12
REMARK                            x       y       z     vdW  Elec       q    Type
REMARK                         _______ _______ _______ _____ _____    ______ ____
ROOT
ATOM      1  C   UNL     1       5.937   5.784  17.804  0.00  0.00    +0.000 C 
ATOM      2  C   UNL     1       6.199   5.149  18.947  0.00  0.00    +0.000 C 
ATOM      3  C   UNL     1       7.456   5.687  19.458  0.00  0.00    +0.000 C 
ATOM      4  O   UNL     1       7.986   5.339  20.495  0.00  0.00    +0.000 OA
ATOM      5  O   UNL     1       7.914   6.637  18.605  0.00  0.00    +0.000 OA
ATOM      6  C   UNL     1       6.996   6.774  17.525  0.00  0.00    +0.000 C 
ENDROOT
BRANCH   1  11
ATOM      7  C   UNL     1       1.215   3.559  18.629  0.00  0.00    +0.000 C 
ATOM      8  C   UNL     1       2.419   4.201  17.999  0.00  0.00    +0.000 C 
ATOM      9  C   UNL     1       3.229   3.526  17.173  0.00  0.00    +0.000 C 
ATOM     10  C   UNL     1       4.407   4.167  16.528  0.00  0.00    +0.000 C 
ATOM     11  C   UNL     1       4.695   5.612  16.982  0.00  0.00    +0.000 C 
ATOM     12  O   UNL     1       3.599   6.332  17.538  0.00  0.00    +0.000 OA
ATOM     13  C   UNL     1       2.648   5.642  18.346  0.00  0.00    +0.000 C 
ENDBRANCH   1  11
BRANCH   6  14
ATOM     14  O   UNL     1       7.655   6.520  16.306  0.00  0.00    +0.000 OA
ATOM     15  H   UNL     1       7.544   5.574  16.119  0.00  0.00    +0.000 HD
ENDBRANCH   6  14
TORSDOF 2
ENDMDL
MODEL 6
REMARK VINA RESULT:      -6.6      1.272      1.349
REMARK  Name = 
REMARK  3 active torsions:
REMARK  status: ('A' for Active; 'I' for Inactive)
REMARK    1  A    between atoms: C_1  and  C_2
REMARK    2  A    between atoms: C_5  and  C_6
REMARK    3  A    between atoms: C_11  and  O_12
REMARK                            x       y       z     vdW  Elec       q    Type
REMARK                         _______ _______ _______ _____ _____    ______ ____
ROOT
ATOM      1  C   UNL     1       4.745   4.412  17.534  0.00  0.00    +0.000 C 
ATOM      2  C   UNL     1       5.493   4.501  16.433  0.00  0.00    +0.000 C 
ATOM      3  C   UNL     1       6.888   4.510  16.863  0.00  0.00    +0.000 C 
ATOM      4  O   UNL     1       7.842   4.569  16.112  0.00  0.00    +0.000 OA
ATOM      5  O   UNL     1       6.940   4.422  18.216  0.00  0.00    +0.000 OA
ATOM      6  C   UNL     1       5.613   4.342  18.727  0.00  0.00    +0.000 C 
ENDROOT
BRANCH   1  11
ATOM      7  C   UNL     1       1.214   2.860  21.145  0.00  0.00    +0.000 C 
ATOM      8  C   UNL     1       1.884   3.276  19.867  0.00  0.00    +0.000 C 
ATOM      9  C   UNL     1       2.084   2.415  18.860  0.00  0.00    +0.000 C 
ATOM     10  C   UNL     1       2.724   2.832  17.583  0.00  0.00    +0.000 C 
ATOM     11  C   UNL     1       3.252   4.280  17.559  0.00  0.00    +0.000 C 
ATOM     12  O   UNL     1       2.666   5.184  18.491  0.00  0.00    +0.000 OA
ATOM     13  C   UNL     1       2.304   4.714  19.787  0.00  0.00    +0.000 C 
ENDBRANCH   1  11
BRANCH   6  14
ATOM     14  O   UNL     1       5.382   5.407  19.619  0.00  0.00    +0.000 OA
ATOM     15  H   UNL     1       4.927   5.033  20.391  0.00  0.00    +0.000 HD
ENDBRANCH   6  14
TORSDOF 2
ENDMDL
MODEL 7
REMARK VINA RESULT:      -6.5      1.854      5.196
REMARK  Name = 
REMARK  3 active torsions:
REMARK  status: ('A' for Active; 'I' for Inactive)
REMARK    1  A    between atoms: C_1  and  C_2
REMARK    2  A    between atoms: C_5  and  C_6
REMARK    3  A    between atoms: C_11  and  O_12
REMARK                            x       y       z     vdW  Elec       q    Type
REMARK                         _______ _______ _______ _____ _____    ______ ____
ROOT
ATOM      1  C   UNL     1       3.368   3.631  19.789  0.00  0.00    +0.000 C 
ATOM      2  C   UNL     1       3.079   2.681  20.681  0.00  0.00    +0.000 C 
ATOM      3  C   UNL     1       1.930   3.151  21.449  0.00  0.00    +0.000 C 
ATOM      4  O   UNL     1       1.393   2.524  22.342  0.00  0.00    +0.000 OA
ATOM      5  O   UNL     1       1.557   4.373  20.994  0.00  0.00    +0.000 OA
ATOM      6  C   UNL     1       2.415   4.751  19.922  0.00  0.00    +0.000 C 
ENDROOT
BRANCH   1  11
ATOM      7  C   UNL     1       6.459   7.111  17.289  0.00  0.00    +0.000 C 
ATOM      8  C   UNL     1       5.725   5.866  17.702  0.00  0.00    +0.000 C 
ATOM      9  C   UNL     1       4.733   5.353  16.962  0.00  0.00    +0.000 C 
ATOM     10  C   UNL     1       4.024   4.105  17.355  0.00  0.00    +0.000 C 
ATOM     11  C   UNL     1       4.423   3.532  18.729  0.00  0.00    +0.000 C 
ATOM     12  O   UNL     1       5.701   3.914  19.229  0.00  0.00    +0.000 OA
ATOM     13  C   UNL     1       6.179   5.234  18.983  0.00  0.00    +0.000 C 
ENDBRANCH   1  11
BRANCH   6  14
ATOM     14  O   UNL     1       3.058   5.965  20.234  0.00  0.00    +0.000 OA
ATOM     15  H   UNL     1       3.737   5.759  20.897  0.00  0.00    +0.000 HD
ENDBRANCH   6  14
TORSDOF 2
ENDMDL
MODEL 8
REMARK VINA RESULT:      -6.4      1.775      4.918
REMARK  Name = 
REMARK  3 active torsions:
REMARK  status: ('A' for Active; 'I' for Inactive)
REMARK    1  A    between atoms: C_1  and  C_2
REMARK    2  A    between atoms: C_5  and  C_6
REMARK    3  A    between atoms: C_11  and  O_12
REMARK                            x       y       z     vdW  Elec       q    Type
REMARK                         _______ _______ _______ _____ _____    ______ ____
ROOT
ATOM      1  C   UNL     1       3.890   3.864  17.545  0.00  0.00    +0.000 C 
ATOM      2  C   UNL     1       2.679   3.420  17.209  0.00  0.00    +0.000 C 
ATOM      3  C   UNL     1       2.068   2.886  18.423  0.00  0.00    +0.000 C 
ATOM      4  O   UNL     1       0.951   2.408  18.481  0.00  0.00    +0.000 OA
ATOM      5  O   UNL     1       2.932   3.028  19.459  0.00  0.00    +0.000 OA
ATOM      6  C   UNL     1       4.120   3.658  18.989  0.00  0.00    +0.000 C 
ENDROOT
BRANCH   1  11
ATOM      7  C   UNL     1       7.962   7.160  18.237  0.00  0.00    +0.000 C 
ATOM      8  C   UNL     1       6.851   6.343  17.642  0.00  0.00    +0.000 C 
ATOM      9  C   UNL     1       5.735   6.910  17.162  0.00  0.00    +0.000 C 
ATOM     10  C   UNL     1       4.645   6.105  16.548  0.00  0.00    +0.000 C 
ATOM     11  C   UNL     1       4.837   4.578  16.627  0.00  0.00    +0.000 C 
ATOM     12  O   UNL     1       6.174   4.114  16.795  0.00  0.00    +0.000 OA
ATOM     13  C   UNL     1       7.073   4.860  17.611  0.00  0.00    +0.000 C 
ENDBRANCH   1  11
BRANCH   6  14
ATOM     14  O   UNL     1       5.229   2.827  19.240  0.00  0.00    +0.000 OA
ATOM     15  H   UNL     1       4.880   1.996  19.601  0.00  0.00    +0.000 HD
ENDBRANCH   6  14
TORSDOF 2
ENDMDL
MODEL 9
REMARK VINA RESULT:      -6.4      1.963      4.939
REMARK  Name = 
REMARK  3 active torsions:
REMARK  status: ('A' for Active; 'I' for Inactive)
REMARK    1  A    between atoms: C_1  and  C_2
REMARK    2  A    between atoms: C_5  and  C_6
REMARK    3  A    between atoms: C_11  and  O_12
REMARK                            x       y       z     vdW  Elec       q    Type
REMARK                         _______ _______ _______ _____ _____    ______ ____
ROOT
ATOM      1  C   UNL     1       2.652   3.484  19.398  0.00  0.00    +0.000 C 
ATOM      2  C   UNL     1       1.610   3.397  20.226  0.00  0.00    +0.000 C 
ATOM      3  C   UNL     1       2.076   2.713  21.429  0.00  0.00    +0.000 C 
ATOM      4  O   UNL     1       1.384   2.476  22.401  0.00  0.00    +0.000 OA
ATOM      5  O   UNL     1       3.390   2.409  21.291  0.00  0.00    +0.000 OA
ATOM      6  C   UNL     1       3.844   2.878  20.025  0.00  0.00    +0.000 C 
ENDROOT
BRANCH   1  11
ATOM      7  C   UNL     1       5.925   6.871  17.004  0.00  0.00    +0.000 C 
ATOM      8  C   UNL     1       4.742   6.020  17.370  0.00  0.00    +0.000 C 
ATOM      9  C   UNL     1       3.598   6.554  17.817  0.00  0.00    +0.000 C 
ATOM     10  C   UNL     1       2.416   5.715  18.154  0.00  0.00    +0.000 C 
ATOM     11  C   UNL     1       2.652   4.194  18.078  0.00  0.00    +0.000 C 
ATOM     12  O   UNL     1       3.731   3.760  17.254  0.00  0.00    +0.000 OA
ATOM     13  C   UNL     1       4.921   4.541  17.194  0.00  0.00    +0.000 C 
ENDBRANCH   1  11
BRANCH   6  14
ATOM     14  O   UNL     1       4.354   1.801  19.274  0.00  0.00    +0.000 OA
ATOM     15  H   UNL     1       4.506   1.073  19.897  0.00  0.00    +0.000 HD
ENDBRANCH   6  14
TORSDOF 2
ENDMDL
