MODEL 1
REMARK VINA RESULT:      -8.3      0.000      0.000
REMARK  Name = 
REMARK  6 active torsions:
REMARK  status: ('A' for Active; 'I' for Inactive)
REMARK    1  A    between atoms: C_2  and  C_3
REMARK    2  A    between atoms: N_5  and  C_6
REMARK    3  A    between atoms: C_16  and  C_17
REMARK    4  A    between atoms: C_20  and  C_21
REMARK    5  A    between atoms: C_24  and  O_25
REMARK    6  A    between atoms: O_25  and  C_26
REMARK                            x       y       z     vdW  Elec       q    Type
REMARK                         _______ _______ _______ _____ _____    ______ ____
ROOT
ATOM      1  C   UNL     1       4.314   2.574  19.982  0.00  0.00    +0.000 A 
ATOM      2  C   UNL     1       3.250   3.033  20.756  0.00  0.00    +0.000 A 
ATOM      3  C   UNL     1       2.819   4.357  20.670  0.00  0.00    +0.000 A 
ATOM      4  C   UNL     1       3.439   5.254  19.789  0.00  0.00    +0.000 A 
ATOM      5  C   UNL     1       4.570   4.844  19.050  0.00  0.00    +0.000 A 
ATOM      6  C   UNL     1       4.998   3.500  19.179  0.00  0.00    +0.000 A 
ATOM      7  C   UNL     1       5.469   5.794  18.287  0.00  0.00    +0.000 C 
ATOM      8  C   UNL     1       4.864   6.776  17.283  0.00  0.00    +0.000 C 
ATOM      9  C   UNL     1       3.354   6.792  17.207  0.00  0.00    +0.000 C 
ATOM     10  C   UNL     1       2.759   7.286  18.477  0.00  0.00    +0.000 A 
ATOM     11  C   UNL     1       2.025   8.431  18.789  0.00  0.00    +0.000 A 
ATOM     12  C   UNL     1       1.673   8.266  20.178  0.00  0.00    +0.000 A 
ATOM     13  N   UNL     1       2.107   7.081  20.634  0.00  0.00    +0.000 NA
ATOM     14  N   UNL     1       2.831   6.536  19.634  0.00  0.00    +0.000 N 
ENDROOT
BRANCH  12  15
ATOM     15  C   UNL     1       0.835   9.112  21.053  0.00  0.00    +0.000 A 
ATOM     16  C   UNL     1       0.703   8.831  22.425  0.00  0.00    +0.000 A 
ATOM     17  C   UNL     1      -0.206   9.543  23.226  0.00  0.00    +0.000 A 
ATOM     18  C   UNL     1      -1.006  10.537  22.667  0.00  0.00    +0.000 A 
ATOM     19  C   UNL     1      -0.861  10.838  21.316  0.00  0.00    +0.000 A 
ATOM     20  C   UNL     1       0.104  10.184  20.547  0.00  0.00    +0.000 A 
BRANCH  18  21
ATOM     21  O   UNL     1      -1.927  11.143  23.499  0.00  0.00    +0.000 OA
BRANCH  21  22
ATOM     22  C   UNL     1      -2.310  12.442  23.234  0.00  0.00    +0.000 A 
ATOM     23  C   UNL     1      -3.606  12.644  22.755  0.00  0.00    +0.000 A 
ATOM     24  C   UNL     1      -4.036  13.935  22.435  0.00  0.00    +0.000 A 
ATOM     25  C   UNL     1      -3.174  15.019  22.596  0.00  0.00    +0.000 A 
ATOM     26  C   UNL     1      -1.895  14.823  23.109  0.00  0.00    +0.000 A 
ATOM     27  C   UNL     1      -1.476  13.541  23.461  0.00  0.00    +0.000 A 
ENDBRANCH  21  22
ENDBRANCH  18  21
ENDBRANCH  12  15
BRANCH  11  28
ATOM     28  C   UNL     1       1.698   9.512  17.865  0.00  0.00    +0.000 C 
ATOM     29  N   UNL     1       0.426   9.539  17.372  0.00  0.00    +0.000 N 
ATOM     30  O   UNL     1       2.476  10.382  17.490  0.00  0.00    +0.000 OA
ATOM     31  H   UNL     1      -0.318   8.968  17.739  0.00  0.00    +0.000 HD
ATOM     32  H   UNL     1       0.200  10.313  16.762  0.00  0.00    +0.000 HD
ENDBRANCH  11  28
BRANCH   1  35
ATOM     33  C   UNL     1       5.552   0.655  20.952  0.00  0.00    +0.000 C 
ATOM     34  O   UNL     1       5.967   1.188  21.971  0.00  0.00    +0.000 OA
ATOM     35  N   UNL     1       4.747   1.227  19.984  0.00  0.00    +0.000 N 
ATOM     36  H   UNL     1       4.354   0.627  19.271  0.00  0.00    +0.000 HD
BRANCH  33  38
ATOM     37  C   UNL     1       6.525  -1.490  21.604  0.00  0.00    +0.000 C 
ATOM     38  C   UNL     1       5.850  -0.784  20.686  0.00  0.00    +0.000 C 
ENDBRANCH  33  38
ENDBRANCH   1  35
TORSDOF 6
ENDMDL
MODEL 2
REMARK VINA RESULT:      -8.2      3.472     11.202
REMARK  Name = 
REMARK  6 active torsions:
REMARK  status: ('A' for Active; 'I' for Inactive)
REMARK    1  A    between atoms: C_2  and  C_3
REMARK    2  A    between atoms: N_5  and  C_6
REMARK    3  A    between atoms: C_16  and  C_17
REMARK    4  A    between atoms: C_20  and  C_21
REMARK    5  A    between atoms: C_24  and  O_25
REMARK    6  A    between atoms: O_25  and  C_26
REMARK                            x       y       z     vdW  Elec       q    Type
REMARK                         _______ _______ _______ _____ _____    ______ ____
ROOT
ATOM      1  C   UNL     1      -0.058  12.725  19.313  0.00  0.00    +0.000 A 
ATOM      2  C   UNL     1       0.433  12.064  18.189  0.00  0.00    +0.000 A 
ATOM      3  C   UNL     1       1.014  10.800  18.298  0.00  0.00    +0.000 A 
ATOM      4  C   UNL     1       1.101  10.159  19.541  0.00  0.00    +0.000 A 
ATOM      5  C   UNL     1       0.687  10.833  20.710  0.00  0.00    +0.000 A 
ATOM      6  C   UNL     1       0.125  12.126  20.569  0.00  0.00    +0.000 A 
ATOM      7  C   UNL     1       0.984  10.349  22.113  0.00  0.00    +0.000 C 
ATOM      8  C   UNL     1       0.630   8.918  22.518  0.00  0.00    +0.000 C 
ATOM      9  C   UNL     1       0.087   8.038  21.415  0.00  0.00    +0.000 C 
ATOM     10  C   UNL     1       1.118   7.787  20.373  0.00  0.00    +0.000 A 
ATOM     11  C   UNL     1       1.785   6.631  19.969  0.00  0.00    +0.000 A 
ATOM     12  C   UNL     1       2.592   7.053  18.850  0.00  0.00    +0.000 A 
ATOM     13  N   UNL     1       2.368   8.347  18.572  0.00  0.00    +0.000 NA
ATOM     14  N   UNL     1       1.547   8.803  19.541  0.00  0.00    +0.000 N 
ENDROOT
BRANCH  12  15
ATOM     15  C   UNL     1       3.461   6.264  17.953  0.00  0.00    +0.000 A 
ATOM     16  C   UNL     1       3.239   4.889  17.751  0.00  0.00    +0.000 A 
ATOM     17  C   UNL     1       4.149   4.108  17.018  0.00  0.00    +0.000 A 
ATOM     18  C   UNL     1       5.301   4.685  16.487  0.00  0.00    +0.000 A 
ATOM     19  C   UNL     1       5.513   6.049  16.661  0.00  0.00    +0.000 A 
ATOM     20  C   UNL     1       4.562   6.833  17.318  0.00  0.00    +0.000 A 
BRANCH  18  21
ATOM     21  O   UNL     1       6.184   3.842  15.842  0.00  0.00    +0.000 OA
BRANCH  21  22
ATOM     22  C   UNL     1       6.490   4.083  14.518  0.00  0.00    +0.000 A 
ATOM     23  C   UNL     1       7.550   4.952  14.252  0.00  0.00    +0.000 A 
ATOM     24  C   UNL     1       7.880   5.261  12.929  0.00  0.00    +0.000 A 
ATOM     25  C   UNL     1       7.154   4.703  11.878  0.00  0.00    +0.000 A 
ATOM     26  C   UNL     1       6.121   3.807  12.142  0.00  0.00    +0.000 A 
ATOM     27  C   UNL     1       5.812   3.471  13.460  0.00  0.00    +0.000 A 
ENDBRANCH  21  22
ENDBRANCH  18  21
ENDBRANCH  12  15
BRANCH  11  28
ATOM     28  C   UNL     1       1.639   5.308  20.568  0.00  0.00    +0.000 C 
ATOM     29  N   UNL     1       2.614   4.913  21.436  0.00  0.00    +0.000 N 
ATOM     30  O   UNL     1       0.722   4.527  20.342  0.00  0.00    +0.000 OA
ATOM     31  H   UNL     1       3.313   5.540  21.801  0.00  0.00    +0.000 HD
ATOM     32  H   UNL     1       2.483   4.011  21.873  0.00  0.00    +0.000 HD
ENDBRANCH  11  28
BRANCH   1  35
ATOM     33  C   UNL     1      -0.075  15.202  19.164  0.00  0.00    +0.000 C 
ATOM     34  O   UNL     1       1.128  15.398  19.075  0.00  0.00    +0.000 OA
ATOM     35  N   UNL     1      -0.713  13.978  19.249  0.00  0.00    +0.000 N 
ATOM     36  H   UNL     1      -1.720  13.956  19.164  0.00  0.00    +0.000 HD
BRANCH  33  38
ATOM     37  C   UNL     1      -1.772  16.625  20.197  0.00  0.00    +0.000 C 
ATOM     38  C   UNL     1      -1.026  16.352  19.116  0.00  0.00    +0.000 C 
ENDBRANCH  33  38
ENDBRANCH   1  35
TORSDOF 6
ENDMDL
MODEL 3
REMARK VINA RESULT:      -8.0      0.974      1.405
REMARK  Name = 
REMARK  6 active torsions:
REMARK  status: ('A' for Active; 'I' for Inactive)
REMARK    1  A    between atoms: C_2  and  C_3
REMARK    2  A    between atoms: N_5  and  C_6
REMARK    3  A    between atoms: C_16  and  C_17
REMARK    4  A    between atoms: C_20  and  C_21
REMARK    5  A    between atoms: C_24  and  O_25
REMARK    6  A    between atoms: O_25  and  C_26
REMARK                            x       y       z     vdW  Elec       q    Type
REMARK                         _______ _______ _______ _____ _____    ______ ____
ROOT
ATOM      1  C   UNL     1       4.169   2.670  20.069  0.00  0.00    +0.000 A 
ATOM      2  C   UNL     1       3.082   3.101  20.826  0.00  0.00    +0.000 A 
ATOM      3  C   UNL     1       2.618   4.413  20.733  0.00  0.00    +0.000 A 
ATOM      4  C   UNL     1       3.229   5.326  19.862  0.00  0.00    +0.000 A 
ATOM      5  C   UNL     1       4.381   4.946  19.141  0.00  0.00    +0.000 A 
ATOM      6  C   UNL     1       4.842   3.613  19.277  0.00  0.00    +0.000 A 
ATOM      7  C   UNL     1       5.267   5.919  18.392  0.00  0.00    +0.000 C 
ATOM      8  C   UNL     1       4.653   6.885  17.378  0.00  0.00    +0.000 C 
ATOM      9  C   UNL     1       3.145   6.862  17.278  0.00  0.00    +0.000 C 
ATOM     10  C   UNL     1       2.517   7.340  18.538  0.00  0.00    +0.000 A 
ATOM     11  C   UNL     1       1.749   8.466  18.838  0.00  0.00    +0.000 A 
ATOM     12  C   UNL     1       1.379   8.291  20.221  0.00  0.00    +0.000 A 
ATOM     13  N   UNL     1       1.836   7.118  20.685  0.00  0.00    +0.000 NA
ATOM     14  N   UNL     1       2.590   6.591  19.696  0.00  0.00    +0.000 N 
ENDROOT
BRANCH  12  15
ATOM     15  C   UNL     1       0.505   9.115  21.082  0.00  0.00    +0.000 A 
ATOM     16  C   UNL     1       0.108  10.407  20.691  0.00  0.00    +0.000 A 
ATOM     17  C   UNL     1      -0.598  11.245  21.571  0.00  0.00    +0.000 A 
ATOM     18  C   UNL     1      -0.908  10.811  22.858  0.00  0.00    +0.000 A 
ATOM     19  C   UNL     1      -0.541   9.525  23.241  0.00  0.00    +0.000 A 
ATOM     20  C   UNL     1       0.085   8.669  22.334  0.00  0.00    +0.000 A 
BRANCH  18  21
ATOM     21  O   UNL     1      -1.538  11.716  23.690  0.00  0.00    +0.000 OA
BRANCH  21  22
ATOM     22  C   UNL     1      -2.793  12.174  23.346  0.00  0.00    +0.000 A 
ATOM     23  C   UNL     1      -3.734  12.300  24.370  0.00  0.00    +0.000 A 
ATOM     24  C   UNL     1      -5.032  12.725  24.073  0.00  0.00    +0.000 A 
ATOM     25  C   UNL     1      -5.387  13.025  22.759  0.00  0.00    +0.000 A 
ATOM     26  C   UNL     1      -4.439  12.936  21.743  0.00  0.00    +0.000 A 
ATOM     27  C   UNL     1      -3.134  12.545  22.042  0.00  0.00    +0.000 A 
ENDBRANCH  21  22
ENDBRANCH  18  21
ENDBRANCH  12  15
BRANCH  11  28
ATOM     28  C   UNL     1       1.408   9.538  17.908  0.00  0.00    +0.000 C 
ATOM     29  N   UNL     1       2.369  10.478  17.672  0.00  0.00    +0.000 N 
ATOM     30  O   UNL     1       0.331   9.665  17.340  0.00  0.00    +0.000 OA
ATOM     31  H   UNL     1       3.326  10.372  17.966  0.00  0.00    +0.000 HD
ATOM     32  H   UNL     1       2.135  11.195  16.999  0.00  0.00    +0.000 HD
ENDBRANCH  11  28
BRANCH   1  35
ATOM     33  C   UNL     1       5.497   0.802  21.022  0.00  0.00    +0.000 C 
ATOM     34  O   UNL     1       5.940   1.366  22.012  0.00  0.00    +0.000 OA
ATOM     35  N   UNL     1       4.637   1.334  20.079  0.00  0.00    +0.000 N 
ATOM     36  H   UNL     1       4.231   0.710  19.395  0.00  0.00    +0.000 HD
BRANCH  33  38
ATOM     37  C   UNL     1       6.528  -1.311  21.686  0.00  0.00    +0.000 C 
ATOM     38  C   UNL     1       5.820  -0.633  20.771  0.00  0.00    +0.000 C 
ENDBRANCH  33  38
ENDBRANCH   1  35
TORSDOF 6
ENDMDL
MODEL 4
REMARK VINA RESULT:      -7.9      3.872     11.535
REMARK  Name = 
REMARK  6 active torsions:
REMARK  status: ('A' for Active; 'I' for Inactive)
REMARK    1  A    between atoms: C_2  and  C_3
REMARK    2  A    between atoms: N_5  and  C_6
REMARK    3  A    between atoms: C_16  and  C_17
REMARK    4  A    between atoms: C_20  and  C_21
REMARK    5  A    between atoms: C_24  and  O_25
REMARK    6  A    between atoms: O_25  and  C_26
REMARK                            x       y       z     vdW  Elec       q    Type
REMARK                         _______ _______ _______ _____ _____    ______ ____
ROOT
ATOM      1  C   UNL     1      -3.507  14.775  23.475  0.00  0.00    +0.000 A 
ATOM      2  C   UNL     1      -2.183  14.362  23.339  0.00  0.00    +0.000 A 
ATOM      3  C   UNL     1      -1.826  13.396  22.397  0.00  0.00    +0.000 A 
ATOM      4  C   UNL     1      -2.792  12.831  21.553  0.00  0.00    +0.000 A 
ATOM      5  C   UNL     1      -4.153  13.167  21.719  0.00  0.00    +0.000 A 
ATOM      6  C   UNL     1      -4.486  14.132  22.701  0.00  0.00    +0.000 A 
ATOM      7  C   UNL     1      -5.293  12.424  21.056  0.00  0.00    +0.000 C 
ATOM      8  C   UNL     1      -5.280  12.198  19.544  0.00  0.00    +0.000 C 
ATOM      9  C   UNL     1      -4.035  12.661  18.821  0.00  0.00    +0.000 C 
ATOM     10  C   UNL     1      -2.848  11.865  19.234  0.00  0.00    +0.000 A 
ATOM     11  C   UNL     1      -2.030  10.970  18.545  0.00  0.00    +0.000 A 
ATOM     12  C   UNL     1      -1.005  10.614  19.496  0.00  0.00    +0.000 A 
ATOM     13  N   UNL     1      -1.167  11.299  20.638  0.00  0.00    +0.000 NA
ATOM     14  N   UNL     1      -2.322  11.984  20.505  0.00  0.00    +0.000 N 
ENDROOT
BRANCH  12  15
ATOM     15  C   UNL     1       0.190   9.761  19.330  0.00  0.00    +0.000 A 
ATOM     16  C   UNL     1       0.755   9.540  18.061  0.00  0.00    +0.000 A 
ATOM     17  C   UNL     1       1.798   8.615  17.883  0.00  0.00    +0.000 A 
ATOM     18  C   UNL     1       2.284   7.887  18.967  0.00  0.00    +0.000 A 
ATOM     19  C   UNL     1       1.747   8.120  20.230  0.00  0.00    +0.000 A 
ATOM     20  C   UNL     1       0.770   9.101  20.412  0.00  0.00    +0.000 A 
BRANCH  18  21
ATOM     21  O   UNL     1       3.258   6.944  18.704  0.00  0.00    +0.000 OA
BRANCH  21  22
ATOM     22  C   UNL     1       2.873   5.646  18.435  0.00  0.00    +0.000 A 
ATOM     23  C   UNL     1       1.813   5.124  19.178  0.00  0.00    +0.000 A 
ATOM     24  C   UNL     1       1.406   3.802  18.973  0.00  0.00    +0.000 A 
ATOM     25  C   UNL     1       2.054   3.008  18.028  0.00  0.00    +0.000 A 
ATOM     26  C   UNL     1       3.086   3.541  17.260  0.00  0.00    +0.000 A 
ATOM     27  C   UNL     1       3.472   4.869  17.439  0.00  0.00    +0.000 A 
ENDBRANCH  21  22
ENDBRANCH  18  21
ENDBRANCH  12  15
BRANCH  11  28
ATOM     28  C   UNL     1      -2.208  10.544  17.160  0.00  0.00    +0.000 C 
ATOM     29  N   UNL     1      -2.229  11.523  16.211  0.00  0.00    +0.000 N 
ATOM     30  O   UNL     1      -2.352   9.385  16.791  0.00  0.00    +0.000 OA
ATOM     31  H   UNL     1      -1.964  12.476  16.398  0.00  0.00    +0.000 HD
ATOM     32  H   UNL     1      -2.316  11.214  15.253  0.00  0.00    +0.000 HD
ENDBRANCH  11  28
BRANCH   1  35
ATOM     33  C   UNL     1      -3.581  17.132  24.247  0.00  0.00    +0.000 C 
ATOM     34  O   UNL     1      -2.950  17.653  23.338  0.00  0.00    +0.000 OA
ATOM     35  N   UNL     1      -3.910  15.795  24.369  0.00  0.00    +0.000 N 
ATOM     36  H   UNL     1      -4.564  15.527  25.092  0.00  0.00    +0.000 HD
BRANCH  33  38
ATOM     37  C   UNL     1      -5.460  18.240  25.350  0.00  0.00    +0.000 C 
ATOM     38  C   UNL     1      -4.145  17.973  25.344  0.00  0.00    +0.000 C 
ENDBRANCH  33  38
ENDBRANCH   1  35
TORSDOF 6
ENDMDL
MODEL 5
REMARK VINA RESULT:      -7.9      3.357     11.143
REMARK  Name = 
REMARK  6 active torsions:
REMARK  status: ('A' for Active; 'I' for Inactive)
REMARK    1  A    between atoms: C_2  and  C_3
REMARK    2  A    between atoms: N_5  and  C_6
REMARK    3  A    between atoms: C_16  and  C_17
REMARK    4  A    between atoms: C_20  and  C_21
REMARK    5  A    between atoms: C_24  and  O_25
REMARK    6  A    between atoms: O_25  and  C_26
REMARK                            x       y       z     vdW  Elec       q    Type
REMARK                         _______ _______ _______ _____ _____    ______ ____
ROOT
ATOM      1  C   UNL     1      -0.311  12.573  19.568  0.00  0.00    +0.000 A 
ATOM      2  C   UNL     1       0.257  11.970  18.448  0.00  0.00    +0.000 A 
ATOM      3  C   UNL     1       0.887  10.729  18.545  0.00  0.00    +0.000 A 
ATOM      4  C   UNL     1       0.949  10.052  19.771  0.00  0.00    +0.000 A 
ATOM      5  C   UNL     1       0.454  10.671  20.940  0.00  0.00    +0.000 A 
ATOM      6  C   UNL     1      -0.157  11.943  20.812  0.00  0.00    +0.000 A 
ATOM      7  C   UNL     1       0.711  10.156  22.340  0.00  0.00    +0.000 C 
ATOM      8  C   UNL     1       0.402   8.699  22.686  0.00  0.00    +0.000 C 
ATOM      9  C   UNL     1      -0.053   7.832  21.534  0.00  0.00    +0.000 C 
ATOM     10  C   UNL     1       1.032   7.659  20.532  0.00  0.00    +0.000 A 
ATOM     11  C   UNL     1       1.767   6.545  20.124  0.00  0.00    +0.000 A 
ATOM     12  C   UNL     1       2.602   7.037  19.056  0.00  0.00    +0.000 A 
ATOM     13  N   UNL     1       2.334   8.328  18.806  0.00  0.00    +0.000 NA
ATOM     14  N   UNL     1       1.453   8.717  19.751  0.00  0.00    +0.000 N 
ENDROOT
BRANCH  12  15
ATOM     15  C   UNL     1       3.544   6.313  18.176  0.00  0.00    +0.000 A 
ATOM     16  C   UNL     1       3.691   4.916  18.261  0.00  0.00    +0.000 A 
ATOM     17  C   UNL     1       4.688   4.247  17.532  0.00  0.00    +0.000 A 
ATOM     18  C   UNL     1       5.561   4.963  16.716  0.00  0.00    +0.000 A 
ATOM     19  C   UNL     1       5.404   6.342  16.607  0.00  0.00    +0.000 A 
ATOM     20  C   UNL     1       4.358   6.987  17.269  0.00  0.00    +0.000 A 
BRANCH  18  21
ATOM     21  O   UNL     1       6.561   4.247  16.087  0.00  0.00    +0.000 OA
BRANCH  21  22
ATOM     22  C   UNL     1       6.665   4.315  14.712  0.00  0.00    +0.000 A 
ATOM     23  C   UNL     1       5.753   3.570  13.962  0.00  0.00    +0.000 A 
ATOM     24  C   UNL     1       5.836   3.572  12.567  0.00  0.00    +0.000 A 
ATOM     25  C   UNL     1       6.824   4.317  11.925  0.00  0.00    +0.000 A 
ATOM     26  C   UNL     1       7.709   5.090  12.671  0.00  0.00    +0.000 A 
ATOM     27  C   UNL     1       7.608   5.116  14.062  0.00  0.00    +0.000 A 
ENDBRANCH  21  22
ENDBRANCH  18  21
ENDBRANCH  12  15
BRANCH  11  28
ATOM     28  C   UNL     1       1.653   5.199  20.677  0.00  0.00    +0.000 C 
ATOM     29  N   UNL     1       0.635   4.422  20.204  0.00  0.00    +0.000 N 
ATOM     30  O   UNL     1       2.386   4.723  21.535  0.00  0.00    +0.000 OA
ATOM     31  H   UNL     1       0.086   4.666  19.396  0.00  0.00    +0.000 HD
ATOM     32  H   UNL     1       0.588   3.480  20.567  0.00  0.00    +0.000 HD
ENDBRANCH  11  28
BRANCH   1  35
ATOM     33  C   UNL     1      -0.430  15.051  19.486  0.00  0.00    +0.000 C 
ATOM     34  O   UNL     1       0.766  15.300  19.453  0.00  0.00    +0.000 OA
ATOM     35  N   UNL     1      -1.016  13.799  19.511  0.00  0.00    +0.000 N 
ATOM     36  H   UNL     1      -2.018  13.736  19.385  0.00  0.00    +0.000 HD
BRANCH  33  38
ATOM     37  C   UNL     1      -1.046  17.396  19.785  0.00  0.00    +0.000 C 
ATOM     38  C   UNL     1      -1.428  16.160  19.432  0.00  0.00    +0.000 C 
ENDBRANCH  33  38
ENDBRANCH   1  35
TORSDOF 6
ENDMDL
MODEL 6
REMARK VINA RESULT:      -7.9      3.752     11.405
REMARK  Name = 
REMARK  6 active torsions:
REMARK  status: ('A' for Active; 'I' for Inactive)
REMARK    1  A    between atoms: C_2  and  C_3
REMARK    2  A    between atoms: N_5  and  C_6
REMARK    3  A    between atoms: C_16  and  C_17
REMARK    4  A    between atoms: C_20  and  C_21
REMARK    5  A    between atoms: C_24  and  O_25
REMARK    6  A    between atoms: O_25  and  C_26
REMARK                            x       y       z     vdW  Elec       q    Type
REMARK                         _______ _______ _______ _____ _____    ______ ____
ROOT
ATOM      1  C   UNL     1      -1.685  15.255  23.681  0.00  0.00    +0.000 A 
ATOM      2  C   UNL     1      -0.456  14.761  23.248  0.00  0.00    +0.000 A 
ATOM      3  C   UNL     1      -0.387  13.689  22.358  0.00  0.00    +0.000 A 
ATOM      4  C   UNL     1      -1.557  13.093  21.866  0.00  0.00    +0.000 A 
ATOM      5  C   UNL     1      -2.815  13.516  22.344  0.00  0.00    +0.000 A 
ATOM      6  C   UNL     1      -2.850  14.590  23.268  0.00  0.00    +0.000 A 
ATOM      7  C   UNL     1      -4.109  12.771  22.090  0.00  0.00    +0.000 C 
ATOM      8  C   UNL     1      -4.505  12.395  20.662  0.00  0.00    +0.000 C 
ATOM      9  C   UNL     1      -3.487  12.717  19.591  0.00  0.00    +0.000 C 
ATOM     10  C   UNL     1      -2.253  11.906  19.763  0.00  0.00    +0.000 A 
ATOM     11  C   UNL     1      -1.670  10.904  18.986  0.00  0.00    +0.000 A 
ATOM     12  C   UNL     1      -0.437  10.592  19.668  0.00  0.00    +0.000 A 
ATOM     13  N   UNL     1      -0.272  11.395  20.730  0.00  0.00    +0.000 NA
ATOM     14  N   UNL     1      -1.404  12.123  20.830  0.00  0.00    +0.000 N 
ENDROOT
BRANCH  12  15
ATOM     15  C   UNL     1       0.649   9.665  19.289  0.00  0.00    +0.000 A 
ATOM     16  C   UNL     1       1.141   9.621  17.971  0.00  0.00    +0.000 A 
ATOM     17  C   UNL     1       2.067   8.641  17.576  0.00  0.00    +0.000 A 
ATOM     18  C   UNL     1       2.508   7.683  18.487  0.00  0.00    +0.000 A 
ATOM     19  C   UNL     1       2.046   7.738  19.798  0.00  0.00    +0.000 A 
ATOM     20  C   UNL     1       1.191   8.764  20.204  0.00  0.00    +0.000 A 
BRANCH  18  21
ATOM     21  O   UNL     1       3.362   6.708  18.008  0.00  0.00    +0.000 OA
BRANCH  21  22
ATOM     22  C   UNL     1       2.959   5.389  18.055  0.00  0.00    +0.000 A 
ATOM     23  C   UNL     1       3.758   4.451  17.397  0.00  0.00    +0.000 A 
ATOM     24  C   UNL     1       3.379   3.106  17.381  0.00  0.00    +0.000 A 
ATOM     25  C   UNL     1       2.208   2.700  18.020  0.00  0.00    +0.000 A 
ATOM     26  C   UNL     1       1.432   3.629  18.708  0.00  0.00    +0.000 A 
ATOM     27  C   UNL     1       1.826   4.966  18.755  0.00  0.00    +0.000 A 
ENDBRANCH  21  22
ENDBRANCH  18  21
ENDBRANCH  12  15
BRANCH  11  28
ATOM     28  C   UNL     1      -2.221  10.352  17.753  0.00  0.00    +0.000 C 
ATOM     29  N   UNL     1      -1.829  10.938  16.585  0.00  0.00    +0.000 N 
ATOM     30  O   UNL     1      -3.013   9.420  17.688  0.00  0.00    +0.000 OA
ATOM     31  H   UNL     1      -1.070  11.598  16.528  0.00  0.00    +0.000 HD
ATOM     32  H   UNL     1      -2.188  10.524  15.736  0.00  0.00    +0.000 HD
ENDBRANCH  11  28
BRANCH   1  35
ATOM     33  C   UNL     1      -2.199  17.641  24.125  0.00  0.00    +0.000 C 
ATOM     34  O   UNL     1      -2.546  17.977  23.002  0.00  0.00    +0.000 OA
ATOM     35  N   UNL     1      -1.811  16.379  24.532  0.00  0.00    +0.000 N 
ATOM     36  H   UNL     1      -1.696  16.208  25.522  0.00  0.00    +0.000 HD
BRANCH  33  38
ATOM     37  C   UNL     1      -1.386  18.479  26.272  0.00  0.00    +0.000 C 
ATOM     38  C   UNL     1      -2.236  18.628  25.245  0.00  0.00    +0.000 C 
ENDBRANCH  33  38
ENDBRANCH   1  35
TORSDOF 6
ENDMDL
MODEL 7
REMARK VINA RESULT:      -7.8      0.799      1.377
REMARK  Name = 
REMARK  6 active torsions:
REMARK  status: ('A' for Active; 'I' for Inactive)
REMARK    1  A    between atoms: C_2  and  C_3
REMARK    2  A    between atoms: N_5  and  C_6
REMARK    3  A    between atoms: C_16  and  C_17
REMARK    4  A    between atoms: C_20  and  C_21
REMARK    5  A    between atoms: C_24  and  O_25
REMARK    6  A    between atoms: O_25  and  C_26
REMARK                            x       y       z     vdW  Elec       q    Type
REMARK                         _______ _______ _______ _____ _____    ______ ____
ROOT
ATOM      1  C   UNL     1       4.310   2.499  20.072  0.00  0.00    +0.000 A 
ATOM      2  C   UNL     1       3.172   2.923  20.756  0.00  0.00    +0.000 A 
ATOM      3  C   UNL     1       2.723   4.239  20.654  0.00  0.00    +0.000 A 
ATOM      4  C   UNL     1       3.398   5.163  19.844  0.00  0.00    +0.000 A 
ATOM      5  C   UNL     1       4.597   4.789  19.201  0.00  0.00    +0.000 A 
ATOM      6  C   UNL     1       5.041   3.452  19.346  0.00  0.00    +0.000 A 
ATOM      7  C   UNL     1       5.539   5.770  18.534  0.00  0.00    +0.000 C 
ATOM      8  C   UNL     1       5.003   6.757  17.496  0.00  0.00    +0.000 C 
ATOM      9  C   UNL     1       3.506   6.744  17.288  0.00  0.00    +0.000 C 
ATOM     10  C   UNL     1       2.791   7.204  18.509  0.00  0.00    +0.000 A 
ATOM     11  C   UNL     1       2.008   8.328  18.772  0.00  0.00    +0.000 A 
ATOM     12  C   UNL     1       1.539   8.132  20.122  0.00  0.00    +0.000 A 
ATOM     13  N   UNL     1       1.958   6.948  20.597  0.00  0.00    +0.000 NA
ATOM     14  N   UNL     1       2.777   6.435  19.655  0.00  0.00    +0.000 N 
ENDROOT
BRANCH  12  15
ATOM     15  C   UNL     1       0.610   8.946  20.933  0.00  0.00    +0.000 A 
ATOM     16  C   UNL     1      -0.301   9.829  20.327  0.00  0.00    +0.000 A 
ATOM     17  C   UNL     1      -1.080  10.709  21.098  0.00  0.00    +0.000 A 
ATOM     18  C   UNL     1      -0.952  10.728  22.485  0.00  0.00    +0.000 A 
ATOM     19  C   UNL     1      -0.072   9.838  23.093  0.00  0.00    +0.000 A 
ATOM     20  C   UNL     1       0.635   8.910  22.326  0.00  0.00    +0.000 A 
BRANCH  18  21
ATOM     21  O   UNL     1      -1.696  11.669  23.170  0.00  0.00    +0.000 OA
BRANCH  21  22
ATOM     22  C   UNL     1      -1.282  12.985  23.155  0.00  0.00    +0.000 A 
ATOM     23  C   UNL     1      -0.275  13.331  22.252  0.00  0.00    +0.000 A 
ATOM     24  C   UNL     1       0.208  14.643  22.219  0.00  0.00    +0.000 A 
ATOM     25  C   UNL     1      -0.315  15.603  23.083  0.00  0.00    +0.000 A 
ATOM     26  C   UNL     1      -1.345  15.268  23.957  0.00  0.00    +0.000 A 
ATOM     27  C   UNL     1      -1.852  13.969  23.969  0.00  0.00    +0.000 A 
ENDBRANCH  21  22
ENDBRANCH  18  21
ENDBRANCH  12  15
BRANCH  11  28
ATOM     28  C   UNL     1       1.740   9.418  17.840  0.00  0.00    +0.000 C 
ATOM     29  N   UNL     1       0.464   9.526  17.368  0.00  0.00    +0.000 N 
ATOM     30  O   UNL     1       2.568  10.228  17.442  0.00  0.00    +0.000 OA
ATOM     31  H   UNL     1      -0.310   9.012  17.754  0.00  0.00    +0.000 HD
ATOM     32  H   UNL     1       0.281  10.306  16.752  0.00  0.00    +0.000 HD
ENDBRANCH  11  28
BRANCH   1  35
ATOM     33  C   UNL     1       5.610   0.625  21.050  0.00  0.00    +0.000 C 
ATOM     34  O   UNL     1       6.038   1.188  22.048  0.00  0.00    +0.000 OA
ATOM     35  N   UNL     1       4.770   1.161  20.092  0.00  0.00    +0.000 N 
ATOM     36  H   UNL     1       4.373   0.538  19.401  0.00  0.00    +0.000 HD
BRANCH  33  38
ATOM     37  C   UNL     1       6.774  -1.441  21.638  0.00  0.00    +0.000 C 
ATOM     38  C   UNL     1       5.930  -0.812  20.807  0.00  0.00    +0.000 C 
ENDBRANCH  33  38
ENDBRANCH   1  35
TORSDOF 6
ENDMDL
MODEL 8
REMARK VINA RESULT:      -7.7      3.798      5.500
REMARK  Name = 
REMARK  6 active torsions:
REMARK  status: ('A' for Active; 'I' for Inactive)
REMARK    1  A    between atoms: C_2  and  C_3
REMARK    2  A    between atoms: N_5  and  C_6
REMARK    3  A    between atoms: C_16  and  C_17
REMARK    4  A    between atoms: C_20  and  C_21
REMARK    5  A    between atoms: C_24  and  O_25
REMARK    6  A    between atoms: O_25  and  C_26
REMARK                            x       y       z     vdW  Elec       q    Type
REMARK                         _______ _______ _______ _____ _____    ______ ____
ROOT
ATOM      1  C   UNL     1       4.237   5.566  16.837  0.00  0.00    +0.000 A 
ATOM      2  C   UNL     1       4.203   6.954  16.710  0.00  0.00    +0.000 A 
ATOM      3  C   UNL     1       3.362   7.727  17.512  0.00  0.00    +0.000 A 
ATOM      4  C   UNL     1       2.542   7.124  18.476  0.00  0.00    +0.000 A 
ATOM      5  C   UNL     1       2.492   5.717  18.575  0.00  0.00    +0.000 A 
ATOM      6  C   UNL     1       3.339   4.959  17.729  0.00  0.00    +0.000 A 
ATOM      7  C   UNL     1       1.455   4.964  19.382  0.00  0.00    +0.000 C 
ATOM      8  C   UNL     1       1.225   5.321  20.850  0.00  0.00    +0.000 C 
ATOM      9  C   UNL     1       2.004   6.507  21.369  0.00  0.00    +0.000 C 
ATOM     10  C   UNL     1       1.572   7.765  20.704  0.00  0.00    +0.000 A 
ATOM     11  C   UNL     1       0.928   8.908  21.179  0.00  0.00    +0.000 A 
ATOM     12  C   UNL     1       0.880   9.794  20.042  0.00  0.00    +0.000 A 
ATOM     13  N   UNL     1       1.508   9.243  18.991  0.00  0.00    +0.000 NA
ATOM     14  N   UNL     1       1.846   7.992  19.370  0.00  0.00    +0.000 N 
ENDROOT
BRANCH  12  15
ATOM     15  C   UNL     1       0.388  11.183  19.940  0.00  0.00    +0.000 A 
ATOM     16  C   UNL     1      -0.096  11.695  18.722  0.00  0.00    +0.000 A 
ATOM     17  C   UNL     1      -0.425  13.055  18.587  0.00  0.00    +0.000 A 
ATOM     18  C   UNL     1      -0.266  13.926  19.662  0.00  0.00    +0.000 A 
ATOM     19  C   UNL     1       0.187  13.420  20.878  0.00  0.00    +0.000 A 
ATOM     20  C   UNL     1       0.432  12.054  21.027  0.00  0.00    +0.000 A 
BRANCH  18  21
ATOM     21  O   UNL     1      -0.540  15.260  19.435  0.00  0.00    +0.000 OA
BRANCH  21  22
ATOM     22  C   UNL     1       0.345  16.003  18.680  0.00  0.00    +0.000 A 
ATOM     23  C   UNL     1       1.680  15.595  18.670  0.00  0.00    +0.000 A 
ATOM     24  C   UNL     1       2.626  16.332  17.951  0.00  0.00    +0.000 A 
ATOM     25  C   UNL     1       2.238  17.470  17.245  0.00  0.00    +0.000 A 
ATOM     26  C   UNL     1       0.901  17.855  17.225  0.00  0.00    +0.000 A 
ATOM     27  C   UNL     1      -0.051  17.103  17.913  0.00  0.00    +0.000 A 
ENDBRANCH  21  22
ENDBRANCH  18  21
ENDBRANCH  12  15
BRANCH  11  28
ATOM     28  C   UNL     1       0.454   9.114  22.544  0.00  0.00    +0.000 C 
ATOM     29  N   UNL     1      -0.849   8.798  22.799  0.00  0.00    +0.000 N 
ATOM     30  O   UNL     1       1.127   9.557  23.467  0.00  0.00    +0.000 OA
ATOM     31  H   UNL     1      -1.427   8.286  22.153  0.00  0.00    +0.000 HD
ATOM     32  H   UNL     1      -1.156   8.910  23.755  0.00  0.00    +0.000 HD
ENDBRANCH  11  28
BRANCH   1  35
ATOM     33  C   UNL     1       5.784   5.130  14.947  0.00  0.00    +0.000 C 
ATOM     34  O   UNL     1       5.772   6.237  14.428  0.00  0.00    +0.000 OA
ATOM     35  N   UNL     1       5.116   4.744  16.094  0.00  0.00    +0.000 N 
ATOM     36  H   UNL     1       5.335   3.842  16.496  0.00  0.00    +0.000 HD
BRANCH  33  38
ATOM     37  C   UNL     1       6.294   3.492  13.207  0.00  0.00    +0.000 C 
ATOM     38  C   UNL     1       6.639   4.046  14.378  0.00  0.00    +0.000 C 
ENDBRANCH  33  38
ENDBRANCH   1  35
TORSDOF 6
ENDMDL
MODEL 9
REMARK VINA RESULT:      -7.7      3.565     11.468
REMARK  Name = 
REMARK  6 active torsions:
REMARK  status: ('A' for Active; 'I' for Inactive)
REMARK    1  A    between atoms: C_2  and  C_3
REMARK    2  A    between atoms: N_5  and  C_6
REMARK    3  A    between atoms: C_16  and  C_17
REMARK    4  A    between atoms: C_20  and  C_21
REMARK    5  A    between atoms: C_24  and  O_25
REMARK    6  A    between atoms: O_25  and  C_26
REMARK                            x       y       z     vdW  Elec       q    Type
REMARK                         _______ _______ _______ _____ _____    ______ ____
ROOT
ATOM      1  C   UNL     1      -2.417  14.865  23.673  0.00  0.00    +0.000 A 
ATOM      2  C   UNL     1      -1.166  14.317  23.396  0.00  0.00    +0.000 A 
ATOM      3  C   UNL     1      -1.018  13.319  22.432  0.00  0.00    +0.000 A 
ATOM      4  C   UNL     1      -2.125  12.855  21.709  0.00  0.00    +0.000 A 
ATOM      5  C   UNL     1      -3.417  13.331  22.020  0.00  0.00    +0.000 A 
ATOM      6  C   UNL     1      -3.537  14.325  23.022  0.00  0.00    +0.000 A 
ATOM      7  C   UNL     1      -4.695  12.708  21.498  0.00  0.00    +0.000 C 
ATOM      8  C   UNL     1      -4.874  12.481  19.996  0.00  0.00    +0.000 C 
ATOM      9  C   UNL     1      -3.677  12.812  19.134  0.00  0.00    +0.000 C 
ATOM     10  C   UNL     1      -2.539  11.898  19.422  0.00  0.00    +0.000 A 
ATOM     11  C   UNL     1      -1.900  10.922  18.658  0.00  0.00    +0.000 A 
ATOM     12  C   UNL     1      -0.816  10.464  19.493  0.00  0.00    +0.000 A 
ATOM     13  N   UNL     1      -0.778  11.163  20.637  0.00  0.00    +0.000 NA
ATOM     14  N   UNL     1      -1.865  11.963  20.625  0.00  0.00    +0.000 N 
ENDROOT
BRANCH  12  15
ATOM     15  C   UNL     1       0.258   9.491  19.206  0.00  0.00    +0.000 A 
ATOM     16  C   UNL     1       0.757   8.642  20.210  0.00  0.00    +0.000 A 
ATOM     17  C   UNL     1       1.876   7.823  19.978  0.00  0.00    +0.000 A 
ATOM     18  C   UNL     1       2.521   7.850  18.743  0.00  0.00    +0.000 A 
ATOM     19  C   UNL     1       2.016   8.668  17.737  0.00  0.00    +0.000 A 
ATOM     20  C   UNL     1       0.855   9.414  17.949  0.00  0.00    +0.000 A 
BRANCH  18  21
ATOM     21  O   UNL     1       3.656   7.074  18.612  0.00  0.00    +0.000 OA
BRANCH  21  22
ATOM     22  C   UNL     1       3.521   5.703  18.538  0.00  0.00    +0.000 A 
ATOM     23  C   UNL     1       4.520   4.927  19.129  0.00  0.00    +0.000 A 
ATOM     24  C   UNL     1       4.453   3.532  19.053  0.00  0.00    +0.000 A 
ATOM     25  C   UNL     1       3.391   2.918  18.391  0.00  0.00    +0.000 A 
ATOM     26  C   UNL     1       2.375   3.690  17.835  0.00  0.00    +0.000 A 
ATOM     27  C   UNL     1       2.422   5.080  17.939  0.00  0.00    +0.000 A 
ENDBRANCH  21  22
ENDBRANCH  18  21
ENDBRANCH  12  15
BRANCH  11  28
ATOM     28  C   UNL     1      -2.274  10.516  17.307  0.00  0.00    +0.000 C 
ATOM     29  N   UNL     1      -2.157  11.455  16.325  0.00  0.00    +0.000 N 
ATOM     30  O   UNL     1      -2.695   9.409  16.994  0.00  0.00    +0.000 OA
ATOM     31  H   UNL     1      -1.678  12.331  16.456  0.00  0.00    +0.000 HD
ATOM     32  H   UNL     1      -2.384  11.152  15.388  0.00  0.00    +0.000 HD
ENDBRANCH  11  28
BRANCH   1  35
ATOM     33  C   UNL     1      -2.953  17.217  24.253  0.00  0.00    +0.000 C 
ATOM     34  O   UNL     1      -3.195  17.642  23.133  0.00  0.00    +0.000 OA
ATOM     35  N   UNL     1      -2.611  15.922  24.594  0.00  0.00    +0.000 N 
ATOM     36  H   UNL     1      -2.587  15.675  25.574  0.00  0.00    +0.000 HD
BRANCH  33  38
ATOM     37  C   UNL     1      -4.285  18.630  25.736  0.00  0.00    +0.000 C 
ATOM     38  C   UNL     1      -3.083  18.116  25.438  0.00  0.00    +0.000 C 
ENDBRANCH  33  38
ENDBRANCH   1  35
TORSDOF 6
ENDMDL
