MODEL 1
REMARK VINA RESULT:      -8.2      0.000      0.000
REMARK  Name = 
REMARK  8 active torsions:
REMARK  status: ('A' for Active; 'I' for Inactive)
REMARK    1  A    between atoms: N_3  and  C_4
REMARK    2  A    between atoms: C_4  and  C_5
REMARK    3  A    between atoms: C_7  and  C_8
REMARK    4  A    between atoms: C_10  and  C_11
REMARK    5  A    between atoms: C_11  and  O_12
REMARK    6  A    between atoms: C_13  and  O_14
REMARK    7  A    between atoms: C_15  and  O_16
REMARK    8  A    between atoms: C_17  and  O_18
REMARK                            x       y       z     vdW  Elec       q    Type
REMARK                         _______ _______ _______ _____ _____    ______ ____
ROOT
ATOM      1  C   UNL     1       4.267   4.739  18.100  0.00  0.00    +0.000 A 
ATOM      2  C   UNL     1       3.941   6.079  18.373  0.00  0.00    +0.000 A 
ATOM      3  C   UNL     1       2.642   6.463  18.743  0.00  0.00    +0.000 A 
ATOM      4  C   UNL     1       1.634   5.490  18.749  0.00  0.00    +0.000 A 
ATOM      5  C   UNL     1       1.929   4.165  18.421  0.00  0.00    +0.000 A 
ATOM      6  C   UNL     1       3.240   3.787  18.120  0.00  0.00    +0.000 A 
ATOM      7 CL   UNL     1       3.533   2.112  17.818  0.00  0.00    +0.000 Cl
ENDROOT
BRANCH   3   8
ATOM      8  C   UNL     1       2.355   7.864  19.252  0.00  0.00    +0.000 C 
ATOM      9  O   UNL     1       1.565   7.754  20.442  0.00  0.00    +0.000 OA
ATOM     10  C   UNL     1       1.268   9.009  21.051  0.00  0.00    +0.000 C 
ATOM     11  C   UNL     1       0.454   9.897  20.097  0.00  0.00    +0.000 C 
ATOM     12  C   UNL     1       1.203  10.063  18.764  0.00  0.00    +0.000 C 
ATOM     13  C   UNL     1       1.617   8.700  18.177  0.00  0.00    +0.000 C 
BRANCH  11  14
ATOM     14  O   UNL     1       0.183  11.167  20.703  0.00  0.00    +0.000 OA
ATOM     15  H   UNL     1      -0.767  11.363  20.598  0.00  0.00    +0.000 HD
ENDBRANCH  11  14
BRANCH  12  16
ATOM     16  O   UNL     1       0.404  10.802  17.831  0.00  0.00    +0.000 OA
ATOM     17  H   UNL     1      -0.389  10.277  17.622  0.00  0.00    +0.000 HD
ENDBRANCH  12  16
BRANCH  13  18
ATOM     18  O   UNL     1       2.427   8.901  17.008  0.00  0.00    +0.000 OA
ATOM     19  H   UNL     1       3.184   8.293  17.038  0.00  0.00    +0.000 HD
ENDBRANCH  13  18
BRANCH  10  20
ATOM     20  C   UNL     1       0.508   8.730  22.358  0.00  0.00    +0.000 C 
BRANCH  20  21
ATOM     21  O   UNL     1       0.557   9.826  23.262  0.00  0.00    +0.000 OA
ATOM     22  H   UNL     1      -0.235  10.378  23.087  0.00  0.00    +0.000 HD
ENDBRANCH  20  21
ENDBRANCH  10  20
ENDBRANCH   3   8
BRANCH   1  23
ATOM     23  C   UNL     1       5.727   4.379  17.944  0.00  0.00    +0.000 C 
BRANCH  23  26
ATOM     24  O   UNL     1       7.670   6.191  16.541  0.00  0.00    +0.000 OA
ATOM     25  C   UNL     1       7.036   5.317  15.975  0.00  0.00    +0.000 A 
ATOM     26  N   UNL     1       6.139   4.403  16.556  0.00  0.00    +0.000 N 
ATOM     27  N   UNL     1       5.659   3.515  15.595  0.00  0.00    +0.000 NA
ATOM     28  C   UNL     1       6.232   3.916  14.502  0.00  0.00    +0.000 A 
ATOM     29  C   UNL     1       6.100   3.338  13.146  0.00  0.00    +0.000 A 
ATOM     30  C   UNL     1       6.778   3.924  12.145  0.00  0.00    +0.000 A 
ATOM     31  C   UNL     1       7.606   5.091  12.376  0.00  0.00    +0.000 A 
ATOM     32  C   UNL     1       7.733   5.588  13.617  0.00  0.00    +0.000 A 
ATOM     33  N   UNL     1       7.053   4.988  14.640  0.00  0.00    +0.000 N 
ENDBRANCH  23  26
ENDBRANCH   1  23
TORSDOF 8
ENDMDL
MODEL 2
REMARK VINA RESULT:      -7.9      1.067      1.101
REMARK  Name = 
REMARK  8 active torsions:
REMARK  status: ('A' for Active; 'I' for Inactive)
REMARK    1  A    between atoms: N_3  and  C_4
REMARK    2  A    between atoms: C_4  and  C_5
REMARK    3  A    between atoms: C_7  and  C_8
REMARK    4  A    between atoms: C_10  and  C_11
REMARK    5  A    between atoms: C_11  and  O_12
REMARK    6  A    between atoms: C_13  and  O_14
REMARK    7  A    between atoms: C_15  and  O_16
REMARK    8  A    between atoms: C_17  and  O_18
REMARK                            x       y       z     vdW  Elec       q    Type
REMARK                         _______ _______ _______ _____ _____    ______ ____
ROOT
ATOM      1  C   UNL     1       4.069   4.735  19.319  0.00  0.00    +0.000 A 
ATOM      2  C   UNL     1       3.661   6.080  19.348  0.00  0.00    +0.000 A 
ATOM      3  C   UNL     1       2.379   6.454  19.781  0.00  0.00    +0.000 A 
ATOM      4  C   UNL     1       1.462   5.446  20.104  0.00  0.00    +0.000 A 
ATOM      5  C   UNL     1       1.831   4.103  20.022  0.00  0.00    +0.000 A 
ATOM      6  C   UNL     1       3.132   3.748  19.652  0.00  0.00    +0.000 A 
ATOM      7 CL   UNL     1       3.531   2.069  19.668  0.00  0.00    +0.000 Cl
ENDROOT
BRANCH   3   8
ATOM      8  C   UNL     1       2.030   7.912  20.024  0.00  0.00    +0.000 C 
ATOM      9  O   UNL     1       1.091   7.973  21.104  0.00  0.00    +0.000 OA
ATOM     10  C   UNL     1       0.718   9.302  21.465  0.00  0.00    +0.000 C 
ATOM     11  C   UNL     1       0.037  10.015  20.286  0.00  0.00    +0.000 C 
ATOM     12  C   UNL     1       0.955   9.986  19.053  0.00  0.00    +0.000 C 
ATOM     13  C   UNL     1       1.440   8.557  18.744  0.00  0.00    +0.000 C 
BRANCH  11  14
ATOM     14  O   UNL     1      -0.309  11.359  20.645  0.00  0.00    +0.000 OA
ATOM     15  H   UNL     1       0.431  11.945  20.396  0.00  0.00    +0.000 HD
ENDBRANCH  11  14
BRANCH  12  16
ATOM     16  O   UNL     1       0.287  10.556  17.919  0.00  0.00    +0.000 OA
ATOM     17  H   UNL     1       0.432   9.974  17.153  0.00  0.00    +0.000 HD
ENDBRANCH  12  16
BRANCH  13  18
ATOM     18  O   UNL     1       2.398   8.589  17.674  0.00  0.00    +0.000 OA
ATOM     19  H   UNL     1       2.550   7.684  17.357  0.00  0.00    +0.000 HD
ENDBRANCH  13  18
BRANCH  10  20
ATOM     20  C   UNL     1      -0.207   9.214  22.689  0.00  0.00    +0.000 C 
BRANCH  20  21
ATOM     21  O   UNL     1      -0.264  10.433  23.418  0.00  0.00    +0.000 OA
ATOM     22  H   UNL     1      -1.127  10.852  23.211  0.00  0.00    +0.000 HD
ENDBRANCH  20  21
ENDBRANCH  10  20
ENDBRANCH   3   8
BRANCH   1  23
ATOM     23  C   UNL     1       5.530   4.438  19.069  0.00  0.00    +0.000 C 
BRANCH  23  26
ATOM     24  O   UNL     1       7.798   5.691  17.548  0.00  0.00    +0.000 OA
ATOM     25  C   UNL     1       6.908   5.047  17.021  0.00  0.00    +0.000 A 
ATOM     26  N   UNL     1       5.834   4.396  17.655  0.00  0.00    +0.000 N 
ATOM     27  N   UNL     1       5.060   3.711  16.721  0.00  0.00    +0.000 NA
ATOM     28  C   UNL     1       5.645   3.976  15.593  0.00  0.00    +0.000 A 
ATOM     29  C   UNL     1       5.262   3.506  14.243  0.00  0.00    +0.000 A 
ATOM     30  C   UNL     1       6.006   3.917  13.201  0.00  0.00    +0.000 A 
ATOM     31  C   UNL     1       7.140   4.800  13.385  0.00  0.00    +0.000 A 
ATOM     32  C   UNL     1       7.486   5.198  14.621  0.00  0.00    +0.000 A 
ATOM     33  N   UNL     1       6.740   4.773  15.684  0.00  0.00    +0.000 N 
ENDBRANCH  23  26
ENDBRANCH   1  23
TORSDOF 8
ENDMDL
MODEL 3
REMARK VINA RESULT:      -7.7      4.657      8.758
REMARK  Name = 
REMARK  8 active torsions:
REMARK  status: ('A' for Active; 'I' for Inactive)
REMARK    1  A    between atoms: N_3  and  C_4
REMARK    2  A    between atoms: C_4  and  C_5
REMARK    3  A    between atoms: C_7  and  C_8
REMARK    4  A    between atoms: C_10  and  C_11
REMARK    5  A    between atoms: C_11  and  O_12
REMARK    6  A    between atoms: C_13  and  O_14
REMARK    7  A    between atoms: C_15  and  O_16
REMARK    8  A    between atoms: C_17  and  O_18
REMARK                            x       y       z     vdW  Elec       q    Type
REMARK                         _______ _______ _______ _____ _____    ______ ____
ROOT
ATOM      1  C   UNL     1       1.541   9.260  19.209  0.00  0.00    +0.000 A 
ATOM      2  C   UNL     1       2.127   8.147  18.579  0.00  0.00    +0.000 A 
ATOM      3  C   UNL     1       2.279   6.919  19.241  0.00  0.00    +0.000 A 
ATOM      4  C   UNL     1       1.916   6.839  20.592  0.00  0.00    +0.000 A 
ATOM      5  C   UNL     1       1.390   7.952  21.250  0.00  0.00    +0.000 A 
ATOM      6  C   UNL     1       1.183   9.149  20.558  0.00  0.00    +0.000 A 
ATOM      7 CL   UNL     1       0.439  10.446  21.422  0.00  0.00    +0.000 Cl
ENDROOT
BRANCH   3   8
ATOM      8  C   UNL     1       2.700   5.670  18.487  0.00  0.00    +0.000 C 
ATOM      9  O   UNL     1       1.863   4.588  18.911  0.00  0.00    +0.000 OA
ATOM     10  C   UNL     1       2.126   3.360  18.235  0.00  0.00    +0.000 C 
ATOM     11  C   UNL     1       3.567   2.893  18.497  0.00  0.00    +0.000 C 
ATOM     12  C   UNL     1       4.559   3.999  18.098  0.00  0.00    +0.000 C 
ATOM     13  C   UNL     1       4.192   5.346  18.748  0.00  0.00    +0.000 C 
BRANCH  11  14
ATOM     14  O   UNL     1       3.835   1.675  17.792  0.00  0.00    +0.000 OA
ATOM     15  H   UNL     1       4.774   1.443  17.923  0.00  0.00    +0.000 HD
ENDBRANCH  11  14
BRANCH  12  16
ATOM     16  O   UNL     1       5.898   3.614  18.437  0.00  0.00    +0.000 OA
ATOM     17  H   UNL     1       6.358   4.390  18.801  0.00  0.00    +0.000 HD
ENDBRANCH  12  16
BRANCH  13  18
ATOM     18  O   UNL     1       5.057   6.379  18.248  0.00  0.00    +0.000 OA
ATOM     19  H   UNL     1       5.528   6.788  18.992  0.00  0.00    +0.000 HD
ENDBRANCH  13  18
BRANCH  10  20
ATOM     20  C   UNL     1       1.096   2.327  18.718  0.00  0.00    +0.000 C 
BRANCH  20  21
ATOM     21  O   UNL     1       0.382   2.764  19.867  0.00  0.00    +0.000 OA
ATOM     22  H   UNL     1       0.976   2.644  20.638  0.00  0.00    +0.000 HD
ENDBRANCH  20  21
ENDBRANCH  10  20
ENDBRANCH   3   8
BRANCH   1  23
ATOM     23  C   UNL     1       1.200  10.462  18.358  0.00  0.00    +0.000 C 
BRANCH  23  26
ATOM     24  O   UNL     1      -0.455  12.785  19.303  0.00  0.00    +0.000 OA
ATOM     25  C   UNL     1      -0.928  11.788  18.785  0.00  0.00    +0.000 A 
ATOM     26  N   UNL     1      -0.230  10.675  18.281  0.00  0.00    +0.000 N 
ATOM     27  N   UNL     1      -1.115   9.764  17.709  0.00  0.00    +0.000 NA
ATOM     28  C   UNL     1      -2.276  10.312  17.898  0.00  0.00    +0.000 A 
ATOM     29  C   UNL     1      -3.600   9.793  17.489  0.00  0.00    +0.000 A 
ATOM     30  C   UNL     1      -4.685  10.523  17.801  0.00  0.00    +0.000 A 
ATOM     31  C   UNL     1      -4.570  11.773  18.524  0.00  0.00    +0.000 A 
ATOM     32  C   UNL     1      -3.358  12.240  18.867  0.00  0.00    +0.000 A 
ATOM     33  N   UNL     1      -2.252  11.507  18.542  0.00  0.00    +0.000 N 
ENDBRANCH  23  26
ENDBRANCH   1  23
TORSDOF 8
ENDMDL
MODEL 4
REMARK VINA RESULT:      -7.3      1.273      1.613
REMARK  Name = 
REMARK  8 active torsions:
REMARK  status: ('A' for Active; 'I' for Inactive)
REMARK    1  A    between atoms: N_3  and  C_4
REMARK    2  A    between atoms: C_4  and  C_5
REMARK    3  A    between atoms: C_7  and  C_8
REMARK    4  A    between atoms: C_10  and  C_11
REMARK    5  A    between atoms: C_11  and  O_12
REMARK    6  A    between atoms: C_13  and  O_14
REMARK    7  A    between atoms: C_15  and  O_16
REMARK    8  A    between atoms: C_17  and  O_18
REMARK                            x       y       z     vdW  Elec       q    Type
REMARK                         _______ _______ _______ _____ _____    ______ ____
ROOT
ATOM      1  C   UNL     1       4.521   4.938  19.050  0.00  0.00    +0.000 A 
ATOM      2  C   UNL     1       3.964   6.229  19.020  0.00  0.00    +0.000 A 
ATOM      3  C   UNL     1       2.707   6.504  19.582  0.00  0.00    +0.000 A 
ATOM      4  C   UNL     1       1.960   5.440  20.103  0.00  0.00    +0.000 A 
ATOM      5  C   UNL     1       2.473   4.142  20.085  0.00  0.00    +0.000 A 
ATOM      6  C   UNL     1       3.753   3.895  19.582  0.00  0.00    +0.000 A 
ATOM      7 CL   UNL     1       4.347   2.277  19.685  0.00  0.00    +0.000 Cl
ENDROOT
BRANCH   3   8
ATOM      8  C   UNL     1       2.220   7.933  19.746  0.00  0.00    +0.000 C 
ATOM      9  O   UNL     1       1.315   7.972  20.856  0.00  0.00    +0.000 OA
ATOM     10  C   UNL     1       0.820   9.278  21.147  0.00  0.00    +0.000 C 
ATOM     11  C   UNL     1       0.033   9.840  19.953  0.00  0.00    +0.000 C 
ATOM     12  C   UNL     1       0.908   9.821  18.689  0.00  0.00    +0.000 C 
ATOM     13  C   UNL     1       1.526   8.430  18.452  0.00  0.00    +0.000 C 
BRANCH  11  14
ATOM     14  O   UNL     1      -0.436  11.164  20.240  0.00  0.00    +0.000 OA
ATOM     15  H   UNL     1      -0.623  11.223  21.196  0.00  0.00    +0.000 HD
ENDBRANCH  11  14
BRANCH  12  16
ATOM     16  O   UNL     1       0.149  10.244  17.549  0.00  0.00    +0.000 OA
ATOM     17  H   UNL     1      -0.778  10.358  17.822  0.00  0.00    +0.000 HD
ENDBRANCH  12  16
BRANCH  13  18
ATOM     18  O   UNL     1       2.440   8.485  17.346  0.00  0.00    +0.000 OA
ATOM     19  H   UNL     1       3.212   7.931  17.543  0.00  0.00    +0.000 HD
ENDBRANCH  13  18
BRANCH  10  20
ATOM     20  C   UNL     1      -0.051   9.181  22.409  0.00  0.00    +0.000 C 
BRANCH  20  21
ATOM     21  O   UNL     1      -0.092  10.400  23.139  0.00  0.00    +0.000 OA
ATOM     22  H   UNL     1      -0.904  10.380  23.687  0.00  0.00    +0.000 HD
ENDBRANCH  20  21
ENDBRANCH  10  20
ENDBRANCH   3   8
BRANCH   1  23
ATOM     23  C   UNL     1       5.967   4.777  18.641  0.00  0.00    +0.000 C 
BRANCH  23  26
ATOM     24  O   UNL     1       4.186   3.490  16.591  0.00  0.00    +0.000 OA
ATOM     25  C   UNL     1       5.237   4.042  16.318  0.00  0.00    +0.000 A 
ATOM     26  N   UNL     1       6.111   4.700  17.202  0.00  0.00    +0.000 N 
ATOM     27  N   UNL     1       7.178   5.260  16.504  0.00  0.00    +0.000 NA
ATOM     28  C   UNL     1       6.947   4.918  15.274  0.00  0.00    +0.000 A 
ATOM     29  C   UNL     1       7.754   5.243  14.077  0.00  0.00    +0.000 A 
ATOM     30  C   UNL     1       7.336   4.770  12.890  0.00  0.00    +0.000 A 
ATOM     31  C   UNL     1       6.140   3.959  12.781  0.00  0.00    +0.000 A 
ATOM     32  C   UNL     1       5.407   3.694  13.875  0.00  0.00    +0.000 A 
ATOM     33  N   UNL     1       5.823   4.182  15.082  0.00  0.00    +0.000 N 
ENDBRANCH  23  26
ENDBRANCH   1  23
TORSDOF 8
ENDMDL
MODEL 5
REMARK VINA RESULT:      -7.3      1.601      2.047
REMARK  Name = 
REMARK  8 active torsions:
REMARK  status: ('A' for Active; 'I' for Inactive)
REMARK    1  A    between atoms: N_3  and  C_4
REMARK    2  A    between atoms: C_4  and  C_5
REMARK    3  A    between atoms: C_7  and  C_8
REMARK    4  A    between atoms: C_10  and  C_11
REMARK    5  A    between atoms: C_11  and  O_12
REMARK    6  A    between atoms: C_13  and  O_14
REMARK    7  A    between atoms: C_15  and  O_16
REMARK    8  A    between atoms: C_17  and  O_18
REMARK                            x       y       z     vdW  Elec       q    Type
REMARK                         _______ _______ _______ _____ _____    ______ ____
ROOT
ATOM      1  C   UNL     1       3.493   4.502  19.662  0.00  0.00    +0.000 A 
ATOM      2  C   UNL     1       3.275   5.891  19.618  0.00  0.00    +0.000 A 
ATOM      3  C   UNL     1       2.063   6.462  20.037  0.00  0.00    +0.000 A 
ATOM      4  C   UNL     1       1.020   5.610  20.423  0.00  0.00    +0.000 A 
ATOM      5  C   UNL     1       1.199   4.226  20.413  0.00  0.00    +0.000 A 
ATOM      6  C   UNL     1       2.433   3.675  20.057  0.00  0.00    +0.000 A 
ATOM      7 CL   UNL     1       2.597   1.960  20.164  0.00  0.00    +0.000 Cl
ENDROOT
BRANCH   3   8
ATOM      8  C   UNL     1       1.922   7.965  20.199  0.00  0.00    +0.000 C 
ATOM      9  O   UNL     1       0.937   8.215  21.208  0.00  0.00    +0.000 OA
ATOM     10  C   UNL     1       0.745   9.600  21.492  0.00  0.00    +0.000 C 
ATOM     11  C   UNL     1       0.254  10.349  20.242  0.00  0.00    +0.000 C 
ATOM     12  C   UNL     1       1.233  10.126  19.078  0.00  0.00    +0.000 C 
ATOM     13  C   UNL     1       1.517   8.628  18.858  0.00  0.00    +0.000 C 
BRANCH  11  14
ATOM     14  O   UNL     1       0.092  11.744  20.526  0.00  0.00    +0.000 OA
ATOM     15  H   UNL     1      -0.367  11.833  21.383  0.00  0.00    +0.000 HD
ENDBRANCH  11  14
BRANCH  12  16
ATOM     16  O   UNL     1       0.730  10.732  17.880  0.00  0.00    +0.000 OA
ATOM     17  H   UNL     1      -0.067  10.248  17.601  0.00  0.00    +0.000 HD
ENDBRANCH  12  16
BRANCH  13  18
ATOM     18  O   UNL     1       2.533   8.467  17.856  0.00  0.00    +0.000 OA
ATOM     19  H   UNL     1       2.781   9.341  17.511  0.00  0.00    +0.000 HD
ENDBRANCH  13  18
BRANCH  10  20
ATOM     20  C   UNL     1      -0.258   9.709  22.652  0.00  0.00    +0.000 C 
BRANCH  20  21
ATOM     21  O   UNL     1       0.376   9.692  23.924  0.00  0.00    +0.000 OA
ATOM     22  H   UNL     1       0.856  10.542  24.018  0.00  0.00    +0.000 HD
ENDBRANCH  20  21
ENDBRANCH  10  20
ENDBRANCH   3   8
BRANCH   1  23
ATOM     23  C   UNL     1       4.895   3.993  19.421  0.00  0.00    +0.000 C 
BRANCH  23  26
ATOM     24  O   UNL     1       3.484   3.166  16.900  0.00  0.00    +0.000 OA
ATOM     25  C   UNL     1       4.579   3.701  16.914  0.00  0.00    +0.000 A 
ATOM     26  N   UNL     1       5.293   4.154  18.038  0.00  0.00    +0.000 N 
ATOM     27  N   UNL     1       6.480   4.769  17.645  0.00  0.00    +0.000 NA
ATOM     28  C   UNL     1       6.466   4.652  16.353  0.00  0.00    +0.000 A 
ATOM     29  C   UNL     1       7.481   5.133  15.390  0.00  0.00    +0.000 A 
ATOM     30  C   UNL     1       7.273   4.890  14.084  0.00  0.00    +0.000 A 
ATOM     31  C   UNL     1       6.100   4.173  13.628  0.00  0.00    +0.000 A 
ATOM     32  C   UNL     1       5.177   3.764  14.515  0.00  0.00    +0.000 A 
ATOM     33  N   UNL     1       5.380   4.018  15.842  0.00  0.00    +0.000 N 
ENDBRANCH  23  26
ENDBRANCH   1  23
TORSDOF 8
ENDMDL
MODEL 6
REMARK VINA RESULT:      -7.3      4.501      8.530
REMARK  Name = 
REMARK  8 active torsions:
REMARK  status: ('A' for Active; 'I' for Inactive)
REMARK    1  A    between atoms: N_3  and  C_4
REMARK    2  A    between atoms: C_4  and  C_5
REMARK    3  A    between atoms: C_7  and  C_8
REMARK    4  A    between atoms: C_10  and  C_11
REMARK    5  A    between atoms: C_11  and  O_12
REMARK    6  A    between atoms: C_13  and  O_14
REMARK    7  A    between atoms: C_15  and  O_16
REMARK    8  A    between atoms: C_17  and  O_18
REMARK                            x       y       z     vdW  Elec       q    Type
REMARK                         _______ _______ _______ _____ _____    ______ ____
ROOT
ATOM      1  C   UNL     1       1.311   9.272  19.855  0.00  0.00    +0.000 A 
ATOM      2  C   UNL     1       2.054   8.425  19.013  0.00  0.00    +0.000 A 
ATOM      3  C   UNL     1       2.205   7.057  19.288  0.00  0.00    +0.000 A 
ATOM      4  C   UNL     1       1.672   6.552  20.482  0.00  0.00    +0.000 A 
ATOM      5  C   UNL     1       0.984   7.392  21.359  0.00  0.00    +0.000 A 
ATOM      6  C   UNL     1       0.785   8.738  21.038  0.00  0.00    +0.000 A 
ATOM      7 CL   UNL     1      -0.158   9.683  22.133  0.00  0.00    +0.000 Cl
ENDROOT
BRANCH   3   8
ATOM      8  C   UNL     1       2.811   6.115  18.263  0.00  0.00    +0.000 C 
ATOM      9  O   UNL     1       3.185   4.906  18.934  0.00  0.00    +0.000 OA
ATOM     10  C   UNL     1       3.726   3.912  18.065  0.00  0.00    +0.000 C 
ATOM     11  C   UNL     1       5.009   4.422  17.388  0.00  0.00    +0.000 C 
ATOM     12  C   UNL     1       4.727   5.743  16.653  0.00  0.00    +0.000 C 
ATOM     13  C   UNL     1       4.038   6.766  17.576  0.00  0.00    +0.000 C 
BRANCH  11  14
ATOM     14  O   UNL     1       5.532   3.431  16.495  0.00  0.00    +0.000 OA
ATOM     15  H   UNL     1       6.310   3.805  16.040  0.00  0.00    +0.000 HD
ENDBRANCH  11  14
BRANCH  12  16
ATOM     16  O   UNL     1       5.939   6.279  16.108  0.00  0.00    +0.000 OA
ATOM     17  H   UNL     1       6.147   5.799  15.287  0.00  0.00    +0.000 HD
ENDBRANCH  12  16
BRANCH  13  18
ATOM     18  O   UNL     1       3.671   7.931  16.821  0.00  0.00    +0.000 OA
ATOM     19  H   UNL     1       3.349   7.656  15.948  0.00  0.00    +0.000 HD
ENDBRANCH  13  18
BRANCH  10  20
ATOM     20  C   UNL     1       3.986   2.648  18.899  0.00  0.00    +0.000 C 
BRANCH  20  21
ATOM     21  O   UNL     1       5.251   2.672  19.547  0.00  0.00    +0.000 OA
ATOM     22  H   UNL     1       5.891   2.235  18.945  0.00  0.00    +0.000 HD
ENDBRANCH  20  21
ENDBRANCH  10  20
ENDBRANCH   3   8
BRANCH   1  23
ATOM     23  C   UNL     1       1.000  10.668  19.366  0.00  0.00    +0.000 C 
BRANCH  23  26
ATOM     24  O   UNL     1      -1.446  12.255  20.093  0.00  0.00    +0.000 OA
ATOM     25  C   UNL     1      -1.400  11.484  19.150  0.00  0.00    +0.000 A 
ATOM     26  N   UNL     1      -0.293  10.732  18.716  0.00  0.00    +0.000 N 
ATOM     27  N   UNL     1      -0.613  10.014  17.567  0.00  0.00    +0.000 NA
ATOM     28  C   UNL     1      -1.858  10.315  17.361  0.00  0.00    +0.000 A 
ATOM     29  C   UNL     1      -2.734   9.845  16.263  0.00  0.00    +0.000 A 
ATOM     30  C   UNL     1      -4.007  10.275  16.249  0.00  0.00    +0.000 A 
ATOM     31  C   UNL     1      -4.516  11.160  17.276  0.00  0.00    +0.000 A 
ATOM     32  C   UNL     1      -3.701  11.595  18.251  0.00  0.00    +0.000 A 
ATOM     33  N   UNL     1      -2.402  11.170  18.263  0.00  0.00    +0.000 N 
ENDBRANCH  23  26
ENDBRANCH   1  23
TORSDOF 8
ENDMDL
MODEL 7
REMARK VINA RESULT:      -7.3      4.594      8.468
REMARK  Name = 
REMARK  8 active torsions:
REMARK  status: ('A' for Active; 'I' for Inactive)
REMARK    1  A    between atoms: N_3  and  C_4
REMARK    2  A    between atoms: C_4  and  C_5
REMARK    3  A    between atoms: C_7  and  C_8
REMARK    4  A    between atoms: C_10  and  C_11
REMARK    5  A    between atoms: C_11  and  O_12
REMARK    6  A    between atoms: C_13  and  O_14
REMARK    7  A    between atoms: C_15  and  O_16
REMARK    8  A    between atoms: C_17  and  O_18
REMARK                            x       y       z     vdW  Elec       q    Type
REMARK                         _______ _______ _______ _____ _____    ______ ____
ROOT
ATOM      1  C   UNL     1       1.100   9.267  19.020  0.00  0.00    +0.000 A 
ATOM      2  C   UNL     1       1.745   8.186  18.393  0.00  0.00    +0.000 A 
ATOM      3  C   UNL     1       2.185   7.067  19.118  0.00  0.00    +0.000 A 
ATOM      4  C   UNL     1       2.053   7.080  20.513  0.00  0.00    +0.000 A 
ATOM      5  C   UNL     1       1.471   8.173  21.157  0.00  0.00    +0.000 A 
ATOM      6  C   UNL     1       0.977   9.250  20.415  0.00  0.00    +0.000 A 
ATOM      7 CL   UNL     1       0.187  10.516  21.283  0.00  0.00    +0.000 Cl
ENDROOT
BRANCH   3   8
ATOM      8  C   UNL     1       2.670   5.816  18.408  0.00  0.00    +0.000 C 
ATOM      9  O   UNL     1       1.872   4.712  18.852  0.00  0.00    +0.000 OA
ATOM     10  C   UNL     1       2.198   3.477  18.217  0.00  0.00    +0.000 C 
ATOM     11  C   UNL     1       3.653   3.080  18.514  0.00  0.00    +0.000 C 
ATOM     12  C   UNL     1       4.603   4.214  18.096  0.00  0.00    +0.000 C 
ATOM     13  C   UNL     1       4.171   5.563  18.700  0.00  0.00    +0.000 C 
BRANCH  11  14
ATOM     14  O   UNL     1       3.983   1.854  17.849  0.00  0.00    +0.000 OA
ATOM     15  H   UNL     1       3.824   1.116  18.468  0.00  0.00    +0.000 HD
ENDBRANCH  11  14
BRANCH  12  16
ATOM     16  O   UNL     1       5.952   3.897  18.466  0.00  0.00    +0.000 OA
ATOM     17  H   UNL     1       6.079   4.137  19.401  0.00  0.00    +0.000 HD
ENDBRANCH  12  16
BRANCH  13  18
ATOM     18  O   UNL     1       4.999   6.616  18.182  0.00  0.00    +0.000 OA
ATOM     19  H   UNL     1       4.692   7.466  18.538  0.00  0.00    +0.000 HD
ENDBRANCH  13  18
BRANCH  10  20
ATOM     20  C   UNL     1       1.205   2.415  18.715  0.00  0.00    +0.000 C 
BRANCH  20  21
ATOM     21  O   UNL     1       0.462   2.851  19.846  0.00  0.00    +0.000 OA
ATOM     22  H   UNL     1       0.837   3.714  20.121  0.00  0.00    +0.000 HD
ENDBRANCH  20  21
ENDBRANCH  10  20
ENDBRANCH   3   8
BRANCH   1  23
ATOM     23  C   UNL     1       0.451  10.314  18.144  0.00  0.00    +0.000 C 
BRANCH  23  26
ATOM     24  O   UNL     1      -0.835  12.921  18.902  0.00  0.00    +0.000 OA
ATOM     25  C   UNL     1       0.354  12.802  18.663  0.00  0.00    +0.000 A 
ATOM     26  N   UNL     1       1.044  11.620  18.339  0.00  0.00    +0.000 N 
ATOM     27  N   UNL     1       2.406  11.875  18.197  0.00  0.00    +0.000 NA
ATOM     28  C   UNL     1       2.495  13.153  18.402  0.00  0.00    +0.000 A 
ATOM     29  C   UNL     1       3.717  13.990  18.384  0.00  0.00    +0.000 A 
ATOM     30  C   UNL     1       3.578  15.308  18.611  0.00  0.00    +0.000 A 
ATOM     31  C   UNL     1       2.278  15.899  18.854  0.00  0.00    +0.000 A 
ATOM     32  C   UNL     1       1.183  15.120  18.889  0.00  0.00    +0.000 A 
ATOM     33  N   UNL     1       1.321  13.779  18.671  0.00  0.00    +0.000 N 
ENDBRANCH  23  26
ENDBRANCH   1  23
TORSDOF 8
ENDMDL
MODEL 8
REMARK VINA RESULT:      -7.2      4.850      9.020
REMARK  Name = 
REMARK  8 active torsions:
REMARK  status: ('A' for Active; 'I' for Inactive)
REMARK    1  A    between atoms: N_3  and  C_4
REMARK    2  A    between atoms: C_4  and  C_5
REMARK    3  A    between atoms: C_7  and  C_8
REMARK    4  A    between atoms: C_10  and  C_11
REMARK    5  A    between atoms: C_11  and  O_12
REMARK    6  A    between atoms: C_13  and  O_14
REMARK    7  A    between atoms: C_15  and  O_16
REMARK    8  A    between atoms: C_17  and  O_18
REMARK                            x       y       z     vdW  Elec       q    Type
REMARK                         _______ _______ _______ _____ _____    ______ ____
ROOT
ATOM      1  C   UNL     1       1.338   9.496  19.221  0.00  0.00    +0.000 A 
ATOM      2  C   UNL     1       1.925   8.433  18.512  0.00  0.00    +0.000 A 
ATOM      3  C   UNL     1       2.160   7.186  19.110  0.00  0.00    +0.000 A 
ATOM      4  C   UNL     1       1.880   7.035  20.474  0.00  0.00    +0.000 A 
ATOM      5  C   UNL     1       1.354   8.099  21.209  0.00  0.00    +0.000 A 
ATOM      6  C   UNL     1       1.064   9.315  20.583  0.00  0.00    +0.000 A 
ATOM      7 CL   UNL     1       0.327  10.546  21.544  0.00  0.00    +0.000 Cl
ENDROOT
BRANCH   3   8
ATOM      8  C   UNL     1       2.580   5.986  18.279  0.00  0.00    +0.000 C 
ATOM      9  O   UNL     1       1.843   4.846  18.736  0.00  0.00    +0.000 OA
ATOM     10  C   UNL     1       2.112   3.655  17.997  0.00  0.00    +0.000 C 
ATOM     11  C   UNL     1       3.594   3.264  18.117  0.00  0.00    +0.000 C 
ATOM     12  C   UNL     1       4.485   4.436  17.673  0.00  0.00    +0.000 C 
ATOM     13  C   UNL     1       4.105   5.741  18.398  0.00  0.00    +0.000 C 
BRANCH  11  14
ATOM     14  O   UNL     1       3.865   2.085  17.350  0.00  0.00    +0.000 OA
ATOM     15  H   UNL     1       4.795   1.829  17.496  0.00  0.00    +0.000 HD
ENDBRANCH  11  14
BRANCH  12  16
ATOM     16  O   UNL     1       5.868   4.119  17.881  0.00  0.00    +0.000 OA
ATOM     17  H   UNL     1       6.317   4.123  17.017  0.00  0.00    +0.000 HD
ENDBRANCH  12  16
BRANCH  13  18
ATOM     18  O   UNL     1       4.864   6.835  17.861  0.00  0.00    +0.000 OA
ATOM     19  H   UNL     1       4.922   6.739  16.897  0.00  0.00    +0.000 HD
ENDBRANCH  13  18
BRANCH  10  20
ATOM     20  C   UNL     1       1.187   2.551  18.531  0.00  0.00    +0.000 C 
BRANCH  20  21
ATOM     21  O   UNL     1       1.905   1.467  19.106  0.00  0.00    +0.000 OA
ATOM     22  H   UNL     1       2.836   1.759  19.204  0.00  0.00    +0.000 HD
ENDBRANCH  20  21
ENDBRANCH  10  20
ENDBRANCH   3   8
BRANCH   1  23
ATOM     23  C   UNL     1       0.905  10.718  18.445  0.00  0.00    +0.000 C 
BRANCH  23  26
ATOM     24  O   UNL     1      -1.286   9.361  16.900  0.00  0.00    +0.000 OA
ATOM     25  C   UNL     1      -1.485  10.248  17.711  0.00  0.00    +0.000 A 
ATOM     26  N   UNL     1      -0.529  10.910  18.504  0.00  0.00    +0.000 N 
ATOM     27  N   UNL     1      -1.150  11.820  19.356  0.00  0.00    +0.000 NA
ATOM     28  C   UNL     1      -2.406  11.710  19.050  0.00  0.00    +0.000 A 
ATOM     29  C   UNL     1      -3.549  12.438  19.645  0.00  0.00    +0.000 A 
ATOM     30  C   UNL     1      -4.778  12.178  19.164  0.00  0.00    +0.000 A 
ATOM     31  C   UNL     1      -4.982  11.224  18.093  0.00  0.00    +0.000 A 
ATOM     32  C   UNL     1      -3.935  10.555  17.582  0.00  0.00    +0.000 A 
ATOM     33  N   UNL     1      -2.686  10.809  18.075  0.00  0.00    +0.000 N 
ENDBRANCH  23  26
ENDBRANCH   1  23
TORSDOF 8
ENDMDL
MODEL 9
REMARK VINA RESULT:      -7.1      4.579      8.604
REMARK  Name = 
REMARK  8 active torsions:
REMARK  status: ('A' for Active; 'I' for Inactive)
REMARK    1  A    between atoms: N_3  and  C_4
REMARK    2  A    between atoms: C_4  and  C_5
REMARK    3  A    between atoms: C_7  and  C_8
REMARK    4  A    between atoms: C_10  and  C_11
REMARK    5  A    between atoms: C_11  and  O_12
REMARK    6  A    between atoms: C_13  and  O_14
REMARK    7  A    between atoms: C_15  and  O_16
REMARK    8  A    between atoms: C_17  and  O_18
REMARK                            x       y       z     vdW  Elec       q    Type
REMARK                         _______ _______ _______ _____ _____    ______ ____
ROOT
ATOM      1  C   UNL     1       0.969   9.377  19.268  0.00  0.00    +0.000 A 
ATOM      2  C   UNL     1       1.895   8.414  18.826  0.00  0.00    +0.000 A 
ATOM      3  C   UNL     1       2.309   7.355  19.649  0.00  0.00    +0.000 A 
ATOM      4  C   UNL     1       1.849   7.318  20.972  0.00  0.00    +0.000 A 
ATOM      5  C   UNL     1       0.978   8.300  21.445  0.00  0.00    +0.000 A 
ATOM      6  C   UNL     1       0.522   9.311  20.594  0.00  0.00    +0.000 A 
ATOM      7 CL   UNL     1      -0.627  10.429  21.233  0.00  0.00    +0.000 Cl
ENDROOT
BRANCH   3   8
ATOM      8  C   UNL     1       3.126   6.204  19.091  0.00  0.00    +0.000 C 
ATOM      9  O   UNL     1       4.063   6.737  18.148  0.00  0.00    +0.000 OA
ATOM     10  C   UNL     1       4.932   5.756  17.585  0.00  0.00    +0.000 C 
ATOM     11  C   UNL     1       4.127   4.697  16.812  0.00  0.00    +0.000 C 
ATOM     12  C   UNL     1       3.063   4.072  17.730  0.00  0.00    +0.000 C 
ATOM     13  C   UNL     1       2.208   5.152  18.419  0.00  0.00    +0.000 C 
BRANCH  11  14
ATOM     14  O   UNL     1       5.001   3.698  16.273  0.00  0.00    +0.000 OA
ATOM     15  H   UNL     1       5.919   3.932  16.509  0.00  0.00    +0.000 HD
ENDBRANCH  11  14
BRANCH  12  16
ATOM     16  O   UNL     1       2.239   3.161  16.990  0.00  0.00    +0.000 OA
ATOM     17  H   UNL     1       2.793   2.418  16.694  0.00  0.00    +0.000 HD
ENDBRANCH  12  16
BRANCH  13  18
ATOM     18  O   UNL     1       1.319   4.538  19.366  0.00  0.00    +0.000 OA
ATOM     19  H   UNL     1       1.534   3.593  19.436  0.00  0.00    +0.000 HD
ENDBRANCH  13  18
BRANCH  10  20
ATOM     20  C   UNL     1       5.937   6.481  16.677  0.00  0.00    +0.000 C 
BRANCH  20  21
ATOM     21  O   UNL     1       5.598   6.383  15.300  0.00  0.00    +0.000 OA
ATOM     22  H   UNL     1       5.252   7.259  15.026  0.00  0.00    +0.000 HD
ENDBRANCH  20  21
ENDBRANCH  10  20
ENDBRANCH   3   8
BRANCH   1  23
ATOM     23  C   UNL     1       0.399  10.337  18.249  0.00  0.00    +0.000 C 
BRANCH  23  26
ATOM     24  O   UNL     1      -0.980  12.923  18.911  0.00  0.00    +0.000 OA
ATOM     25  C   UNL     1       0.214  12.836  18.683  0.00  0.00    +0.000 A 
ATOM     26  N   UNL     1       0.947  11.668  18.404  0.00  0.00    +0.000 N 
ATOM     27  N   UNL     1       2.300  11.966  18.261  0.00  0.00    +0.000 NA
ATOM     28  C   UNL     1       2.345  13.252  18.422  0.00  0.00    +0.000 A 
ATOM     29  C   UNL     1       3.537  14.129  18.384  0.00  0.00    +0.000 A 
ATOM     30  C   UNL     1       3.352  15.448  18.565  0.00  0.00    +0.000 A 
ATOM     31  C   UNL     1       2.031  16.002  18.780  0.00  0.00    +0.000 A 
ATOM     32  C   UNL     1       0.963  15.189  18.835  0.00  0.00    +0.000 A 
ATOM     33  N   UNL     1       1.148  13.846  18.663  0.00  0.00    +0.000 N 
ENDBRANCH  23  26
ENDBRANCH   1  23
TORSDOF 8
ENDMDL
