MODEL 1
REMARK VINA RESULT:      -7.0      0.000      0.000
REMARK  Name = 
REMARK  6 active torsions:
REMARK  status: ('A' for Active; 'I' for Inactive)
REMARK    1  A    between atoms: C_1  and  C_2
REMARK    2  A    between atoms: C_2  and  O_3
REMARK    3  A    between atoms: O_3  and  C_4
REMARK    4  A    between atoms: C_7  and  N_8
REMARK    5  A    between atoms: N_11  and  C_12
REMARK    6  A    between atoms: C_12  and  C_13
REMARK                            x       y       z     vdW  Elec       q    Type
REMARK                         _______ _______ _______ _____ _____    ______ ____
ROOT
ATOM      1  N   UNL     1       3.526   5.770  17.698  0.00  0.00    +0.000 N 
ATOM      2  C   UNL     1       4.857   5.864  17.362  0.00  0.00    +0.000 C 
ATOM      3  O   UNL     1       5.633   6.735  17.747  0.00  0.00    +0.000 OA
ATOM      4  N   UNL     1       5.273   4.885  16.494  0.00  0.00    +0.000 N 
ATOM      5  H   UNL     1       3.062   4.896  17.503  0.00  0.00    +0.000 HD
ATOM      6  H   UNL     1       4.805   3.992  16.493  0.00  0.00    +0.000 HD
ENDROOT
BRANCH   1  10
ATOM      7  C   UNL     1       1.391   8.661  19.934  0.00  0.00    +0.000 A 
ATOM      8  C   UNL     1       1.740   7.449  20.519  0.00  0.00    +0.000 A 
ATOM      9  C   UNL     1       2.458   6.497  19.798  0.00  0.00    +0.000 A 
ATOM     10  C   UNL     1       2.825   6.727  18.470  0.00  0.00    +0.000 A 
ATOM     11  C   UNL     1       2.487   7.953  17.887  0.00  0.00    +0.000 A 
ATOM     12  C   UNL     1       1.753   8.908  18.611  0.00  0.00    +0.000 A 
BRANCH   7  13
ATOM     13  O   UNL     1       0.689   9.500  20.749  0.00  0.00    +0.000 OA
BRANCH  13  15
ATOM     14  C   UNL     1       0.034   9.443  23.030  0.00  0.00    +0.000 C 
ATOM     15  C   UNL     1      -0.240   8.891  21.642  0.00  0.00    +0.000 C 
ENDBRANCH  13  15
ENDBRANCH   7  13
ENDBRANCH   1  10
BRANCH   4  16
ATOM     16  C   UNL     1       6.676   4.865  16.124  0.00  0.00    +0.000 C 
BRANCH  16  17
ATOM     17  C   UNL     1       6.893   4.669  14.645  0.00  0.00    +0.000 A 
ATOM     18  C   UNL     1       6.107   3.748  13.949  0.00  0.00    +0.000 A 
ATOM     19  C   UNL     1       6.271   3.625  12.575  0.00  0.00    +0.000 A 
ATOM     20  C   UNL     1       7.213   4.416  11.932  0.00  0.00    +0.000 A 
ATOM     21  C   UNL     1       7.962   5.296  12.696  0.00  0.00    +0.000 A 
ATOM     22  N   UNL     1       7.831   5.438  14.035  0.00  0.00    +0.000 NA
ENDBRANCH  16  17
ENDBRANCH   4  16
TORSDOF 5
ENDMDL
MODEL 2
REMARK VINA RESULT:      -6.8      0.322      1.121
REMARK  Name = 
REMARK  6 active torsions:
REMARK  status: ('A' for Active; 'I' for Inactive)
REMARK    1  A    between atoms: C_1  and  C_2
REMARK    2  A    between atoms: C_2  and  O_3
REMARK    3  A    between atoms: O_3  and  C_4
REMARK    4  A    between atoms: C_7  and  N_8
REMARK    5  A    between atoms: N_11  and  C_12
REMARK    6  A    between atoms: C_12  and  C_13
REMARK                            x       y       z     vdW  Elec       q    Type
REMARK                         _______ _______ _______ _____ _____    ______ ____
ROOT
ATOM      1  N   UNL     1       3.572   5.858  17.688  0.00  0.00    +0.000 N 
ATOM      2  C   UNL     1       4.888   5.978  17.302  0.00  0.00    +0.000 C 
ATOM      3  O   UNL     1       5.625   6.928  17.554  0.00  0.00    +0.000 OA
ATOM      4  N   UNL     1       5.335   4.922  16.547  0.00  0.00    +0.000 N 
ATOM      5  H   UNL     1       3.153   4.943  17.615  0.00  0.00    +0.000 HD
ATOM      6  H   UNL     1       4.917   4.012  16.669  0.00  0.00    +0.000 HD
ENDROOT
BRANCH   1  10
ATOM      7  C   UNL     1       1.417   8.847  19.768  0.00  0.00    +0.000 A 
ATOM      8  C   UNL     1       1.743   9.031  18.429  0.00  0.00    +0.000 A 
ATOM      9  C   UNL     1       2.436   8.045  17.729  0.00  0.00    +0.000 A 
ATOM     10  C   UNL     1       2.839   6.865  18.359  0.00  0.00    +0.000 A 
ATOM     11  C   UNL     1       2.497   6.675  19.702  0.00  0.00    +0.000 A 
ATOM     12  C   UNL     1       1.807   7.673  20.410  0.00  0.00    +0.000 A 
BRANCH   7  13
ATOM     13  O   UNL     1       0.739   9.889  20.332  0.00  0.00    +0.000 OA
BRANCH  13  15
ATOM     14  C   UNL     1      -0.134  10.000  22.537  0.00  0.00    +0.000 C 
ATOM     15  C   UNL     1      -0.407   9.555  21.112  0.00  0.00    +0.000 C 
ENDBRANCH  13  15
ENDBRANCH   7  13
ENDBRANCH   1  10
BRANCH   4  16
ATOM     16  C   UNL     1       6.727   4.928  16.139  0.00  0.00    +0.000 C 
BRANCH  16  17
ATOM     17  C   UNL     1       6.909   4.707  14.659  0.00  0.00    +0.000 A 
ATOM     18  C   UNL     1       6.106   3.775  13.998  0.00  0.00    +0.000 A 
ATOM     19  C   UNL     1       6.237   3.627  12.623  0.00  0.00    +0.000 A 
ATOM     20  C   UNL     1       7.165   4.406  11.944  0.00  0.00    +0.000 A 
ATOM     21  C   UNL     1       7.933   5.298  12.675  0.00  0.00    +0.000 A 
ATOM     22  N   UNL     1       7.833   5.464  14.013  0.00  0.00    +0.000 NA
ENDBRANCH  16  17
ENDBRANCH   4  16
TORSDOF 5
ENDMDL
MODEL 3
REMARK VINA RESULT:      -6.8      4.416      7.200
REMARK  Name = 
REMARK  6 active torsions:
REMARK  status: ('A' for Active; 'I' for Inactive)
REMARK    1  A    between atoms: C_1  and  C_2
REMARK    2  A    between atoms: C_2  and  O_3
REMARK    3  A    between atoms: O_3  and  C_4
REMARK    4  A    between atoms: C_7  and  N_8
REMARK    5  A    between atoms: N_11  and  C_12
REMARK    6  A    between atoms: C_12  and  C_13
REMARK                            x       y       z     vdW  Elec       q    Type
REMARK                         _______ _______ _______ _____ _____    ______ ____
ROOT
ATOM      1  N   UNL     1       6.131   4.180  17.581  0.00  0.00    +0.000 N 
ATOM      2  C   UNL     1       4.792   3.907  17.739  0.00  0.00    +0.000 C 
ATOM      3  O   UNL     1       3.906   4.742  17.905  0.00  0.00    +0.000 OA
ATOM      4  N   UNL     1       4.502   2.565  17.732  0.00  0.00    +0.000 N 
ATOM      5  H   UNL     1       6.715   3.435  17.231  0.00  0.00    +0.000 HD
ATOM      6  H   UNL     1       5.098   1.931  17.223  0.00  0.00    +0.000 HD
ENDROOT
BRANCH   1  10
ATOM      7  C   UNL     1       7.916   8.002  17.913  0.00  0.00    +0.000 A 
ATOM      8  C   UNL     1       6.976   7.759  16.917  0.00  0.00    +0.000 A 
ATOM      9  C   UNL     1       6.368   6.509  16.810  0.00  0.00    +0.000 A 
ATOM     10  C   UNL     1       6.704   5.469  17.681  0.00  0.00    +0.000 A 
ATOM     11  C   UNL     1       7.638   5.721  18.692  0.00  0.00    +0.000 A 
ATOM     12  C   UNL     1       8.258   6.977  18.793  0.00  0.00    +0.000 A 
BRANCH   7  13
ATOM     13  O   UNL     1       8.432   9.266  17.905  0.00  0.00    +0.000 OA
BRANCH  13  15
ATOM     14  C   UNL     1       9.546  11.123  18.877  0.00  0.00    +0.000 C 
ATOM     15  C   UNL     1       9.112   9.683  19.086  0.00  0.00    +0.000 C 
ENDBRANCH  13  15
ENDBRANCH   7  13
ENDBRANCH   1  10
BRANCH   4  16
ATOM     16  C   UNL     1       3.108   2.177  17.836  0.00  0.00    +0.000 C 
BRANCH  16  17
ATOM     17  C   UNL     1       2.505   2.495  19.180  0.00  0.00    +0.000 A 
ATOM     18  C   UNL     1       1.182   2.936  19.255  0.00  0.00    +0.000 A 
ATOM     19  C   UNL     1       0.617   3.163  20.504  0.00  0.00    +0.000 A 
ATOM     20  C   UNL     1       1.382   2.948  21.642  0.00  0.00    +0.000 A 
ATOM     21  C   UNL     1       2.690   2.522  21.482  0.00  0.00    +0.000 A 
ATOM     22  N   UNL     1       3.272   2.296  20.283  0.00  0.00    +0.000 NA
ENDBRANCH  16  17
ENDBRANCH   4  16
TORSDOF 5
ENDMDL
MODEL 4
REMARK VINA RESULT:      -6.7      5.623      7.458
REMARK  Name = 
REMARK  6 active torsions:
REMARK  status: ('A' for Active; 'I' for Inactive)
REMARK    1  A    between atoms: C_1  and  C_2
REMARK    2  A    between atoms: C_2  and  O_3
REMARK    3  A    between atoms: O_3  and  C_4
REMARK    4  A    between atoms: C_7  and  N_8
REMARK    5  A    between atoms: N_11  and  C_12
REMARK    6  A    between atoms: C_12  and  C_13
REMARK                            x       y       z     vdW  Elec       q    Type
REMARK                         _______ _______ _______ _____ _____    ______ ____
ROOT
ATOM      1  N   UNL     1       6.901   7.959  17.011  0.00  0.00    +0.000 N 
ATOM      2  C   UNL     1       7.879   8.328  17.907  0.00  0.00    +0.000 C 
ATOM      3  O   UNL     1       8.391   7.595  18.749  0.00  0.00    +0.000 OA
ATOM      4  N   UNL     1       8.236   9.650  17.814  0.00  0.00    +0.000 N 
ATOM      5  H   UNL     1       6.730   8.581  16.235  0.00  0.00    +0.000 HD
ATOM      6  H   UNL     1       8.142  10.128  16.931  0.00  0.00    +0.000 HD
ENDROOT
BRANCH   1  10
ATOM      7  C   UNL     1       5.088   4.136  16.946  0.00  0.00    +0.000 A 
ATOM      8  C   UNL     1       4.445   5.199  17.572  0.00  0.00    +0.000 A 
ATOM      9  C   UNL     1       5.025   6.466  17.583  0.00  0.00    +0.000 A 
ATOM     10  C   UNL     1       6.269   6.694  16.990  0.00  0.00    +0.000 A 
ATOM     11  C   UNL     1       6.907   5.627  16.348  0.00  0.00    +0.000 A 
ATOM     12  C   UNL     1       6.328   4.347  16.345  0.00  0.00    +0.000 A 
BRANCH   7  13
ATOM     13  O   UNL     1       4.413   2.952  17.009  0.00  0.00    +0.000 OA
BRANCH  13  15
ATOM     14  C   UNL     1       2.349   2.136  17.852  0.00  0.00    +0.000 C 
ATOM     15  C   UNL     1       3.717   2.679  18.223  0.00  0.00    +0.000 C 
ENDBRANCH  13  15
ENDBRANCH   7  13
ENDBRANCH   1  10
BRANCH   4  16
ATOM     16  C   UNL     1       9.301  10.122  18.679  0.00  0.00    +0.000 C 
BRANCH  16  17
ATOM     17  C   UNL     1       9.829  11.476  18.280  0.00  0.00    +0.000 A 
ATOM     18  C   UNL     1      11.135  11.592  17.799  0.00  0.00    +0.000 A 
ATOM     19  C   UNL     1      11.588  12.835  17.373  0.00  0.00    +0.000 A 
ATOM     20  C   UNL     1      10.733  13.927  17.440  0.00  0.00    +0.000 A 
ATOM     21  C   UNL     1       9.457  13.731  17.941  0.00  0.00    +0.000 A 
ATOM     22  N   UNL     1       8.985  12.537  18.368  0.00  0.00    +0.000 NA
ENDBRANCH  16  17
ENDBRANCH   4  16
TORSDOF 5
ENDMDL
MODEL 5
REMARK VINA RESULT:      -6.7      2.532      3.707
REMARK  Name = 
REMARK  6 active torsions:
REMARK  status: ('A' for Active; 'I' for Inactive)
REMARK    1  A    between atoms: C_1  and  C_2
REMARK    2  A    between atoms: C_2  and  O_3
REMARK    3  A    between atoms: O_3  and  C_4
REMARK    4  A    between atoms: C_7  and  N_8
REMARK    5  A    between atoms: N_11  and  C_12
REMARK    6  A    between atoms: C_12  and  C_13
REMARK                            x       y       z     vdW  Elec       q    Type
REMARK                         _______ _______ _______ _____ _____    ______ ____
ROOT
ATOM      1  N   UNL     1       2.650   7.271  20.133  0.00  0.00    +0.000 N 
ATOM      2  C   UNL     1       2.797   6.104  19.417  0.00  0.00    +0.000 C 
ATOM      3  O   UNL     1       2.167   5.800  18.408  0.00  0.00    +0.000 OA
ATOM      4  N   UNL     1       3.720   5.244  19.957  0.00  0.00    +0.000 N 
ATOM      5  H   UNL     1       3.374   7.497  20.798  0.00  0.00    +0.000 HD
ATOM      6  H   UNL     1       4.487   5.614  20.498  0.00  0.00    +0.000 HD
ENDROOT
BRANCH   1  10
ATOM      7  C   UNL     1      -0.265  10.206  19.241  0.00  0.00    +0.000 A 
ATOM      8  C   UNL     1      -0.243   9.608  20.496  0.00  0.00    +0.000 A 
ATOM      9  C   UNL     1       0.724   8.654  20.807  0.00  0.00    +0.000 A 
ATOM     10  C   UNL     1       1.675   8.260  19.862  0.00  0.00    +0.000 A 
ATOM     11  C   UNL     1       1.661   8.873  18.606  0.00  0.00    +0.000 A 
ATOM     12  C   UNL     1       0.681   9.828  18.289  0.00  0.00    +0.000 A 
BRANCH   7  13
ATOM     13  O   UNL     1      -1.262  11.122  19.069  0.00  0.00    +0.000 OA
BRANCH  13  15
ATOM     14  C   UNL     1      -2.921  10.100  17.712  0.00  0.00    +0.000 C 
ATOM     15  C   UNL     1      -1.856  11.181  17.775  0.00  0.00    +0.000 C 
ENDBRANCH  13  15
ENDBRANCH   7  13
ENDBRANCH   1  10
BRANCH   4  16
ATOM     16  C   UNL     1       3.988   4.009  19.243  0.00  0.00    +0.000 C 
BRANCH  16  17
ATOM     17  C   UNL     1       5.101   4.140  18.235  0.00  0.00    +0.000 A 
ATOM     18  C   UNL     1       4.833   3.928  16.881  0.00  0.00    +0.000 A 
ATOM     19  C   UNL     1       5.851   4.116  15.954  0.00  0.00    +0.000 A 
ATOM     20  C   UNL     1       7.107   4.505  16.399  0.00  0.00    +0.000 A 
ATOM     21  C   UNL     1       7.295   4.683  17.759  0.00  0.00    +0.000 A 
ATOM     22  N   UNL     1       6.328   4.505  18.688  0.00  0.00    +0.000 NA
ENDBRANCH  16  17
ENDBRANCH   4  16
TORSDOF 5
ENDMDL
MODEL 6
REMARK VINA RESULT:      -6.7      2.543      3.831
REMARK  Name = 
REMARK  6 active torsions:
REMARK  status: ('A' for Active; 'I' for Inactive)
REMARK    1  A    between atoms: C_1  and  C_2
REMARK    2  A    between atoms: C_2  and  O_3
REMARK    3  A    between atoms: O_3  and  C_4
REMARK    4  A    between atoms: C_7  and  N_8
REMARK    5  A    between atoms: N_11  and  C_12
REMARK    6  A    between atoms: C_12  and  C_13
REMARK                            x       y       z     vdW  Elec       q    Type
REMARK                         _______ _______ _______ _____ _____    ______ ____
ROOT
ATOM      1  N   UNL     1       2.657   7.302  20.116  0.00  0.00    +0.000 N 
ATOM      2  C   UNL     1       2.812   6.120  19.427  0.00  0.00    +0.000 C 
ATOM      3  O   UNL     1       2.172   5.782  18.434  0.00  0.00    +0.000 OA
ATOM      4  N   UNL     1       3.757   5.288  19.973  0.00  0.00    +0.000 N 
ATOM      5  H   UNL     1       3.387   7.555  20.765  0.00  0.00    +0.000 HD
ATOM      6  H   UNL     1       4.525   5.683  20.494  0.00  0.00    +0.000 HD
ENDROOT
BRANCH   1  10
ATOM      7  C   UNL     1      -0.316  10.216  19.362  0.00  0.00    +0.000 A 
ATOM      8  C   UNL     1       0.600   9.887  18.370  0.00  0.00    +0.000 A 
ATOM      9  C   UNL     1       1.573   8.916  18.601  0.00  0.00    +0.000 A 
ATOM     10  C   UNL     1       1.663   8.269  19.836  0.00  0.00    +0.000 A 
ATOM     11  C   UNL     1       0.731   8.590  20.828  0.00  0.00    +0.000 A 
ATOM     12  C   UNL     1      -0.243   9.577  20.598  0.00  0.00    +0.000 A 
BRANCH   7  13
ATOM     13  O   UNL     1      -1.212  11.182  19.005  0.00  0.00    +0.000 OA
BRANCH  13  15
ATOM     14  C   UNL     1      -2.893  10.031  17.787  0.00  0.00    +0.000 C 
ATOM     15  C   UNL     1      -1.788  11.068  17.706  0.00  0.00    +0.000 C 
ENDBRANCH  13  15
ENDBRANCH   7  13
ENDBRANCH   1  10
BRANCH   4  16
ATOM     16  C   UNL     1       4.033   4.040  19.285  0.00  0.00    +0.000 C 
BRANCH  16  17
ATOM     17  C   UNL     1       5.136   4.161  18.265  0.00  0.00    +0.000 A 
ATOM     18  C   UNL     1       4.848   3.962  16.913  0.00  0.00    +0.000 A 
ATOM     19  C   UNL     1       5.858   4.141  15.975  0.00  0.00    +0.000 A 
ATOM     20  C   UNL     1       7.125   4.508  16.408  0.00  0.00    +0.000 A 
ATOM     21  C   UNL     1       7.333   4.673  17.767  0.00  0.00    +0.000 A 
ATOM     22  N   UNL     1       6.374   4.503  18.706  0.00  0.00    +0.000 NA
ENDBRANCH  16  17
ENDBRANCH   4  16
TORSDOF 5
ENDMDL
MODEL 7
REMARK VINA RESULT:      -6.7      2.502      9.111
REMARK  Name = 
REMARK  6 active torsions:
REMARK  status: ('A' for Active; 'I' for Inactive)
REMARK    1  A    between atoms: C_1  and  C_2
REMARK    2  A    between atoms: C_2  and  O_3
REMARK    3  A    between atoms: O_3  and  C_4
REMARK    4  A    between atoms: C_7  and  N_8
REMARK    5  A    between atoms: N_11  and  C_12
REMARK    6  A    between atoms: C_12  and  C_13
REMARK                            x       y       z     vdW  Elec       q    Type
REMARK                         _______ _______ _______ _____ _____    ______ ____
ROOT
ATOM      1  N   UNL     1       2.951   6.434  18.927  0.00  0.00    +0.000 N 
ATOM      2  C   UNL     1       2.386   7.663  18.675  0.00  0.00    +0.000 C 
ATOM      3  O   UNL     1       2.462   8.283  17.617  0.00  0.00    +0.000 OA
ATOM      4  N   UNL     1       1.726   8.194  19.755  0.00  0.00    +0.000 N 
ATOM      5  H   UNL     1       2.628   5.939  19.745  0.00  0.00    +0.000 HD
ATOM      6  H   UNL     1       1.324   7.577  20.444  0.00  0.00    +0.000 HD
ENDROOT
BRANCH   1  10
ATOM      7  C   UNL     1       5.391   4.310  16.200  0.00  0.00    +0.000 A 
ATOM      8  C   UNL     1       5.776   5.572  16.639  0.00  0.00    +0.000 A 
ATOM      9  C   UNL     1       4.989   6.273  17.551  0.00  0.00    +0.000 A 
ATOM     10  C   UNL     1       3.790   5.737  18.026  0.00  0.00    +0.000 A 
ATOM     11  C   UNL     1       3.412   4.461  17.596  0.00  0.00    +0.000 A 
ATOM     12  C   UNL     1       4.200   3.759  16.668  0.00  0.00    +0.000 A 
BRANCH   7  13
ATOM     13  O   UNL     1       6.251   3.736  15.308  0.00  0.00    +0.000 OA
BRANCH  13  15
ATOM     14  C   UNL     1       6.006   3.679  12.947  0.00  0.00    +0.000 C 
ATOM     15  C   UNL     1       6.531   4.480  14.125  0.00  0.00    +0.000 C 
ENDBRANCH  13  15
ENDBRANCH   7  13
ENDBRANCH   1  10
BRANCH   4  16
ATOM     16  C   UNL     1       1.048   9.464  19.572  0.00  0.00    +0.000 C 
BRANCH  16  17
ATOM     17  C   UNL     1       0.289   9.909  20.796  0.00  0.00    +0.000 A 
ATOM     18  C   UNL     1       0.254   9.085  21.923  0.00  0.00    +0.000 A 
ATOM     19  C   UNL     1      -0.394   9.535  23.067  0.00  0.00    +0.000 A 
ATOM     20  C   UNL     1      -0.991  10.789  23.058  0.00  0.00    +0.000 A 
ATOM     21  C   UNL     1      -0.923  11.539  21.896  0.00  0.00    +0.000 A 
ATOM     22  N   UNL     1      -0.305  11.130  20.765  0.00  0.00    +0.000 NA
ENDBRANCH  16  17
ENDBRANCH   4  16
TORSDOF 5
ENDMDL
MODEL 8
REMARK VINA RESULT:      -6.6      2.569      9.126
REMARK  Name = 
REMARK  6 active torsions:
REMARK  status: ('A' for Active; 'I' for Inactive)
REMARK    1  A    between atoms: C_1  and  C_2
REMARK    2  A    between atoms: C_2  and  O_3
REMARK    3  A    between atoms: O_3  and  C_4
REMARK    4  A    between atoms: C_7  and  N_8
REMARK    5  A    between atoms: N_11  and  C_12
REMARK    6  A    between atoms: C_12  and  C_13
REMARK                            x       y       z     vdW  Elec       q    Type
REMARK                         _______ _______ _______ _____ _____    ______ ____
ROOT
ATOM      1  N   UNL     1       2.980   6.682  18.885  0.00  0.00    +0.000 N 
ATOM      2  C   UNL     1       2.268   7.827  18.605  0.00  0.00    +0.000 C 
ATOM      3  O   UNL     1       2.097   8.308  17.488  0.00  0.00    +0.000 OA
ATOM      4  N   UNL     1       1.764   8.445  19.722  0.00  0.00    +0.000 N 
ATOM      5  H   UNL     1       2.856   6.276  19.800  0.00  0.00    +0.000 HD
ATOM      6  H   UNL     1       1.550   7.895  20.541  0.00  0.00    +0.000 HD
ENDROOT
BRANCH   1  10
ATOM      7  C   UNL     1       5.220   4.500  16.035  0.00  0.00    +0.000 A 
ATOM      8  C   UNL     1       4.228   3.864  16.772  0.00  0.00    +0.000 A 
ATOM      9  C   UNL     1       3.471   4.577  17.701  0.00  0.00    +0.000 A 
ATOM     10  C   UNL     1       3.706   5.936  17.928  0.00  0.00    +0.000 A 
ATOM     11  C   UNL     1       4.695   6.577  17.175  0.00  0.00    +0.000 A 
ATOM     12  C   UNL     1       5.464   5.856  16.246  0.00  0.00    +0.000 A 
BRANCH   7  13
ATOM     13  O   UNL     1       5.885   3.687  15.163  0.00  0.00    +0.000 OA
BRANCH  13  15
ATOM     14  C   UNL     1       6.058   3.599  12.797  0.00  0.00    +0.000 C 
ATOM     15  C   UNL     1       6.513   4.322  14.053  0.00  0.00    +0.000 C 
ENDBRANCH  13  15
ENDBRANCH   7  13
ENDBRANCH   1  10
BRANCH   4  16
ATOM     16  C   UNL     1       0.950   9.630  19.527  0.00  0.00    +0.000 C 
BRANCH  16  17
ATOM     17  C   UNL     1       0.187  10.033  20.763  0.00  0.00    +0.000 A 
ATOM     18  C   UNL     1       0.103   9.148  21.840  0.00  0.00    +0.000 A 
ATOM     19  C   UNL     1      -0.546   9.555  22.999  0.00  0.00    +0.000 A 
ATOM     20  C   UNL     1      -1.096  10.829  23.054  0.00  0.00    +0.000 A 
ATOM     21  C   UNL     1      -0.981  11.642  21.938  0.00  0.00    +0.000 A 
ATOM     22  N   UNL     1      -0.360  11.275  20.794  0.00  0.00    +0.000 NA
ENDBRANCH  16  17
ENDBRANCH   4  16
TORSDOF 5
ENDMDL
MODEL 9
REMARK VINA RESULT:      -6.5      5.607      7.394
REMARK  Name = 
REMARK  6 active torsions:
REMARK  status: ('A' for Active; 'I' for Inactive)
REMARK    1  A    between atoms: C_1  and  C_2
REMARK    2  A    between atoms: C_2  and  O_3
REMARK    3  A    between atoms: O_3  and  C_4
REMARK    4  A    between atoms: C_7  and  N_8
REMARK    5  A    between atoms: N_11  and  C_12
REMARK    6  A    between atoms: C_12  and  C_13
REMARK                            x       y       z     vdW  Elec       q    Type
REMARK                         _______ _______ _______ _____ _____    ______ ____
ROOT
ATOM      1  N   UNL     1       6.900   7.998  17.002  0.00  0.00    +0.000 N 
ATOM      2  C   UNL     1       7.893   8.355  17.886  0.00  0.00    +0.000 C 
ATOM      3  O   UNL     1       8.388   7.623  18.739  0.00  0.00    +0.000 OA
ATOM      4  N   UNL     1       8.289   9.664  17.766  0.00  0.00    +0.000 N 
ATOM      5  H   UNL     1       6.743   8.610  16.215  0.00  0.00    +0.000 HD
ATOM      6  H   UNL     1       8.204  10.128  16.874  0.00  0.00    +0.000 HD
ENDROOT
BRANCH   1  10
ATOM      7  C   UNL     1       4.974   4.230  17.029  0.00  0.00    +0.000 A 
ATOM      8  C   UNL     1       4.303   5.357  17.492  0.00  0.00    +0.000 A 
ATOM      9  C   UNL     1       4.921   6.606  17.471  0.00  0.00    +0.000 A 
ATOM     10  C   UNL     1       6.231   6.752  17.007  0.00  0.00    +0.000 A 
ATOM     11  C   UNL     1       6.899   5.621  16.528  0.00  0.00    +0.000 A 
ATOM     12  C   UNL     1       6.280   4.360  16.559  0.00  0.00    +0.000 A 
BRANCH   7  13
ATOM     13  O   UNL     1       4.256   3.073  17.107  0.00  0.00    +0.000 OA
BRANCH  13  15
ATOM     14  C   UNL     1       2.373   2.047  18.127  0.00  0.00    +0.000 C 
ATOM     15  C   UNL     1       2.846   3.208  17.271  0.00  0.00    +0.000 C 
ENDBRANCH  13  15
ENDBRANCH   7  13
ENDBRANCH   1  10
BRANCH   4  16
ATOM     16  C   UNL     1       9.371  10.121  18.617  0.00  0.00    +0.000 C 
BRANCH  16  17
ATOM     17  C   UNL     1       9.945  11.445  18.182  0.00  0.00    +0.000 A 
ATOM     18  C   UNL     1       9.112  12.562  18.094  0.00  0.00    +0.000 A 
ATOM     19  C   UNL     1       9.665  13.790  17.756  0.00  0.00    +0.000 A 
ATOM     20  C   UNL     1      11.029  13.874  17.511  0.00  0.00    +0.000 A 
ATOM     21  C   UNL     1      11.785  12.717  17.607  0.00  0.00    +0.000 A 
ATOM     22  N   UNL     1      11.278  11.506  17.930  0.00  0.00    +0.000 NA
ENDBRANCH  16  17
ENDBRANCH   4  16
TORSDOF 5
ENDMDL
