MODEL 1
REMARK VINA RESULT:      -9.1      0.000      0.000
REMARK  Name = 
REMARK  9 active torsions:
REMARK  status: ('A' for Active; 'I' for Inactive)
REMARK    1  A    between atoms: C_2  and  C_3
REMARK    2  A    between atoms: C_2  and  C_4
REMARK    3  A    between atoms: C_8  and  C_9
REMARK    4  A    between atoms: C_9  and  C_10
REMARK    5  A    between atoms: C_9  and  C_11
REMARK    6  A    between atoms: C_9  and  N_12
REMARK    7  A    between atoms: N_15  and  C_16
REMARK    8  A    between atoms: C_21  and  C_22
REMARK    9  A    between atoms: N_24  and  C_25
REMARK                            x       y       z     vdW  Elec       q    Type
REMARK                         _______ _______ _______ _____ _____    ______ ____
ROOT
ATOM      1  N   UNL     1       5.020   6.049  16.404  0.00  0.00    +0.000 N 
ATOM      2  C   UNL     1       4.072   6.251  17.387  0.00  0.00    +0.000 C 
ATOM      3  O   UNL     1       3.748   5.371  18.175  0.00  0.00    +0.000 OA
ATOM      4  N   UNL     1       3.517   7.516  17.367  0.00  0.00    +0.000 N 
ATOM      5  H   UNL     1       5.500   6.871  16.066  0.00  0.00    +0.000 HD
ATOM      6  H   UNL     1       3.545   8.000  16.478  0.00  0.00    +0.000 HD
ENDROOT
BRANCH   4   7
ATOM      7  C   UNL     1       2.614   7.997  18.355  0.00  0.00    +0.000 A 
ATOM      8  C   UNL     1       2.508   7.399  19.617  0.00  0.00    +0.000 A 
ATOM      9  C   UNL     1       1.592   7.861  20.562  0.00  0.00    +0.000 A 
ATOM     10  C   UNL     1       0.764   8.945  20.271  0.00  0.00    +0.000 A 
ATOM     11 CL   UNL     1      -0.286   9.456  21.546  0.00  0.00    +0.000 Cl
ATOM     12  C   UNL     1       0.852   9.566  19.016  0.00  0.00    +0.000 A 
ATOM     13  C   UNL     1       1.803   9.099  18.075  0.00  0.00    +0.000 A 
BRANCH  12  14
ATOM     14  C   UNL     1      -0.001  10.715  18.593  0.00  0.00    +0.000 C 
ATOM     15  O   UNL     1       0.258  11.841  19.008  0.00  0.00    +0.000 OA
ATOM     16  N   UNL     1      -1.025  10.450  17.710  0.00  0.00    +0.000 N 
ATOM     17  C   UNL     1      -1.989  11.439  17.297  0.00  0.00    +0.000 C 
ATOM     18  H   UNL     1      -1.205   9.490  17.441  0.00  0.00    +0.000 HD
ENDBRANCH  12  14
ENDBRANCH   4   7
BRANCH   1  19
ATOM     19  C   UNL     1       5.763   4.768  16.298  0.00  0.00    +0.000 C 
ATOM     20  C   UNL     1       4.839   3.574  16.648  0.00  0.00    +0.000 C 
ATOM     21  C   UNL     1       6.951   4.764  17.294  0.00  0.00    +0.000 C 
BRANCH  19  26
ATOM     22  C   UNL     1       5.945   3.639  12.564  0.00  0.00    +0.000 A 
ATOM     23  C   UNL     1       7.075   4.347  12.143  0.00  0.00    +0.000 A 
ATOM     24  C   UNL     1       7.790   5.146  13.039  0.00  0.00    +0.000 A 
ATOM     25  C   UNL     1       7.385   5.253  14.371  0.00  0.00    +0.000 A 
ATOM     26  C   UNL     1       6.246   4.577  14.839  0.00  0.00    +0.000 A 
ATOM     27  C   UNL     1       5.555   3.766  13.910  0.00  0.00    +0.000 A 
BRANCH  22  29
ATOM     28  C   UNL     1       3.995   3.063  11.151  0.00  0.00    +0.000 C 
ATOM     29  C   UNL     1       5.205   2.739  11.641  0.00  0.00    +0.000 C 
ATOM     30  C   UNL     1       5.853   1.431  11.270  0.00  0.00    +0.000 C 
ENDBRANCH  22  29
ENDBRANCH  19  26
ENDBRANCH   1  19
TORSDOF 5
ENDMDL
MODEL 2
REMARK VINA RESULT:      -8.9      2.318      3.525
REMARK  Name = 
REMARK  9 active torsions:
REMARK  status: ('A' for Active; 'I' for Inactive)
REMARK    1  A    between atoms: C_2  and  C_3
REMARK    2  A    between atoms: C_2  and  C_4
REMARK    3  A    between atoms: C_8  and  C_9
REMARK    4  A    between atoms: C_9  and  C_10
REMARK    5  A    between atoms: C_9  and  C_11
REMARK    6  A    between atoms: C_9  and  N_12
REMARK    7  A    between atoms: N_15  and  C_16
REMARK    8  A    between atoms: C_21  and  C_22
REMARK    9  A    between atoms: N_24  and  C_25
REMARK                            x       y       z     vdW  Elec       q    Type
REMARK                         _______ _______ _______ _____ _____    ______ ____
ROOT
ATOM      1  N   UNL     1       3.179   4.495  19.483  0.00  0.00    +0.000 N 
ATOM      2  C   UNL     1       2.749   5.756  19.126  0.00  0.00    +0.000 C 
ATOM      3  O   UNL     1       2.723   6.134  17.961  0.00  0.00    +0.000 OA
ATOM      4  N   UNL     1       2.386   6.542  20.204  0.00  0.00    +0.000 N 
ATOM      5  H   UNL     1       2.824   4.128  20.355  0.00  0.00    +0.000 HD
ATOM      6  H   UNL     1       2.810   6.302  21.091  0.00  0.00    +0.000 HD
ENDROOT
BRANCH   4   7
ATOM      7  C   UNL     1       1.796   7.830  20.079  0.00  0.00    +0.000 A 
ATOM      8  C   UNL     1       1.870   8.566  18.890  0.00  0.00    +0.000 A 
ATOM      9  C   UNL     1       1.316   9.843  18.795  0.00  0.00    +0.000 A 
ATOM     10  C   UNL     1       0.663  10.413  19.888  0.00  0.00    +0.000 A 
ATOM     11 CL   UNL     1      -0.028  11.976  19.624  0.00  0.00    +0.000 Cl
ATOM     12  C   UNL     1       0.573   9.696  21.090  0.00  0.00    +0.000 A 
ATOM     13  C   UNL     1       1.120   8.391  21.164  0.00  0.00    +0.000 A 
BRANCH  12  14
ATOM     14  C   UNL     1      -0.081  10.219  22.325  0.00  0.00    +0.000 C 
ATOM     15  O   UNL     1       0.354   9.887  23.423  0.00  0.00    +0.000 OA
ATOM     16  N   UNL     1      -1.131  11.096  22.161  0.00  0.00    +0.000 N 
ATOM     17  C   UNL     1      -1.921  11.600  23.257  0.00  0.00    +0.000 C 
ATOM     18  H   UNL     1      -1.463  11.295  21.224  0.00  0.00    +0.000 HD
ENDBRANCH  12  14
ENDBRANCH   4   7
BRANCH   1  19
ATOM     19  C   UNL     1       3.562   3.490  18.459  0.00  0.00    +0.000 C 
ATOM     20  C   UNL     1       2.466   3.383  17.368  0.00  0.00    +0.000 C 
ATOM     21  C   UNL     1       3.719   2.096  19.120  0.00  0.00    +0.000 C 
BRANCH  19  26
ATOM     22  C   UNL     1       6.186   4.421  15.721  0.00  0.00    +0.000 A 
ATOM     23  C   UNL     1       7.230   4.890  16.524  0.00  0.00    +0.000 A 
ATOM     24  C   UNL     1       7.117   4.881  17.917  0.00  0.00    +0.000 A 
ATOM     25  C   UNL     1       5.957   4.406  18.530  0.00  0.00    +0.000 A 
ATOM     26  C   UNL     1       4.872   3.940  17.767  0.00  0.00    +0.000 A 
ATOM     27  C   UNL     1       5.025   3.950  16.363  0.00  0.00    +0.000 A 
BRANCH  22  29
ATOM     28  C   UNL     1       5.385   3.764  13.472  0.00  0.00    +0.000 C 
ATOM     29  C   UNL     1       6.309   4.369  14.240  0.00  0.00    +0.000 C 
ATOM     30  C   UNL     1       7.517   5.013  13.616  0.00  0.00    +0.000 C 
ENDBRANCH  22  29
ENDBRANCH  19  26
ENDBRANCH   1  19
TORSDOF 5
ENDMDL
MODEL 3
REMARK VINA RESULT:      -8.7      6.066      7.870
REMARK  Name = 
REMARK  9 active torsions:
REMARK  status: ('A' for Active; 'I' for Inactive)
REMARK    1  A    between atoms: C_2  and  C_3
REMARK    2  A    between atoms: C_2  and  C_4
REMARK    3  A    between atoms: C_8  and  C_9
REMARK    4  A    between atoms: C_9  and  C_10
REMARK    5  A    between atoms: C_9  and  C_11
REMARK    6  A    between atoms: C_9  and  N_12
REMARK    7  A    between atoms: N_15  and  C_16
REMARK    8  A    between atoms: C_21  and  C_22
REMARK    9  A    between atoms: N_24  and  C_25
REMARK                            x       y       z     vdW  Elec       q    Type
REMARK                         _______ _______ _______ _____ _____    ______ ____
ROOT
ATOM      1  N   UNL     1       6.949   7.212  16.823  0.00  0.00    +0.000 N 
ATOM      2  C   UNL     1       7.749   7.866  17.737  0.00  0.00    +0.000 C 
ATOM      3  O   UNL     1       8.228   7.300  18.713  0.00  0.00    +0.000 OA
ATOM      4  N   UNL     1       7.924   9.208  17.457  0.00  0.00    +0.000 N 
ATOM      5  H   UNL     1       6.916   7.602  15.892  0.00  0.00    +0.000 HD
ATOM      6  H   UNL     1       7.198   9.644  16.902  0.00  0.00    +0.000 HD
ENDROOT
BRANCH   4   7
ATOM      7  C   UNL     1       8.803  10.058  18.183  0.00  0.00    +0.000 A 
ATOM      8  C   UNL     1       9.019   9.902  19.558  0.00  0.00    +0.000 A 
ATOM      9  C   UNL     1       9.857  10.767  20.261  0.00  0.00    +0.000 A 
ATOM     10  C   UNL     1      10.513  11.806  19.602  0.00  0.00    +0.000 A 
ATOM     11 CL   UNL     1      11.567  12.771  20.575  0.00  0.00    +0.000 Cl
ATOM     12  C   UNL     1      10.318  11.984  18.224  0.00  0.00    +0.000 A 
ATOM     13  C   UNL     1       9.480  11.084  17.519  0.00  0.00    +0.000 A 
BRANCH  12  14
ATOM     14  C   UNL     1      10.950  13.075  17.427  0.00  0.00    +0.000 C 
ATOM     15  O   UNL     1      11.973  12.841  16.791  0.00  0.00    +0.000 OA
ATOM     16  N   UNL     1      10.313  14.298  17.414  0.00  0.00    +0.000 N 
ATOM     17  C   UNL     1      10.860  15.468  16.774  0.00  0.00    +0.000 C 
ATOM     18  H   UNL     1       9.493  14.430  17.995  0.00  0.00    +0.000 HD
ENDBRANCH  12  14
ENDBRANCH   4   7
BRANCH   1  19
ATOM     19  C   UNL     1       6.689   5.754  16.928  0.00  0.00    +0.000 C 
ATOM     20  C   UNL     1       7.679   5.096  17.923  0.00  0.00    +0.000 C 
ATOM     21  C   UNL     1       6.880   5.082  15.544  0.00  0.00    +0.000 C 
BRANCH  19  26
ATOM     22  C   UNL     1       3.582   4.132  18.653  0.00  0.00    +0.000 A 
ATOM     23  C   UNL     1       2.674   5.192  18.580  0.00  0.00    +0.000 A 
ATOM     24  C   UNL     1       3.029   6.394  17.962  0.00  0.00    +0.000 A 
ATOM     25  C   UNL     1       4.301   6.558  17.410  0.00  0.00    +0.000 A 
ATOM     26  C   UNL     1       5.256   5.529  17.474  0.00  0.00    +0.000 A 
ATOM     27  C   UNL     1       4.859   4.323  18.093  0.00  0.00    +0.000 A 
BRANCH  22  29
ATOM     28  C   UNL     1       2.680   2.738  20.489  0.00  0.00    +0.000 C 
ATOM     29  C   UNL     1       3.205   2.826  19.254  0.00  0.00    +0.000 C 
ATOM     30  C   UNL     1       3.437   1.585  18.434  0.00  0.00    +0.000 C 
ENDBRANCH  22  29
ENDBRANCH  19  26
ENDBRANCH   1  19
TORSDOF 5
ENDMDL
MODEL 4
REMARK VINA RESULT:      -8.7      3.092      4.704
REMARK  Name = 
REMARK  9 active torsions:
REMARK  status: ('A' for Active; 'I' for Inactive)
REMARK    1  A    between atoms: C_2  and  C_3
REMARK    2  A    between atoms: C_2  and  C_4
REMARK    3  A    between atoms: C_8  and  C_9
REMARK    4  A    between atoms: C_9  and  C_10
REMARK    5  A    between atoms: C_9  and  C_11
REMARK    6  A    between atoms: C_9  and  N_12
REMARK    7  A    between atoms: N_15  and  C_16
REMARK    8  A    between atoms: C_21  and  C_22
REMARK    9  A    between atoms: N_24  and  C_25
REMARK                            x       y       z     vdW  Elec       q    Type
REMARK                         _______ _______ _______ _____ _____    ______ ____
ROOT
ATOM      1  N   UNL     1       2.774   4.942  20.176  0.00  0.00    +0.000 N 
ATOM      2  C   UNL     1       2.295   6.145  19.699  0.00  0.00    +0.000 C 
ATOM      3  O   UNL     1       2.166   6.371  18.501  0.00  0.00    +0.000 OA
ATOM      4  N   UNL     1       2.010   7.059  20.695  0.00  0.00    +0.000 N 
ATOM      5  H   UNL     1       2.498   4.687  21.114  0.00  0.00    +0.000 HD
ATOM      6  H   UNL     1       2.509   6.937  21.567  0.00  0.00    +0.000 HD
ENDROOT
BRANCH   4   7
ATOM      7  C   UNL     1       1.390   8.317  20.458  0.00  0.00    +0.000 A 
ATOM      8  C   UNL     1       1.509   8.983  19.231  0.00  0.00    +0.000 A 
ATOM      9  C   UNL     1       0.924  10.233  19.027  0.00  0.00    +0.000 A 
ATOM     10  C   UNL     1       0.194  10.845  20.045  0.00  0.00    +0.000 A 
ATOM     11 CL   UNL     1      -0.526  12.366  19.646  0.00  0.00    +0.000 Cl
ATOM     12  C   UNL     1       0.057  10.201  21.283  0.00  0.00    +0.000 A 
ATOM     13  C   UNL     1       0.638   8.921  21.467  0.00  0.00    +0.000 A 
BRANCH  12  14
ATOM     14  C   UNL     1      -0.680  10.776  22.445  0.00  0.00    +0.000 C 
ATOM     15  O   UNL     1      -0.287  10.542  23.583  0.00  0.00    +0.000 OA
ATOM     16  N   UNL     1      -1.759  11.588  22.169  0.00  0.00    +0.000 N 
ATOM     17  C   UNL     1      -2.624  12.128  23.188  0.00  0.00    +0.000 C 
ATOM     18  H   UNL     1      -2.052  11.705  21.206  0.00  0.00    +0.000 HD
ENDBRANCH  12  14
ENDBRANCH   4   7
BRANCH   1  19
ATOM     19  C   UNL     1       3.087   3.817  19.259  0.00  0.00    +0.000 C 
ATOM     20  C   UNL     1       1.827   3.406  18.454  0.00  0.00    +0.000 C 
ATOM     21  C   UNL     1       3.557   2.586  20.076  0.00  0.00    +0.000 C 
BRANCH  19  26
ATOM     22  C   UNL     1       6.291   5.432  17.717  0.00  0.00    +0.000 A 
ATOM     23  C   UNL     1       6.191   4.977  16.399  0.00  0.00    +0.000 A 
ATOM     24  C   UNL     1       5.105   4.196  15.995  0.00  0.00    +0.000 A 
ATOM     25  C   UNL     1       4.102   3.854  16.903  0.00  0.00    +0.000 A 
ATOM     26  C   UNL     1       4.165   4.270  18.244  0.00  0.00    +0.000 A 
ATOM     27  C   UNL     1       5.269   5.070  18.615  0.00  0.00    +0.000 A 
BRANCH  22  29
ATOM     28  C   UNL     1       7.704   7.454  17.509  0.00  0.00    +0.000 C 
ATOM     29  C   UNL     1       7.408   6.311  18.153  0.00  0.00    +0.000 C 
ATOM     30  C   UNL     1       8.216   5.876  19.346  0.00  0.00    +0.000 C 
ENDBRANCH  22  29
ENDBRANCH  19  26
ENDBRANCH   1  19
TORSDOF 5
ENDMDL
MODEL 5
REMARK VINA RESULT:      -8.6      5.474      7.380
REMARK  Name = 
REMARK  9 active torsions:
REMARK  status: ('A' for Active; 'I' for Inactive)
REMARK    1  A    between atoms: C_2  and  C_3
REMARK    2  A    between atoms: C_2  and  C_4
REMARK    3  A    between atoms: C_8  and  C_9
REMARK    4  A    between atoms: C_9  and  C_10
REMARK    5  A    between atoms: C_9  and  C_11
REMARK    6  A    between atoms: C_9  and  N_12
REMARK    7  A    between atoms: N_15  and  C_16
REMARK    8  A    between atoms: C_21  and  C_22
REMARK    9  A    between atoms: N_24  and  C_25
REMARK                            x       y       z     vdW  Elec       q    Type
REMARK                         _______ _______ _______ _____ _____    ______ ____
ROOT
ATOM      1  N   UNL     1       6.803   6.899  16.676  0.00  0.00    +0.000 N 
ATOM      2  C   UNL     1       7.541   7.604  17.604  0.00  0.00    +0.000 C 
ATOM      3  O   UNL     1       8.081   7.062  18.562  0.00  0.00    +0.000 OA
ATOM      4  N   UNL     1       7.581   8.964  17.360  0.00  0.00    +0.000 N 
ATOM      5  H   UNL     1       6.725   7.309  15.756  0.00  0.00    +0.000 HD
ATOM      6  H   UNL     1       6.813   9.341  16.821  0.00  0.00    +0.000 HD
ENDROOT
BRANCH   4   7
ATOM      7  C   UNL     1       8.379   9.876  18.105  0.00  0.00    +0.000 A 
ATOM      8  C   UNL     1       9.090   9.480  19.244  0.00  0.00    +0.000 A 
ATOM      9  C   UNL     1       9.839  10.396  19.983  0.00  0.00    +0.000 A 
ATOM     10  C   UNL     1       9.904  11.733  19.594  0.00  0.00    +0.000 A 
ATOM     11 CL   UNL     1      10.911  12.753  20.561  0.00  0.00    +0.000 Cl
ATOM     12  C   UNL     1       9.203  12.157  18.455  0.00  0.00    +0.000 A 
ATOM     13  C   UNL     1       8.465  11.210  17.702  0.00  0.00    +0.000 A 
BRANCH  12  14
ATOM     14  C   UNL     1       9.185  13.565  17.964  0.00  0.00    +0.000 C 
ATOM     15  O   UNL     1      10.177  14.020  17.403  0.00  0.00    +0.000 OA
ATOM     16  N   UNL     1       8.017  14.278  18.133  0.00  0.00    +0.000 N 
ATOM     17  C   UNL     1       7.888  15.675  17.802  0.00  0.00    +0.000 C 
ATOM     18  H   UNL     1       7.251  13.851  18.641  0.00  0.00    +0.000 HD
ENDBRANCH  12  14
ENDBRANCH   4   7
BRANCH   1  19
ATOM     19  C   UNL     1       6.688   5.420  16.742  0.00  0.00    +0.000 C 
ATOM     20  C   UNL     1       7.674   4.846  17.791  0.00  0.00    +0.000 C 
ATOM     21  C   UNL     1       7.037   4.801  15.365  0.00  0.00    +0.000 C 
BRANCH  19  26
ATOM     22  C   UNL     1       3.145   5.567  18.379  0.00  0.00    +0.000 A 
ATOM     23  C   UNL     1       2.590   4.384  17.882  0.00  0.00    +0.000 A 
ATOM     24  C   UNL     1       3.340   3.533  17.066  0.00  0.00    +0.000 A 
ATOM     25  C   UNL     1       4.656   3.853  16.729  0.00  0.00    +0.000 A 
ATOM     26  C   UNL     1       5.254   5.040  17.188  0.00  0.00    +0.000 A 
ATOM     27  C   UNL     1       4.472   5.870  18.023  0.00  0.00    +0.000 A 
BRANCH  22  29
ATOM     28  C   UNL     1       2.229   7.769  19.046  0.00  0.00    +0.000 C 
ATOM     29  C   UNL     1       2.383   6.456  19.295  0.00  0.00    +0.000 C 
ATOM     30  C   UNL     1       1.788   5.840  20.533  0.00  0.00    +0.000 C 
ENDBRANCH  22  29
ENDBRANCH  19  26
ENDBRANCH   1  19
TORSDOF 5
ENDMDL
MODEL 6
REMARK VINA RESULT:      -8.6      1.150      1.192
REMARK  Name = 
REMARK  9 active torsions:
REMARK  status: ('A' for Active; 'I' for Inactive)
REMARK    1  A    between atoms: C_2  and  C_3
REMARK    2  A    between atoms: C_2  and  C_4
REMARK    3  A    between atoms: C_8  and  C_9
REMARK    4  A    between atoms: C_9  and  C_10
REMARK    5  A    between atoms: C_9  and  C_11
REMARK    6  A    between atoms: C_9  and  N_12
REMARK    7  A    between atoms: N_15  and  C_16
REMARK    8  A    between atoms: C_21  and  C_22
REMARK    9  A    between atoms: N_24  and  C_25
REMARK                            x       y       z     vdW  Elec       q    Type
REMARK                         _______ _______ _______ _____ _____    ______ ____
ROOT
ATOM      1  N   UNL     1       4.252   6.036  16.970  0.00  0.00    +0.000 N 
ATOM      2  C   UNL     1       3.350   6.336  17.970  0.00  0.00    +0.000 C 
ATOM      3  O   UNL     1       2.960   5.497  18.774  0.00  0.00    +0.000 OA
ATOM      4  N   UNL     1       2.920   7.649  17.950  0.00  0.00    +0.000 N 
ATOM      5  H   UNL     1       4.802   6.805  16.614  0.00  0.00    +0.000 HD
ATOM      6  H   UNL     1       2.975   8.122  17.057  0.00  0.00    +0.000 HD
ENDROOT
BRANCH   4   7
ATOM      7  C   UNL     1       2.089   8.223  18.952  0.00  0.00    +0.000 A 
ATOM      8  C   UNL     1       2.018   7.695  20.248  0.00  0.00    +0.000 A 
ATOM      9  C   UNL     1       1.172   8.249  21.208  0.00  0.00    +0.000 A 
ATOM     10  C   UNL     1       0.381   9.355  20.899  0.00  0.00    +0.000 A 
ATOM     11 CL   UNL     1      -0.582   9.980  22.193  0.00  0.00    +0.000 Cl
ATOM     12  C   UNL     1       0.434   9.905  19.610  0.00  0.00    +0.000 A 
ATOM     13  C   UNL     1       1.315   9.346  18.652  0.00  0.00    +0.000 A 
BRANCH  12  14
ATOM     14  C   UNL     1      -0.386  11.070  19.167  0.00  0.00    +0.000 C 
ATOM     15  O   UNL     1      -1.596  10.933  19.018  0.00  0.00    +0.000 OA
ATOM     16  N   UNL     1       0.268  12.270  18.987  0.00  0.00    +0.000 N 
ATOM     17  C   UNL     1      -0.374  13.451  18.464  0.00  0.00    +0.000 C 
ATOM     18  H   UNL     1       1.275  12.301  19.090  0.00  0.00    +0.000 HD
ENDBRANCH  12  14
ENDBRANCH   4   7
BRANCH   1  19
ATOM     19  C   UNL     1       4.866   4.689  16.861  0.00  0.00    +0.000 C 
ATOM     20  C   UNL     1       3.769   3.594  16.833  0.00  0.00    +0.000 C 
ATOM     21  C   UNL     1       5.778   4.424  18.087  0.00  0.00    +0.000 C 
BRANCH  19  26
ATOM     22  C   UNL     1       5.855   3.852  13.177  0.00  0.00    +0.000 A 
ATOM     23  C   UNL     1       7.064   4.546  13.079  0.00  0.00    +0.000 A 
ATOM     24  C   UNL     1       7.577   5.243  14.175  0.00  0.00    +0.000 A 
ATOM     25  C   UNL     1       6.888   5.261  15.389  0.00  0.00    +0.000 A 
ATOM     26  C   UNL     1       5.658   4.594  15.533  0.00  0.00    +0.000 A 
ATOM     27  C   UNL     1       5.176   3.888  14.409  0.00  0.00    +0.000 A 
BRANCH  22  29
ATOM     28  C   UNL     1       4.170   3.382  11.423  0.00  0.00    +0.000 C 
ATOM     29  C   UNL     1       5.321   3.057  12.039  0.00  0.00    +0.000 C 
ATOM     30  C   UNL     1       6.111   1.855  11.595  0.00  0.00    +0.000 C 
ENDBRANCH  22  29
ENDBRANCH  19  26
ENDBRANCH   1  19
TORSDOF 5
ENDMDL
MODEL 7
REMARK VINA RESULT:      -8.5      5.726      7.657
REMARK  Name = 
REMARK  9 active torsions:
REMARK  status: ('A' for Active; 'I' for Inactive)
REMARK    1  A    between atoms: C_2  and  C_3
REMARK    2  A    between atoms: C_2  and  C_4
REMARK    3  A    between atoms: C_8  and  C_9
REMARK    4  A    between atoms: C_9  and  C_10
REMARK    5  A    between atoms: C_9  and  C_11
REMARK    6  A    between atoms: C_9  and  N_12
REMARK    7  A    between atoms: N_15  and  C_16
REMARK    8  A    between atoms: C_21  and  C_22
REMARK    9  A    between atoms: N_24  and  C_25
REMARK                            x       y       z     vdW  Elec       q    Type
REMARK                         _______ _______ _______ _____ _____    ______ ____
ROOT
ATOM      1  N   UNL     1       7.164   7.112  16.677  0.00  0.00    +0.000 N 
ATOM      2  C   UNL     1       7.728   7.867  17.686  0.00  0.00    +0.000 C 
ATOM      3  O   UNL     1       7.982   7.400  18.789  0.00  0.00    +0.000 OA
ATOM      4  N   UNL     1       7.943   9.186  17.334  0.00  0.00    +0.000 N 
ATOM      5  H   UNL     1       7.336   7.423  15.732  0.00  0.00    +0.000 HD
ATOM      6  H   UNL     1       7.356   9.550  16.595  0.00  0.00    +0.000 HD
ENDROOT
BRANCH   4   7
ATOM      7  C   UNL     1       8.625  10.121  18.160  0.00  0.00    +0.000 A 
ATOM      8  C   UNL     1       9.171   9.758  19.397  0.00  0.00    +0.000 A 
ATOM      9  C   UNL     1       9.806  10.697  20.211  0.00  0.00    +0.000 A 
ATOM     10  C   UNL     1       9.921  12.024  19.800  0.00  0.00    +0.000 A 
ATOM     11 CL   UNL     1      10.779  13.075  20.873  0.00  0.00    +0.000 Cl
ATOM     12  C   UNL     1       9.386  12.416  18.564  0.00  0.00    +0.000 A 
ATOM     13  C   UNL     1       8.764  11.446  17.739  0.00  0.00    +0.000 A 
BRANCH  12  14
ATOM     14  C   UNL     1       9.433  13.811  18.039  0.00  0.00    +0.000 C 
ATOM     15  O   UNL     1       8.399  14.470  17.988  0.00  0.00    +0.000 OA
ATOM     16  N   UNL     1      10.665  14.308  17.674  0.00  0.00    +0.000 N 
ATOM     17  C   UNL     1      10.848  15.598  17.057  0.00  0.00    +0.000 C 
ATOM     18  H   UNL     1      11.471  13.694  17.706  0.00  0.00    +0.000 HD
ENDBRANCH  12  14
ENDBRANCH   4   7
BRANCH   1  19
ATOM     19  C   UNL     1       6.906   5.661  16.850  0.00  0.00    +0.000 C 
ATOM     20  C   UNL     1       7.773   5.089  18.000  0.00  0.00    +0.000 C 
ATOM     21  C   UNL     1       7.272   4.901  15.549  0.00  0.00    +0.000 C 
BRANCH  19  26
ATOM     22  C   UNL     1       3.232   6.331  17.992  0.00  0.00    +0.000 A 
ATOM     23  C   UNL     1       2.674   5.064  17.798  0.00  0.00    +0.000 A 
ATOM     24  C   UNL     1       3.459   4.002  17.342  0.00  0.00    +0.000 A 
ATOM     25  C   UNL     1       4.815   4.189  17.070  0.00  0.00    +0.000 A 
ATOM     26  C   UNL     1       5.419   5.448  17.232  0.00  0.00    +0.000 A 
ATOM     27  C   UNL     1       4.600   6.496  17.707  0.00  0.00    +0.000 A 
BRANCH  22  29
ATOM     28  C   UNL     1       1.980   8.453  17.743  0.00  0.00    +0.000 C 
ATOM     29  C   UNL     1       2.427   7.459  18.531  0.00  0.00    +0.000 C 
ATOM     30  C   UNL     1       2.129   7.463  20.007  0.00  0.00    +0.000 C 
ENDBRANCH  22  29
ENDBRANCH  19  26
ENDBRANCH   1  19
TORSDOF 5
ENDMDL
MODEL 8
REMARK VINA RESULT:      -8.5      5.756      7.474
REMARK  Name = 
REMARK  9 active torsions:
REMARK  status: ('A' for Active; 'I' for Inactive)
REMARK    1  A    between atoms: C_2  and  C_3
REMARK    2  A    between atoms: C_2  and  C_4
REMARK    3  A    between atoms: C_8  and  C_9
REMARK    4  A    between atoms: C_9  and  C_10
REMARK    5  A    between atoms: C_9  and  C_11
REMARK    6  A    between atoms: C_9  and  N_12
REMARK    7  A    between atoms: N_15  and  C_16
REMARK    8  A    between atoms: C_21  and  C_22
REMARK    9  A    between atoms: N_24  and  C_25
REMARK                            x       y       z     vdW  Elec       q    Type
REMARK                         _______ _______ _______ _____ _____    ______ ____
ROOT
ATOM      1  N   UNL     1       7.063   6.949  16.610  0.00  0.00    +0.000 N 
ATOM      2  C   UNL     1       7.636   7.688  17.625  0.00  0.00    +0.000 C 
ATOM      3  O   UNL     1       7.875   7.211  18.728  0.00  0.00    +0.000 OA
ATOM      4  N   UNL     1       7.877   9.004  17.280  0.00  0.00    +0.000 N 
ATOM      5  H   UNL     1       7.246   7.260  15.667  0.00  0.00    +0.000 HD
ATOM      6  H   UNL     1       7.301   9.383  16.540  0.00  0.00    +0.000 HD
ENDROOT
BRANCH   4   7
ATOM      7  C   UNL     1       8.572   9.923  18.114  0.00  0.00    +0.000 A 
ATOM      8  C   UNL     1       9.062   9.558  19.373  0.00  0.00    +0.000 A 
ATOM      9  C   UNL     1       9.711  10.481  20.193  0.00  0.00    +0.000 A 
ATOM     10  C   UNL     1       9.896  11.796  19.767  0.00  0.00    +0.000 A 
ATOM     11 CL   UNL     1      10.763  12.827  20.852  0.00  0.00    +0.000 Cl
ATOM     12  C   UNL     1       9.418  12.189  18.508  0.00  0.00    +0.000 A 
ATOM     13  C   UNL     1       8.781  11.234  17.678  0.00  0.00    +0.000 A 
BRANCH  12  14
ATOM     14  C   UNL     1       9.541  13.573  17.965  0.00  0.00    +0.000 C 
ATOM     15  O   UNL     1       8.548  14.293  17.922  0.00  0.00    +0.000 OA
ATOM     16  N   UNL     1      10.795  13.989  17.574  0.00  0.00    +0.000 N 
ATOM     17  C   UNL     1      11.045  15.258  16.937  0.00  0.00    +0.000 C 
ATOM     18  H   UNL     1      11.562  13.327  17.600  0.00  0.00    +0.000 HD
ENDBRANCH  12  14
ENDBRANCH   4   7
BRANCH   1  19
ATOM     19  C   UNL     1       6.777   5.501  16.775  0.00  0.00    +0.000 C 
ATOM     20  C   UNL     1       7.752   4.869  17.800  0.00  0.00    +0.000 C 
ATOM     21  C   UNL     1       6.961   4.769  15.421  0.00  0.00    +0.000 C 
BRANCH  19  26
ATOM     22  C   UNL     1       3.610   3.967  18.470  0.00  0.00    +0.000 A 
ATOM     23  C   UNL     1       2.751   5.069  18.438  0.00  0.00    +0.000 A 
ATOM     24  C   UNL     1       3.156   6.273  17.857  0.00  0.00    +0.000 A 
ATOM     25  C   UNL     1       4.431   6.397  17.301  0.00  0.00    +0.000 A 
ATOM     26  C   UNL     1       5.339   5.324  17.325  0.00  0.00    +0.000 A 
ATOM     27  C   UNL     1       4.891   4.117  17.907  0.00  0.00    +0.000 A 
BRANCH  22  29
ATOM     28  C   UNL     1       3.480   1.494  18.433  0.00  0.00    +0.000 C 
ATOM     29  C   UNL     1       3.177   2.660  19.032  0.00  0.00    +0.000 C 
ATOM     30  C   UNL     1       2.370   2.678  20.303  0.00  0.00    +0.000 C 
ENDBRANCH  22  29
ENDBRANCH  19  26
ENDBRANCH   1  19
TORSDOF 5
ENDMDL
MODEL 9
REMARK VINA RESULT:      -8.4      2.981      4.486
REMARK  Name = 
REMARK  9 active torsions:
REMARK  status: ('A' for Active; 'I' for Inactive)
REMARK    1  A    between atoms: C_2  and  C_3
REMARK    2  A    between atoms: C_2  and  C_4
REMARK    3  A    between atoms: C_8  and  C_9
REMARK    4  A    between atoms: C_9  and  C_10
REMARK    5  A    between atoms: C_9  and  C_11
REMARK    6  A    between atoms: C_9  and  N_12
REMARK    7  A    between atoms: N_15  and  C_16
REMARK    8  A    between atoms: C_21  and  C_22
REMARK    9  A    between atoms: N_24  and  C_25
REMARK                            x       y       z     vdW  Elec       q    Type
REMARK                         _______ _______ _______ _____ _____    ______ ____
ROOT
ATOM      1  N   UNL     1       2.862   4.517  20.265  0.00  0.00    +0.000 N 
ATOM      2  C   UNL     1       2.307   5.721  19.882  0.00  0.00    +0.000 C 
ATOM      3  O   UNL     1       2.156   6.029  18.706  0.00  0.00    +0.000 OA
ATOM      4  N   UNL     1       1.976   6.539  20.946  0.00  0.00    +0.000 N 
ATOM      5  H   UNL     1       2.610   4.176  21.182  0.00  0.00    +0.000 HD
ATOM      6  H   UNL     1       2.489   6.382  21.804  0.00  0.00    +0.000 HD
ENDROOT
BRANCH   4   7
ATOM      7  C   UNL     1       1.279   7.771  20.807  0.00  0.00    +0.000 A 
ATOM      8  C   UNL     1       0.145   8.072  21.571  0.00  0.00    +0.000 A 
ATOM      9  C   UNL     1      -0.548   9.270  21.396  0.00  0.00    +0.000 A 
ATOM     10  C   UNL     1      -0.114  10.206  20.458  0.00  0.00    +0.000 A 
ATOM     11 CL   UNL     1      -1.025  11.674  20.380  0.00  0.00    +0.000 Cl
ATOM     12  C   UNL     1       1.022   9.933  19.682  0.00  0.00    +0.000 A 
ATOM     13  C   UNL     1       1.727   8.721  19.886  0.00  0.00    +0.000 A 
BRANCH  12  14
ATOM     14  C   UNL     1       1.557  10.852  18.636  0.00  0.00    +0.000 C 
ATOM     15  O   UNL     1       1.803  10.411  17.517  0.00  0.00    +0.000 OA
ATOM     16  N   UNL     1       1.708  12.178  18.977  0.00  0.00    +0.000 N 
ATOM     17  C   UNL     1       2.308  13.157  18.105  0.00  0.00    +0.000 C 
ATOM     18  H   UNL     1       1.522  12.463  19.932  0.00  0.00    +0.000 HD
ENDBRANCH  12  14
ENDBRANCH   4   7
BRANCH   1  19
ATOM     19  C   UNL     1       3.235   3.485  19.264  0.00  0.00    +0.000 C 
ATOM     20  C   UNL     1       1.990   3.037  18.458  0.00  0.00    +0.000 C 
ATOM     21  C   UNL     1       3.817   2.240  19.982  0.00  0.00    +0.000 C 
BRANCH  19  26
ATOM     22  C   UNL     1       6.314   5.377  17.784  0.00  0.00    +0.000 A 
ATOM     23  C   UNL     1       6.166   5.072  16.427  0.00  0.00    +0.000 A 
ATOM     24  C   UNL     1       5.087   4.305  15.983  0.00  0.00    +0.000 A 
ATOM     25  C   UNL     1       4.138   3.826  16.887  0.00  0.00    +0.000 A 
ATOM     26  C   UNL     1       4.251   4.089  18.263  0.00  0.00    +0.000 A 
ATOM     27  C   UNL     1       5.347   4.880  18.677  0.00  0.00    +0.000 A 
BRANCH  22  29
ATOM     28  C   UNL     1       8.176   5.900  19.330  0.00  0.00    +0.000 C 
ATOM     29  C   UNL     1       7.423   6.241  18.269  0.00  0.00    +0.000 C 
ATOM     30  C   UNL     1       7.678   7.530  17.535  0.00  0.00    +0.000 C 
ENDBRANCH  22  29
ENDBRANCH  19  26
ENDBRANCH   1  19
TORSDOF 5
ENDMDL
