MODEL 1
REMARK VINA RESULT:      -7.5      0.000      0.000
REMARK  Name = 
REMARK  6 active torsions:
REMARK  status: ('A' for Active; 'I' for Inactive)
REMARK    1  A    between atoms: C_1  and  O_2
REMARK    2  A    between atoms: O_2  and  C_3
REMARK    3  A    between atoms: C_3  and  C_5
REMARK    4  A    between atoms: C_5  and  C_14
REMARK    5  A    between atoms: C_6  and  C_7
REMARK    6  A    between atoms: C_14  and  N_15
REMARK                            x       y       z     vdW  Elec       q    Type
REMARK                         _______ _______ _______ _____ _____    ______ ____
ROOT
ATOM      1  C   UNL     1       3.600   5.496  19.193  0.00  0.00    +0.000 C 
ATOM      2  C   UNL     1       2.327   5.947  19.244  0.00  0.00    +0.000 C 
ENDROOT
BRANCH   2   3
ATOM      3  C   UNL     1       1.924   7.352  19.163  0.00  0.00    +0.000 A 
ATOM      4  C   UNL     1       1.469   7.995  20.321  0.00  0.00    +0.000 A 
ATOM      5  C   UNL     1       1.059   9.329  20.275  0.00  0.00    +0.000 A 
ATOM      6  C   UNL     1       1.113  10.022  19.068  0.00  0.00    +0.000 A 
ATOM      7 BR   UNL     1       0.507  11.811  18.988  0.00  0.00    +0.000 Br
ATOM      8  C   UNL     1       1.601   9.403  17.917  0.00  0.00    +0.000 A 
ATOM      9  C   UNL     1       2.009   8.065  17.965  0.00  0.00    +0.000 A 
ENDBRANCH   2   3
BRANCH   1  10
ATOM     10  C   UNL     1       3.869   4.028  19.175  0.00  0.00    +0.000 C 
ATOM     11  O   UNL     1       4.386   3.438  20.111  0.00  0.00    +0.000 OA
BRANCH  10  13
ATOM     12  C   UNL     1       2.692   2.264  18.187  0.00  0.00    +0.000 C 
ATOM     13  O   UNL     1       3.466   3.450  18.015  0.00  0.00    +0.000 OA
ENDBRANCH  10  13
ENDBRANCH   1  10
BRANCH   1  14
ATOM     14  C   UNL     1       4.843   6.345  19.183  0.00  0.00    +0.000 C 
BRANCH  14  15
ATOM     15  N   UNL     1       5.980   5.769  18.471  0.00  0.00    +0.000 N 
ATOM     16  C   UNL     1       7.121   5.207  19.028  0.00  0.00    +0.000 C 
ATOM     17  O   UNL     1       7.501   5.149  20.176  0.00  0.00    +0.000 OA
ATOM     18  C   UNL     1       7.869   4.539  17.850  0.00  0.00    +0.000 C 
ATOM     19  O   UNL     1       8.907   3.925  17.896  0.00  0.00    +0.000 OA
ATOM     20  C   UNL     1       7.059   4.789  16.669  0.00  0.00    +0.000 A 
ATOM     21  C   UNL     1       7.238   4.332  15.377  0.00  0.00    +0.000 A 
ATOM     22  C   UNL     1       6.266   4.697  14.456  0.00  0.00    +0.000 A 
ATOM     23  F   UNL     1       6.360   4.257  13.196  0.00  0.00    +0.000 F 
ATOM     24  C   UNL     1       5.177   5.507  14.818  0.00  0.00    +0.000 A 
ATOM     25  C   UNL     1       5.015   5.942  16.141  0.00  0.00    +0.000 A 
ATOM     26  C   UNL     1       5.959   5.546  17.074  0.00  0.00    +0.000 A 
ENDBRANCH  14  15
ENDBRANCH   1  14
TORSDOF 5
ENDMDL
MODEL 2
REMARK VINA RESULT:      -7.3      0.556      1.272
REMARK  Name = 
REMARK  6 active torsions:
REMARK  status: ('A' for Active; 'I' for Inactive)
REMARK    1  A    between atoms: C_1  and  O_2
REMARK    2  A    between atoms: O_2  and  C_3
REMARK    3  A    between atoms: C_3  and  C_5
REMARK    4  A    between atoms: C_5  and  C_14
REMARK    5  A    between atoms: C_6  and  C_7
REMARK    6  A    between atoms: C_14  and  N_15
REMARK                            x       y       z     vdW  Elec       q    Type
REMARK                         _______ _______ _______ _____ _____    ______ ____
ROOT
ATOM      1  C   UNL     1       3.530   5.744  18.978  0.00  0.00    +0.000 C 
ATOM      2  C   UNL     1       2.278   6.182  19.230  0.00  0.00    +0.000 C 
ENDROOT
BRANCH   2   3
ATOM      3  C   UNL     1       1.863   7.586  19.264  0.00  0.00    +0.000 A 
ATOM      4  C   UNL     1       1.931   8.342  18.087  0.00  0.00    +0.000 A 
ATOM      5  C   UNL     1       1.562   9.689  18.090  0.00  0.00    +0.000 A 
ATOM      6  C   UNL     1       1.115  10.276  19.271  0.00  0.00    +0.000 A 
ATOM      7 BR   UNL     1       0.666  12.112  19.291  0.00  0.00    +0.000 Br
ATOM      8  C   UNL     1       1.006   9.522  20.440  0.00  0.00    +0.000 A 
ATOM      9  C   UNL     1       1.380   8.174  20.436  0.00  0.00    +0.000 A 
ENDBRANCH   2   3
BRANCH   1  10
ATOM     10  C   UNL     1       3.798   4.281  18.862  0.00  0.00    +0.000 C 
ATOM     11  O   UNL     1       3.693   3.670  17.808  0.00  0.00    +0.000 OA
BRANCH  10  13
ATOM     12  C   UNL     1       3.274   2.745  20.547  0.00  0.00    +0.000 C 
ATOM     13  O   UNL     1       4.172   3.734  20.046  0.00  0.00    +0.000 OA
ENDBRANCH  10  13
ENDBRANCH   1  10
BRANCH   1  14
ATOM     14  C   UNL     1       4.757   6.603  18.821  0.00  0.00    +0.000 C 
BRANCH  14  15
ATOM     15  N   UNL     1       5.905   5.937  18.212  0.00  0.00    +0.000 N 
ATOM     16  C   UNL     1       6.976   5.344  18.868  0.00  0.00    +0.000 C 
ATOM     17  O   UNL     1       7.276   5.320  20.040  0.00  0.00    +0.000 OA
ATOM     18  C   UNL     1       7.761   4.586  17.771  0.00  0.00    +0.000 C 
ATOM     19  O   UNL     1       8.760   3.922  17.913  0.00  0.00    +0.000 OA
ATOM     20  C   UNL     1       7.044   4.822  16.529  0.00  0.00    +0.000 A 
ATOM     21  C   UNL     1       7.282   4.297  15.273  0.00  0.00    +0.000 A 
ATOM     22  C   UNL     1       6.392   4.668  14.275  0.00  0.00    +0.000 A 
ATOM     23  F   UNL     1       6.543   4.166  13.043  0.00  0.00    +0.000 F 
ATOM     24  C   UNL     1       5.328   5.549  14.527  0.00  0.00    +0.000 A 
ATOM     25  C   UNL     1       5.104   6.053  15.817  0.00  0.00    +0.000 A 
ATOM     26  C   UNL     1       5.963   5.651  16.828  0.00  0.00    +0.000 A 
ENDBRANCH  14  15
ENDBRANCH   1  14
TORSDOF 5
ENDMDL
MODEL 3
REMARK VINA RESULT:      -7.1      3.969      7.049
REMARK  Name = 
REMARK  6 active torsions:
REMARK  status: ('A' for Active; 'I' for Inactive)
REMARK    1  A    between atoms: C_1  and  O_2
REMARK    2  A    between atoms: O_2  and  C_3
REMARK    3  A    between atoms: C_3  and  C_5
REMARK    4  A    between atoms: C_5  and  C_14
REMARK    5  A    between atoms: C_6  and  C_7
REMARK    6  A    between atoms: C_14  and  N_15
REMARK                            x       y       z     vdW  Elec       q    Type
REMARK                         _______ _______ _______ _____ _____    ______ ____
ROOT
ATOM      1  C   UNL     1       7.031   5.728  16.831  0.00  0.00    +0.000 C 
ATOM      2  C   UNL     1       7.395   5.825  15.534  0.00  0.00    +0.000 C 
ENDROOT
BRANCH   2   3
ATOM      3  C   UNL     1       6.873   4.997  14.445  0.00  0.00    +0.000 A 
ATOM      4  C   UNL     1       5.614   4.401  14.589  0.00  0.00    +0.000 A 
ATOM      5  C   UNL     1       5.095   3.590  13.578  0.00  0.00    +0.000 A 
ATOM      6  C   UNL     1       5.835   3.382  12.417  0.00  0.00    +0.000 A 
ATOM      7 BR   UNL     1       5.161   2.241  11.069  0.00  0.00    +0.000 Br
ATOM      8  C   UNL     1       7.074   4.001  12.246  0.00  0.00    +0.000 A 
ATOM      9  C   UNL     1       7.593   4.812  13.262  0.00  0.00    +0.000 A 
ENDBRANCH   2   3
BRANCH   1  10
ATOM     10  C   UNL     1       7.556   6.709  17.826  0.00  0.00    +0.000 C 
ATOM     11  O   UNL     1       7.946   6.380  18.937  0.00  0.00    +0.000 OA
BRANCH  10  13
ATOM     12  C   UNL     1       8.305   8.905  18.126  0.00  0.00    +0.000 C 
ATOM     13  O   UNL     1       7.553   7.977  17.345  0.00  0.00    +0.000 OA
ENDBRANCH  10  13
ENDBRANCH   1  10
BRANCH   1  14
ATOM     14  C   UNL     1       6.135   4.675  17.427  0.00  0.00    +0.000 C 
BRANCH  14  15
ATOM     15  N   UNL     1       4.867   5.168  17.956  0.00  0.00    +0.000 N 
ATOM     16  C   UNL     1       4.148   6.272  17.517  0.00  0.00    +0.000 C 
ATOM     17  O   UNL     1       4.419   7.127  16.703  0.00  0.00    +0.000 OA
ATOM     18  C   UNL     1       2.786   6.193  18.245  0.00  0.00    +0.000 C 
ATOM     19  O   UNL     1       1.854   6.954  18.141  0.00  0.00    +0.000 OA
ATOM     20  C   UNL     1       2.845   5.002  19.077  0.00  0.00    +0.000 A 
ATOM     21  C   UNL     1       1.857   4.435  19.858  0.00  0.00    +0.000 A 
ATOM     22  C   UNL     1       2.190   3.256  20.510  0.00  0.00    +0.000 A 
ATOM     23  F   UNL     1       1.267   2.635  21.254  0.00  0.00    +0.000 F 
ATOM     24  C   UNL     1       3.471   2.691  20.400  0.00  0.00    +0.000 A 
ATOM     25  C   UNL     1       4.449   3.283  19.586  0.00  0.00    +0.000 A 
ATOM     26  C   UNL     1       4.108   4.436  18.898  0.00  0.00    +0.000 A 
ENDBRANCH  14  15
ENDBRANCH   1  14
TORSDOF 5
ENDMDL
MODEL 4
REMARK VINA RESULT:      -7.1      3.736      7.004
REMARK  Name = 
REMARK  6 active torsions:
REMARK  status: ('A' for Active; 'I' for Inactive)
REMARK    1  A    between atoms: C_1  and  O_2
REMARK    2  A    between atoms: O_2  and  C_3
REMARK    3  A    between atoms: C_3  and  C_5
REMARK    4  A    between atoms: C_5  and  C_14
REMARK    5  A    between atoms: C_6  and  C_7
REMARK    6  A    between atoms: C_14  and  N_15
REMARK                            x       y       z     vdW  Elec       q    Type
REMARK                         _______ _______ _______ _____ _____    ______ ____
ROOT
ATOM      1  C   UNL     1       6.733   6.462  16.729  0.00  0.00    +0.000 C 
ATOM      2  C   UNL     1       7.383   5.524  16.007  0.00  0.00    +0.000 C 
ENDROOT
BRANCH   2   3
ATOM      3  C   UNL     1       6.824   4.800  14.863  0.00  0.00    +0.000 A 
ATOM      4  C   UNL     1       7.468   4.890  13.623  0.00  0.00    +0.000 A 
ATOM      5  C   UNL     1       6.951   4.227  12.508  0.00  0.00    +0.000 A 
ATOM      6  C   UNL     1       5.793   3.466  12.638  0.00  0.00    +0.000 A 
ATOM      7 BR   UNL     1       5.058   2.612  11.119  0.00  0.00    +0.000 Br
ATOM      8  C   UNL     1       5.164   3.338  13.877  0.00  0.00    +0.000 A 
ATOM      9  C   UNL     1       5.682   4.005  14.993  0.00  0.00    +0.000 A 
ENDBRANCH   2   3
BRANCH   1  10
ATOM     10  C   UNL     1       7.454   7.206  17.803  0.00  0.00    +0.000 C 
ATOM     11  O   UNL     1       7.951   6.653  18.773  0.00  0.00    +0.000 OA
BRANCH  10  13
ATOM     12  C   UNL     1       8.483   9.245  18.308  0.00  0.00    +0.000 C 
ATOM     13  O   UNL     1       7.492   8.541  17.562  0.00  0.00    +0.000 OA
ENDBRANCH  10  13
ENDBRANCH   1  10
BRANCH   1  14
ATOM     14  C   UNL     1       5.283   6.843  16.592  0.00  0.00    +0.000 C 
BRANCH  14  15
ATOM     15  N   UNL     1       4.416   6.381  17.672  0.00  0.00    +0.000 N 
ATOM     16  C   UNL     1       4.581   5.244  18.452  0.00  0.00    +0.000 C 
ATOM     17  O   UNL     1       5.377   4.335  18.375  0.00  0.00    +0.000 OA
ATOM     18  C   UNL     1       3.537   5.368  19.587  0.00  0.00    +0.000 C 
ATOM     19  O   UNL     1       3.348   4.595  20.496  0.00  0.00    +0.000 OA
ATOM     20  C   UNL     1       2.832   6.616  19.348  0.00  0.00    +0.000 A 
ATOM     21  C   UNL     1       1.865   7.232  20.119  0.00  0.00    +0.000 A 
ATOM     22  C   UNL     1       1.401   8.457  19.660  0.00  0.00    +0.000 A 
ATOM     23  F   UNL     1       0.491   9.124  20.380  0.00  0.00    +0.000 F 
ATOM     24  C   UNL     1       1.873   9.020  18.463  0.00  0.00    +0.000 A 
ATOM     25  C   UNL     1       2.866   8.377  17.709  0.00  0.00    +0.000 A 
ATOM     26  C   UNL     1       3.364   7.175  18.186  0.00  0.00    +0.000 A 
ENDBRANCH  14  15
ENDBRANCH   1  14
TORSDOF 5
ENDMDL
MODEL 5
REMARK VINA RESULT:      -7.1      3.872      7.006
REMARK  Name = 
REMARK  6 active torsions:
REMARK  status: ('A' for Active; 'I' for Inactive)
REMARK    1  A    between atoms: C_1  and  O_2
REMARK    2  A    between atoms: O_2  and  C_3
REMARK    3  A    between atoms: C_3  and  C_5
REMARK    4  A    between atoms: C_5  and  C_14
REMARK    5  A    between atoms: C_6  and  C_7
REMARK    6  A    between atoms: C_14  and  N_15
REMARK                            x       y       z     vdW  Elec       q    Type
REMARK                         _______ _______ _______ _____ _____    ______ ____
ROOT
ATOM      1  C   UNL     1       6.991   5.560  17.191  0.00  0.00    +0.000 C 
ATOM      2  C   UNL     1       7.348   5.674  15.893  0.00  0.00    +0.000 C 
ENDROOT
BRANCH   2   3
ATOM      3  C   UNL     1       6.738   4.945  14.780  0.00  0.00    +0.000 A 
ATOM      4  C   UNL     1       7.464   4.787  13.593  0.00  0.00    +0.000 A 
ATOM      5  C   UNL     1       6.904   4.113  12.506  0.00  0.00    +0.000 A 
ATOM      6  C   UNL     1       5.618   3.589  12.612  0.00  0.00    +0.000 A 
ATOM      7 BR   UNL     1       4.834   2.724  11.125  0.00  0.00    +0.000 Br
ATOM      8  C   UNL     1       4.901   3.706  13.803  0.00  0.00    +0.000 A 
ATOM      9  C   UNL     1       5.463   4.384  14.890  0.00  0.00    +0.000 A 
ENDBRANCH   2   3
BRANCH   1  10
ATOM     10  C   UNL     1       7.618   6.445  18.216  0.00  0.00    +0.000 C 
ATOM     11  O   UNL     1       8.019   6.028  19.293  0.00  0.00    +0.000 OA
BRANCH  10  13
ATOM     12  C   UNL     1       8.571   8.551  18.574  0.00  0.00    +0.000 C 
ATOM     13  O   UNL     1       7.691   7.735  17.803  0.00  0.00    +0.000 OA
ENDBRANCH  10  13
ENDBRANCH   1  10
BRANCH   1  14
ATOM     14  C   UNL     1       6.003   4.575  17.757  0.00  0.00    +0.000 C 
BRANCH  14  15
ATOM     15  N   UNL     1       4.774   5.162  18.280  0.00  0.00    +0.000 N 
ATOM     16  C   UNL     1       4.154   6.330  17.854  0.00  0.00    +0.000 C 
ATOM     17  O   UNL     1       4.507   7.174  17.061  0.00  0.00    +0.000 OA
ATOM     18  C   UNL     1       2.780   6.350  18.564  0.00  0.00    +0.000 C 
ATOM     19  O   UNL     1       1.917   7.189  18.464  0.00  0.00    +0.000 OA
ATOM     20  C   UNL     1       2.729   5.143  19.372  0.00  0.00    +0.000 A 
ATOM     21  C   UNL     1       1.686   4.646  20.130  0.00  0.00    +0.000 A 
ATOM     22  C   UNL     1       1.912   3.431  20.763  0.00  0.00    +0.000 A 
ATOM     23  F   UNL     1       0.930   2.876  21.483  0.00  0.00    +0.000 F 
ATOM     24  C   UNL     1       3.143   2.764  20.657  0.00  0.00    +0.000 A 
ATOM     25  C   UNL     1       4.177   3.288  19.867  0.00  0.00    +0.000 A 
ATOM     26  C   UNL     1       3.943   4.478  19.198  0.00  0.00    +0.000 A 
ENDBRANCH  14  15
ENDBRANCH   1  14
TORSDOF 5
ENDMDL
MODEL 6
REMARK VINA RESULT:      -7.0      3.036      4.798
REMARK  Name = 
REMARK  6 active torsions:
REMARK  status: ('A' for Active; 'I' for Inactive)
REMARK    1  A    between atoms: C_1  and  O_2
REMARK    2  A    between atoms: O_2  and  C_3
REMARK    3  A    between atoms: C_3  and  C_5
REMARK    4  A    between atoms: C_5  and  C_14
REMARK    5  A    between atoms: C_6  and  C_7
REMARK    6  A    between atoms: C_14  and  N_15
REMARK                            x       y       z     vdW  Elec       q    Type
REMARK                         _______ _______ _______ _____ _____    ______ ____
ROOT
ATOM      1  C   UNL     1       4.361   6.068  16.852  0.00  0.00    +0.000 C 
ATOM      2  C   UNL     1       4.191   7.289  17.404  0.00  0.00    +0.000 C 
ENDROOT
BRANCH   2   3
ATOM      3  C   UNL     1       3.142   7.645  18.362  0.00  0.00    +0.000 A 
ATOM      4  C   UNL     1       2.262   8.688  18.047  0.00  0.00    +0.000 A 
ATOM      5  C   UNL     1       1.263   9.066  18.946  0.00  0.00    +0.000 A 
ATOM      6  C   UNL     1       1.140   8.392  20.158  0.00  0.00    +0.000 A 
ATOM      7 BR   UNL     1      -0.177   8.935  21.402  0.00  0.00    +0.000 Br
ATOM      8  C   UNL     1       1.986   7.326  20.465  0.00  0.00    +0.000 A 
ATOM      9  C   UNL     1       2.988   6.951  19.564  0.00  0.00    +0.000 A 
ENDBRANCH   2   3
BRANCH   1  10
ATOM     10  C   UNL     1       5.539   5.806  15.974  0.00  0.00    +0.000 C 
ATOM     11  O   UNL     1       6.652   6.255  16.208  0.00  0.00    +0.000 OA
BRANCH  10  13
ATOM     12  C   UNL     1       6.188   4.011  14.623  0.00  0.00    +0.000 C 
ATOM     13  O   UNL     1       5.223   5.018  14.916  0.00  0.00    +0.000 OA
ENDBRANCH  10  13
ENDBRANCH   1  10
BRANCH   1  14
ATOM     14  C   UNL     1       3.439   4.888  17.003  0.00  0.00    +0.000 C 
BRANCH  14  15
ATOM     15  N   UNL     1       3.742   4.004  18.124  0.00  0.00    +0.000 N 
ATOM     16  C   UNL     1       4.997   3.578  18.540  0.00  0.00    +0.000 C 
ATOM     17  O   UNL     1       6.093   3.728  18.047  0.00  0.00    +0.000 OA
ATOM     18  C   UNL     1       4.764   2.874  19.897  0.00  0.00    +0.000 C 
ATOM     19  O   UNL     1       5.595   2.366  20.611  0.00  0.00    +0.000 OA
ATOM     20  C   UNL     1       3.336   2.959  20.152  0.00  0.00    +0.000 A 
ATOM     21  C   UNL     1       2.625   2.561  21.269  0.00  0.00    +0.000 A 
ATOM     22  C   UNL     1       1.261   2.816  21.250  0.00  0.00    +0.000 A 
ATOM     23  F   UNL     1       0.519   2.489  22.316  0.00  0.00    +0.000 F 
ATOM     24  C   UNL     1       0.639   3.418  20.145  0.00  0.00    +0.000 A 
ATOM     25  C   UNL     1       1.391   3.824  19.032  0.00  0.00    +0.000 A 
ATOM     26  C   UNL     1       2.760   3.613  19.063  0.00  0.00    +0.000 A 
ENDBRANCH  14  15
ENDBRANCH   1  14
TORSDOF 5
ENDMDL
MODEL 7
REMARK VINA RESULT:      -7.0      2.448      4.153
REMARK  Name = 
REMARK  6 active torsions:
REMARK  status: ('A' for Active; 'I' for Inactive)
REMARK    1  A    between atoms: C_1  and  O_2
REMARK    2  A    between atoms: O_2  and  C_3
REMARK    3  A    between atoms: C_3  and  C_5
REMARK    4  A    between atoms: C_5  and  C_14
REMARK    5  A    between atoms: C_6  and  C_7
REMARK    6  A    between atoms: C_14  and  N_15
REMARK                            x       y       z     vdW  Elec       q    Type
REMARK                         _______ _______ _______ _____ _____    ______ ____
ROOT
ATOM      1  C   UNL     1       4.064   7.114  17.637  0.00  0.00    +0.000 C 
ATOM      2  C   UNL     1       3.120   8.011  17.279  0.00  0.00    +0.000 C 
ENDROOT
BRANCH   2   3
ATOM      3  C   UNL     1       2.210   8.694  18.200  0.00  0.00    +0.000 A 
ATOM      4  C   UNL     1       1.663   9.927  17.823  0.00  0.00    +0.000 A 
ATOM      5  C   UNL     1       0.807  10.614  18.686  0.00  0.00    +0.000 A 
ATOM      6  C   UNL     1       0.491  10.061  19.925  0.00  0.00    +0.000 A 
ATOM      7 BR   UNL     1      -0.623  11.013  21.119  0.00  0.00    +0.000 Br
ATOM      8  C   UNL     1       1.000   8.816  20.294  0.00  0.00    +0.000 A 
ATOM      9  C   UNL     1       1.860   8.130  19.429  0.00  0.00    +0.000 A 
ENDBRANCH   2   3
BRANCH   1  10
ATOM     10  C   UNL     1       5.003   6.572  16.611  0.00  0.00    +0.000 C 
ATOM     11  O   UNL     1       4.694   5.676  15.839  0.00  0.00    +0.000 OA
BRANCH  10  13
ATOM     12  C   UNL     1       7.296   6.351  17.019  0.00  0.00    +0.000 C 
ATOM     13  O   UNL     1       6.208   7.194  16.642  0.00  0.00    +0.000 OA
ENDBRANCH  10  13
ENDBRANCH   1  10
BRANCH   1  14
ATOM     14  C   UNL     1       4.272   6.544  19.015  0.00  0.00    +0.000 C 
BRANCH  14  15
ATOM     15  N   UNL     1       4.286   5.087  19.087  0.00  0.00    +0.000 N 
ATOM     16  C   UNL     1       5.303   4.282  19.584  0.00  0.00    +0.000 C 
ATOM     17  O   UNL     1       6.420   4.554  19.964  0.00  0.00    +0.000 OA
ATOM     18  C   UNL     1       4.705   2.857  19.652  0.00  0.00    +0.000 C 
ATOM     19  O   UNL     1       5.250   1.851  20.039  0.00  0.00    +0.000 OA
ATOM     20  C   UNL     1       3.340   2.972  19.164  0.00  0.00    +0.000 A 
ATOM     21  C   UNL     1       2.352   2.008  19.104  0.00  0.00    +0.000 A 
ATOM     22  C   UNL     1       1.116   2.425  18.632  0.00  0.00    +0.000 A 
ATOM     23  F   UNL     1       0.104   1.549  18.583  0.00  0.00    +0.000 F 
ATOM     24  C   UNL     1       0.895   3.747  18.214  0.00  0.00    +0.000 A 
ATOM     25  C   UNL     1       1.914   4.707  18.301  0.00  0.00    +0.000 A 
ATOM     26  C   UNL     1       3.138   4.307  18.813  0.00  0.00    +0.000 A 
ENDBRANCH  14  15
ENDBRANCH   1  14
TORSDOF 5
ENDMDL
MODEL 8
REMARK VINA RESULT:      -7.0      2.950      5.140
REMARK  Name = 
REMARK  6 active torsions:
REMARK  status: ('A' for Active; 'I' for Inactive)
REMARK    1  A    between atoms: C_1  and  O_2
REMARK    2  A    between atoms: O_2  and  C_3
REMARK    3  A    between atoms: C_3  and  C_5
REMARK    4  A    between atoms: C_5  and  C_14
REMARK    5  A    between atoms: C_6  and  C_7
REMARK    6  A    between atoms: C_14  and  N_15
REMARK                            x       y       z     vdW  Elec       q    Type
REMARK                         _______ _______ _______ _____ _____    ______ ____
ROOT
ATOM      1  C   UNL     1       4.421   6.779  17.341  0.00  0.00    +0.000 C 
ATOM      2  C   UNL     1       3.580   7.821  17.167  0.00  0.00    +0.000 C 
ENDROOT
BRANCH   2   3
ATOM      3  C   UNL     1       2.624   8.312  18.161  0.00  0.00    +0.000 A 
ATOM      4  C   UNL     1       1.872   9.458  17.871  0.00  0.00    +0.000 A 
ATOM      5  C   UNL     1       0.965   9.963  18.805  0.00  0.00    +0.000 A 
ATOM      6  C   UNL     1       0.806   9.316  20.027  0.00  0.00    +0.000 A 
ATOM      7 BR   UNL     1      -0.380  10.028  21.316  0.00  0.00    +0.000 Br
ATOM      8  C   UNL     1       1.521   8.152  20.311  0.00  0.00    +0.000 A 
ATOM      9  C   UNL     1       2.431   7.649  19.375  0.00  0.00    +0.000 A 
ENDBRANCH   2   3
BRANCH   1  10
ATOM     10  C   UNL     1       5.426   6.449  16.289  0.00  0.00    +0.000 C 
ATOM     11  O   UNL     1       5.263   6.723  15.109  0.00  0.00    +0.000 OA
BRANCH  10  13
ATOM     12  C   UNL     1       7.079   4.827  15.955  0.00  0.00    +0.000 C 
ATOM     13  O   UNL     1       6.519   5.829  16.801  0.00  0.00    +0.000 OA
ENDBRANCH  10  13
ENDBRANCH   1  10
BRANCH   1  14
ATOM     14  C   UNL     1       4.446   5.845  18.522  0.00  0.00    +0.000 C 
BRANCH  14  15
ATOM     15  N   UNL     1       3.541   4.703  18.427  0.00  0.00    +0.000 N 
ATOM     16  C   UNL     1       3.369   3.858  17.338  0.00  0.00    +0.000 C 
ATOM     17  O   UNL     1       3.815   3.907  16.214  0.00  0.00    +0.000 OA
ATOM     18  C   UNL     1       2.493   2.693  17.856  0.00  0.00    +0.000 C 
ATOM     19  O   UNL     1       2.115   1.729  17.234  0.00  0.00    +0.000 OA
ATOM     20  C   UNL     1       2.225   2.984  19.254  0.00  0.00    +0.000 A 
ATOM     21  C   UNL     1       1.563   2.216  20.192  0.00  0.00    +0.000 A 
ATOM     22  C   UNL     1       1.501   2.735  21.478  0.00  0.00    +0.000 A 
ATOM     23  F   UNL     1       0.906   2.024  22.444  0.00  0.00    +0.000 F 
ATOM     24  C   UNL     1       2.060   3.984  21.795  0.00  0.00    +0.000 A 
ATOM     25  C   UNL     1       2.739   4.733  20.823  0.00  0.00    +0.000 A 
ATOM     26  C   UNL     1       2.842   4.200  19.549  0.00  0.00    +0.000 A 
ENDBRANCH  14  15
ENDBRANCH   1  14
TORSDOF 5
ENDMDL
MODEL 9
REMARK VINA RESULT:      -7.0      2.818      4.536
REMARK  Name = 
REMARK  6 active torsions:
REMARK  status: ('A' for Active; 'I' for Inactive)
REMARK    1  A    between atoms: C_1  and  O_2
REMARK    2  A    between atoms: O_2  and  C_3
REMARK    3  A    between atoms: C_3  and  C_5
REMARK    4  A    between atoms: C_5  and  C_14
REMARK    5  A    between atoms: C_6  and  C_7
REMARK    6  A    between atoms: C_14  and  N_15
REMARK                            x       y       z     vdW  Elec       q    Type
REMARK                         _______ _______ _______ _____ _____    ______ ____
ROOT
ATOM      1  C   UNL     1       4.145   6.862  17.585  0.00  0.00    +0.000 C 
ATOM      2  C   UNL     1       3.124   7.676  17.241  0.00  0.00    +0.000 C 
ENDROOT
BRANCH   2   3
ATOM      3  C   UNL     1       2.280   8.416  18.180  0.00  0.00    +0.000 A 
ATOM      4  C   UNL     1       1.714   9.631  17.772  0.00  0.00    +0.000 A 
ATOM      5  C   UNL     1       0.919  10.371  18.650  0.00  0.00    +0.000 A 
ATOM      6  C   UNL     1       0.683   9.889  19.934  0.00  0.00    +0.000 A 
ATOM      7 BR   UNL     1      -0.347  10.914  21.144  0.00  0.00    +0.000 Br
ATOM      8  C   UNL     1       1.209   8.661  20.338  0.00  0.00    +0.000 A 
ATOM      9  C   UNL     1       2.007   7.923  19.458  0.00  0.00    +0.000 A 
ENDBRANCH   2   3
BRANCH   1  10
ATOM     10  C   UNL     1       5.001   6.252  16.525  0.00  0.00    +0.000 C 
ATOM     11  O   UNL     1       6.080   6.722  16.194  0.00  0.00    +0.000 OA
BRANCH  10  13
ATOM     12  C   UNL     1       5.379   4.221  15.427  0.00  0.00    +0.000 C 
ATOM     13  O   UNL     1       4.443   5.134  15.997  0.00  0.00    +0.000 OA
ENDBRANCH  10  13
ENDBRANCH   1  10
BRANCH   1  14
ATOM     14  C   UNL     1       4.522   6.451  18.983  0.00  0.00    +0.000 C 
BRANCH  14  15
ATOM     15  N   UNL     1       4.398   5.025  19.265  0.00  0.00    +0.000 N 
ATOM     16  C   UNL     1       5.390   4.059  19.158  0.00  0.00    +0.000 C 
ATOM     17  O   UNL     1       6.519   4.122  18.725  0.00  0.00    +0.000 OA
ATOM     18  C   UNL     1       4.797   2.785  19.805  0.00  0.00    +0.000 C 
ATOM     19  O   UNL     1       5.334   1.711  19.934  0.00  0.00    +0.000 OA
ATOM     20  C   UNL     1       3.458   3.145  20.243  0.00  0.00    +0.000 A 
ATOM     21  C   UNL     1       2.544   2.393  20.956  0.00  0.00    +0.000 A 
ATOM     22  C   UNL     1       1.350   3.024  21.279  0.00  0.00    +0.000 A 
ATOM     23  F   UNL     1       0.435   2.364  22.000  0.00  0.00    +0.000 F 
ATOM     24  C   UNL     1       1.082   4.342  20.877  0.00  0.00    +0.000 A 
ATOM     25  C   UNL     1       2.038   5.085  20.167  0.00  0.00    +0.000 A 
ATOM     26  C   UNL     1       3.248   4.475  19.880  0.00  0.00    +0.000 A 
ENDBRANCH  14  15
ENDBRANCH   1  14
TORSDOF 5
ENDMDL
