MODEL 1
REMARK VINA RESULT:      -7.0      0.000      0.000
REMARK  Name = 
REMARK  14 active torsions:
REMARK  status: ('A' for Active; 'I' for Inactive)
REMARK    1  A    between atoms: C_1  and  C_2
REMARK    2  A    between atoms: C_2  and  O_3
REMARK    3  A    between atoms: O_3  and  C_4
REMARK    4  A    between atoms: C_4  and  C_6
REMARK    5  A    between atoms: C_7  and  N_8
REMARK    6  A    between atoms: C_15  and  C_17
REMARK    7  A    between atoms: C_17  and  C_18
REMARK    8  A    between atoms: C_17  and  N_25
REMARK    9  A    between atoms: C_18  and  C_19
REMARK   10  A    between atoms: C_26  and  O_28
REMARK   11  A    between atoms: O_28  and  C_29
REMARK   12  A    between atoms: C_29  and  C_30
REMARK   13  A    between atoms: C_29  and  C_31
REMARK   14  A    between atoms: C_29  and  C_32
REMARK                            x       y       z     vdW  Elec       q    Type
REMARK                         _______ _______ _______ _____ _____    ______ ____
ROOT
ATOM      1  C   UNL     1      -2.818  11.626  18.741  0.00  0.00    +0.000 A 
ATOM      2  C   UNL     1      -2.989  11.296  17.400  0.00  0.00    +0.000 A 
ATOM      3  S   UNL     1      -1.776  10.234  16.820  0.00  0.00    +0.000 S 
ATOM      4  C   UNL     1      -0.979  10.200  18.311  0.00  0.00    +0.000 A 
ATOM      5  C   UNL     1      -1.596  11.012  19.248  0.00  0.00    +0.000 A 
ATOM      6  C   UNL     1      -0.987  11.169  20.615  0.00  0.00    +0.000 C 
ATOM      7  C   UNL     1       0.508  10.789  20.557  0.00  0.00    +0.000 C 
ATOM      8  N   UNL     1       0.688   9.466  19.927  0.00  0.00    +0.000 N 
ATOM      9  C   UNL     1       1.330   8.461  20.643  0.00  0.00    +0.000 C 
ATOM     10  O   UNL     1       1.611   8.624  21.840  0.00  0.00    +0.000 OA
ATOM     11  C   UNL     1       0.293   9.401  18.512  0.00  0.00    +0.000 C 
ENDROOT
BRANCH   2  12
ATOM     12  N   UNL     1      -3.948  11.708  16.543  0.00  0.00    +0.000 N 
ATOM     13  H   UNL     1      -4.322  11.074  15.839  0.00  0.00    +0.000 HD
ATOM     14  H   UNL     1      -4.052  12.696  16.334  0.00  0.00    +0.000 HD
ENDBRANCH   2  12
BRANCH   1  15
ATOM     15  C   UNL     1      -3.728  12.470  19.538  0.00  0.00    +0.000 C 
ATOM     16  O   UNL     1      -3.333  13.384  20.251  0.00  0.00    +0.000 OA
BRANCH  15  17
ATOM     17  O   UNL     1      -5.052  12.132  19.413  0.00  0.00    +0.000 OA
BRANCH  17  19
ATOM     18  C   UNL     1      -6.531  13.689  18.287  0.00  0.00    +0.000 C 
ATOM     19  C   UNL     1      -5.997  13.194  19.620  0.00  0.00    +0.000 C 
ENDBRANCH  17  19
ENDBRANCH  15  17
ENDBRANCH   1  15
BRANCH   9  20
ATOM     20  C   UNL     1       1.681   7.096  19.971  0.00  0.00    +0.000 C 
BRANCH  20  21
ATOM     21  N   UNL     1       2.990   7.282  19.327  0.00  0.00    +0.000 N 
ATOM     22  C   UNL     1       3.215   6.747  18.090  0.00  0.00    +0.000 C 
ATOM     23  O   UNL     1       2.470   5.902  17.594  0.00  0.00    +0.000 OA
ATOM     24  H   UNL     1       3.501   8.142  19.511  0.00  0.00    +0.000 HD
BRANCH  22  25
ATOM     25  O   UNL     1       4.322   7.268  17.514  0.00  0.00    +0.000 OA
BRANCH  25  26
ATOM     26  C   UNL     1       5.444   6.383  17.219  0.00  0.00    +0.000 C 
ATOM     27  C   UNL     1       5.321   5.766  15.817  0.00  0.00    +0.000 C 
ATOM     28  C   UNL     1       6.711   7.253  17.247  0.00  0.00    +0.000 C 
ATOM     29  C   UNL     1       5.596   5.303  18.302  0.00  0.00    +0.000 C 
ENDBRANCH  25  26
ENDBRANCH  22  25
ENDBRANCH  20  21
BRANCH  20  30
ATOM     30  C   UNL     1       1.715   5.954  21.008  0.00  0.00    +0.000 C 
BRANCH  30  31
ATOM     31  C   UNL     1       1.830   4.518  20.505  0.00  0.00    +0.000 A 
ATOM     32  C   UNL     1       3.034   3.803  20.448  0.00  0.00    +0.000 A 
ATOM     33  C   UNL     1       3.113   2.589  19.755  0.00  0.00    +0.000 A 
ATOM     34  C   UNL     1       1.984   2.051  19.144  0.00  0.00    +0.000 A 
ATOM     35  C   UNL     1       0.755   2.685  19.297  0.00  0.00    +0.000 A 
ATOM     36  C   UNL     1       0.677   3.901  19.983  0.00  0.00    +0.000 A 
ENDBRANCH  30  31
ENDBRANCH  20  30
ENDBRANCH   9  20
TORSDOF 10
ENDMDL
MODEL 2
REMARK VINA RESULT:      -6.7      0.610      1.073
REMARK  Name = 
REMARK  14 active torsions:
REMARK  status: ('A' for Active; 'I' for Inactive)
REMARK    1  A    between atoms: C_1  and  C_2
REMARK    2  A    between atoms: C_2  and  O_3
REMARK    3  A    between atoms: O_3  and  C_4
REMARK    4  A    between atoms: C_4  and  C_6
REMARK    5  A    between atoms: C_7  and  N_8
REMARK    6  A    between atoms: C_15  and  C_17
REMARK    7  A    between atoms: C_17  and  C_18
REMARK    8  A    between atoms: C_17  and  N_25
REMARK    9  A    between atoms: C_18  and  C_19
REMARK   10  A    between atoms: C_26  and  O_28
REMARK   11  A    between atoms: O_28  and  C_29
REMARK   12  A    between atoms: C_29  and  C_30
REMARK   13  A    between atoms: C_29  and  C_31
REMARK   14  A    between atoms: C_29  and  C_32
REMARK                            x       y       z     vdW  Elec       q    Type
REMARK                         _______ _______ _______ _____ _____    ______ ____
ROOT
ATOM      1  C   UNL     1      -2.971  11.627  18.600  0.00  0.00    +0.000 A 
ATOM      2  C   UNL     1      -3.178  11.249  17.277  0.00  0.00    +0.000 A 
ATOM      3  S   UNL     1      -1.953  10.204  16.688  0.00  0.00    +0.000 S 
ATOM      4  C   UNL     1      -1.106  10.241  18.150  0.00  0.00    +0.000 A 
ATOM      5  C   UNL     1      -1.714  11.066  19.083  0.00  0.00    +0.000 A 
ATOM      6  C   UNL     1      -1.064  11.284  20.422  0.00  0.00    +0.000 C 
ATOM      7  C   UNL     1       0.439  10.946  20.324  0.00  0.00    +0.000 C 
ATOM      8  N   UNL     1       0.637   9.609  19.729  0.00  0.00    +0.000 N 
ATOM      9  C   UNL     1       1.333   8.647  20.454  0.00  0.00    +0.000 C 
ATOM     10  O   UNL     1       1.650   8.857  21.635  0.00  0.00    +0.000 OA
ATOM     11  C   UNL     1       0.196   9.487  18.333  0.00  0.00    +0.000 C 
ENDROOT
BRANCH   2  12
ATOM     12  N   UNL     1      -4.177  11.605  16.441  0.00  0.00    +0.000 N 
ATOM     13  H   UNL     1      -4.803  12.371  16.678  0.00  0.00    +0.000 HD
ATOM     14  H   UNL     1      -4.549  10.930  15.779  0.00  0.00    +0.000 HD
ENDBRANCH   2  12
BRANCH   1  15
ATOM     15  C   UNL     1      -3.878  12.470  19.401  0.00  0.00    +0.000 C 
ATOM     16  O   UNL     1      -3.519  13.055  20.416  0.00  0.00    +0.000 OA
BRANCH  15  17
ATOM     17  O   UNL     1      -5.158  12.532  18.911  0.00  0.00    +0.000 OA
BRANCH  17  19
ATOM     18  C   UNL     1      -6.609  10.597  19.077  0.00  0.00    +0.000 C 
ATOM     19  C   UNL     1      -6.173  11.906  19.711  0.00  0.00    +0.000 C 
ENDBRANCH  17  19
ENDBRANCH  15  17
ENDBRANCH   1  15
BRANCH   9  20
ATOM     20  C   UNL     1       1.702   7.272  19.814  0.00  0.00    +0.000 C 
BRANCH  20  21
ATOM     21  N   UNL     1       3.037   7.442  19.220  0.00  0.00    +0.000 N 
ATOM     22  C   UNL     1       3.331   6.830  18.035  0.00  0.00    +0.000 C 
ATOM     23  O   UNL     1       2.627   5.937  17.564  0.00  0.00    +0.000 OA
ATOM     24  H   UNL     1       3.522   8.323  19.369  0.00  0.00    +0.000 HD
BRANCH  22  25
ATOM     25  O   UNL     1       4.454   7.334  17.478  0.00  0.00    +0.000 OA
BRANCH  25  26
ATOM     26  C   UNL     1       5.608   6.457  17.304  0.00  0.00    +0.000 C 
ATOM     27  C   UNL     1       5.547   5.704  15.965  0.00  0.00    +0.000 C 
ATOM     28  C   UNL     1       6.851   7.361  17.284  0.00  0.00    +0.000 C 
ATOM     29  C   UNL     1       5.753   5.492  18.490  0.00  0.00    +0.000 C 
ENDBRANCH  25  26
ENDBRANCH  22  25
ENDBRANCH  20  21
BRANCH  20  30
ATOM     30  C   UNL     1       1.686   6.143  20.865  0.00  0.00    +0.000 C 
BRANCH  30  31
ATOM     31  C   UNL     1       1.808   4.699  20.384  0.00  0.00    +0.000 A 
ATOM     32  C   UNL     1       0.740   3.951  19.872  0.00  0.00    +0.000 A 
ATOM     33  C   UNL     1       0.859   2.570  19.679  0.00  0.00    +0.000 A 
ATOM     34  C   UNL     1       2.059   1.921  19.957  0.00  0.00    +0.000 A 
ATOM     35  C   UNL     1       3.166   2.666  20.348  0.00  0.00    +0.000 A 
ATOM     36  C   UNL     1       3.045   4.046  20.547  0.00  0.00    +0.000 A 
ENDBRANCH  30  31
ENDBRANCH  20  30
ENDBRANCH   9  20
TORSDOF 10
ENDMDL
MODEL 3
REMARK VINA RESULT:      -6.7      2.890      8.894
REMARK  Name = 
REMARK  14 active torsions:
REMARK  status: ('A' for Active; 'I' for Inactive)
REMARK    1  A    between atoms: C_1  and  C_2
REMARK    2  A    between atoms: C_2  and  O_3
REMARK    3  A    between atoms: O_3  and  C_4
REMARK    4  A    between atoms: C_4  and  C_6
REMARK    5  A    between atoms: C_7  and  N_8
REMARK    6  A    between atoms: C_15  and  C_17
REMARK    7  A    between atoms: C_17  and  C_18
REMARK    8  A    between atoms: C_17  and  N_25
REMARK    9  A    between atoms: C_18  and  C_19
REMARK   10  A    between atoms: C_26  and  O_28
REMARK   11  A    between atoms: O_28  and  C_29
REMARK   12  A    between atoms: C_29  and  C_30
REMARK   13  A    between atoms: C_29  and  C_31
REMARK   14  A    between atoms: C_29  and  C_32
REMARK                            x       y       z     vdW  Elec       q    Type
REMARK                         _______ _______ _______ _____ _____    ______ ____
ROOT
ATOM      1  C   UNL     1       3.089   4.262  18.729  0.00  0.00    +0.000 A 
ATOM      2  C   UNL     1       2.730   3.787  19.987  0.00  0.00    +0.000 A 
ATOM      3  S   UNL     1       2.102   5.016  21.004  0.00  0.00    +0.000 S 
ATOM      4  C   UNL     1       2.308   6.209  19.825  0.00  0.00    +0.000 A 
ATOM      5  C   UNL     1       2.882   5.705  18.669  0.00  0.00    +0.000 A 
ATOM      6  C   UNL     1       3.212   6.635  17.534  0.00  0.00    +0.000 C 
ATOM      7  C   UNL     1       3.316   8.079  18.067  0.00  0.00    +0.000 C 
ATOM      8  N   UNL     1       2.119   8.435  18.854  0.00  0.00    +0.000 N 
ATOM      9  C   UNL     1       1.359   9.533  18.465  0.00  0.00    +0.000 C 
ATOM     10  O   UNL     1       1.594  10.112  17.393  0.00  0.00    +0.000 OA
ATOM     11  C   UNL     1       1.943   7.657  20.088  0.00  0.00    +0.000 C 
ENDROOT
BRANCH   2  12
ATOM     12  N   UNL     1       2.829   2.533  20.478  0.00  0.00    +0.000 N 
ATOM     13  H   UNL     1       3.541   1.894  20.130  0.00  0.00    +0.000 HD
ATOM     14  H   UNL     1       2.020   2.090  20.903  0.00  0.00    +0.000 HD
ENDBRANCH   2  12
BRANCH   1  15
ATOM     15  C   UNL     1       3.604   3.441  17.618  0.00  0.00    +0.000 C 
ATOM     16  O   UNL     1       3.593   2.216  17.635  0.00  0.00    +0.000 OA
BRANCH  15  17
ATOM     17  O   UNL     1       4.101   4.173  16.569  0.00  0.00    +0.000 OA
BRANCH  17  19
ATOM     18  C   UNL     1       6.429   4.535  17.137  0.00  0.00    +0.000 C 
ATOM     19  C   UNL     1       5.451   3.881  16.178  0.00  0.00    +0.000 C 
ENDBRANCH  17  19
ENDBRANCH  15  17
ENDBRANCH   1  15
BRANCH   9  20
ATOM     20  C   UNL     1       0.175  10.042  19.346  0.00  0.00    +0.000 C 
BRANCH  20  21
ATOM     21  N   UNL     1       0.145  11.504  19.185  0.00  0.00    +0.000 N 
ATOM     22  C   UNL     1       0.780  12.296  20.099  0.00  0.00    +0.000 C 
ATOM     23  O   UNL     1       1.159  11.867  21.189  0.00  0.00    +0.000 OA
ATOM     24  H   UNL     1       0.123  11.886  18.243  0.00  0.00    +0.000 HD
BRANCH  22  25
ATOM     25  O   UNL     1       0.930  13.560  19.646  0.00  0.00    +0.000 OA
BRANCH  25  26
ATOM     26  C   UNL     1       2.272  14.036  19.321  0.00  0.00    +0.000 C 
ATOM     27  C   UNL     1       2.944  13.146  18.263  0.00  0.00    +0.000 C 
ATOM     28  C   UNL     1       2.108  15.444  18.724  0.00  0.00    +0.000 C 
ATOM     29  C   UNL     1       3.135  14.163  20.585  0.00  0.00    +0.000 C 
ENDBRANCH  25  26
ENDBRANCH  22  25
ENDBRANCH  20  21
BRANCH  20  30
ATOM     30  C   UNL     1      -1.159   9.395  18.918  0.00  0.00    +0.000 C 
BRANCH  30  31
ATOM     31  C   UNL     1      -2.053  10.151  17.939  0.00  0.00    +0.000 A 
ATOM     32  C   UNL     1      -3.045  11.061  18.326  0.00  0.00    +0.000 A 
ATOM     33  C   UNL     1      -3.986  11.531  17.403  0.00  0.00    +0.000 A 
ATOM     34  C   UNL     1      -3.927  11.131  16.071  0.00  0.00    +0.000 A 
ATOM     35  C   UNL     1      -2.877  10.327  15.644  0.00  0.00    +0.000 A 
ATOM     36  C   UNL     1      -1.940   9.851  16.568  0.00  0.00    +0.000 A 
ENDBRANCH  30  31
ENDBRANCH  20  30
ENDBRANCH   9  20
TORSDOF 10
ENDMDL
MODEL 4
REMARK VINA RESULT:      -6.6      0.645      1.237
REMARK  Name = 
REMARK  14 active torsions:
REMARK  status: ('A' for Active; 'I' for Inactive)
REMARK    1  A    between atoms: C_1  and  C_2
REMARK    2  A    between atoms: C_2  and  O_3
REMARK    3  A    between atoms: O_3  and  C_4
REMARK    4  A    between atoms: C_4  and  C_6
REMARK    5  A    between atoms: C_7  and  N_8
REMARK    6  A    between atoms: C_15  and  C_17
REMARK    7  A    between atoms: C_17  and  C_18
REMARK    8  A    between atoms: C_17  and  N_25
REMARK    9  A    between atoms: C_18  and  C_19
REMARK   10  A    between atoms: C_26  and  O_28
REMARK   11  A    between atoms: O_28  and  C_29
REMARK   12  A    between atoms: C_29  and  C_30
REMARK   13  A    between atoms: C_29  and  C_31
REMARK   14  A    between atoms: C_29  and  C_32
REMARK                            x       y       z     vdW  Elec       q    Type
REMARK                         _______ _______ _______ _____ _____    ______ ____
ROOT
ATOM      1  C   UNL     1      -2.822  11.943  19.149  0.00  0.00    +0.000 A 
ATOM      2  C   UNL     1      -3.150  11.586  17.845  0.00  0.00    +0.000 A 
ATOM      3  S   UNL     1      -2.050  10.455  17.173  0.00  0.00    +0.000 S 
ATOM      4  C   UNL     1      -1.101  10.425  18.572  0.00  0.00    +0.000 A 
ATOM      5  C   UNL     1      -1.580  11.289  19.543  0.00  0.00    +0.000 A 
ATOM      6  C   UNL     1      -0.821  11.454  20.833  0.00  0.00    +0.000 C 
ATOM      7  C   UNL     1       0.641  11.006  20.629  0.00  0.00    +0.000 C 
ATOM      8  N   UNL     1       0.698   9.661  20.025  0.00  0.00    +0.000 N 
ATOM      9  C   UNL     1       1.370   8.647  20.700  0.00  0.00    +0.000 C 
ATOM     10  O   UNL     1       1.784   8.829  21.855  0.00  0.00    +0.000 OA
ATOM     11  C   UNL     1       0.151   9.576  18.663  0.00  0.00    +0.000 C 
ENDROOT
BRANCH   2  12
ATOM     12  N   UNL     1      -4.177  12.017  17.082  0.00  0.00    +0.000 N 
ATOM     13  H   UNL     1      -5.137  11.777  17.321  0.00  0.00    +0.000 HD
ATOM     14  H   UNL     1      -4.019  12.255  16.107  0.00  0.00    +0.000 HD
ENDBRANCH   2  12
BRANCH   1  15
ATOM     15  C   UNL     1      -3.605  12.848  20.012  0.00  0.00    +0.000 C 
ATOM     16  O   UNL     1      -3.146  13.880  20.484  0.00  0.00    +0.000 OA
BRANCH  15  17
ATOM     17  O   UNL     1      -4.890  12.424  20.241  0.00  0.00    +0.000 OA
BRANCH  17  19
ATOM     18  C   UNL     1      -7.287  12.781  20.181  0.00  0.00    +0.000 C 
ATOM     19  C   UNL     1      -5.914  13.427  20.147  0.00  0.00    +0.000 C 
ENDBRANCH  17  19
ENDBRANCH  15  17
ENDBRANCH   1  15
BRANCH   9  20
ATOM     20  C   UNL     1       1.590   7.251  20.038  0.00  0.00    +0.000 C 
BRANCH  20  21
ATOM     21  N   UNL     1       2.965   7.257  19.516  0.00  0.00    +0.000 N 
ATOM     22  C   UNL     1       3.198   6.880  18.224  0.00  0.00    +0.000 C 
ATOM     23  O   UNL     1       2.354   6.291  17.549  0.00  0.00    +0.000 OA
ATOM     24  H   UNL     1       3.613   7.955  19.872  0.00  0.00    +0.000 HD
BRANCH  22  25
ATOM     25  O   UNL     1       4.435   7.242  17.814  0.00  0.00    +0.000 OA
BRANCH  25  26
ATOM     26  C   UNL     1       5.413   6.198  17.524  0.00  0.00    +0.000 C 
ATOM     27  C   UNL     1       5.216   4.974  18.432  0.00  0.00    +0.000 C 
ATOM     28  C   UNL     1       5.171   5.757  16.072  0.00  0.00    +0.000 C 
ATOM     29  C   UNL     1       6.846   6.744  17.613  0.00  0.00    +0.000 C 
ENDBRANCH  25  26
ENDBRANCH  22  25
ENDBRANCH  20  21
BRANCH  20  30
ATOM     30  C   UNL     1       1.372   6.110  21.053  0.00  0.00    +0.000 C 
BRANCH  30  31
ATOM     31  C   UNL     1       1.667   4.678  20.613  0.00  0.00    +0.000 A 
ATOM     32  C   UNL     1       0.985   4.019  19.582  0.00  0.00    +0.000 A 
ATOM     33  C   UNL     1       1.133   2.640  19.392  0.00  0.00    +0.000 A 
ATOM     34  C   UNL     1       1.995   1.906  20.201  0.00  0.00    +0.000 A 
ATOM     35  C   UNL     1       2.773   2.564  21.147  0.00  0.00    +0.000 A 
ATOM     36  C   UNL     1       2.620   3.941  21.342  0.00  0.00    +0.000 A 
ENDBRANCH  30  31
ENDBRANCH  20  30
ENDBRANCH   9  20
TORSDOF 10
ENDMDL
MODEL 5
REMARK VINA RESULT:      -6.6      0.990      1.753
REMARK  Name = 
REMARK  14 active torsions:
REMARK  status: ('A' for Active; 'I' for Inactive)
REMARK    1  A    between atoms: C_1  and  C_2
REMARK    2  A    between atoms: C_2  and  O_3
REMARK    3  A    between atoms: O_3  and  C_4
REMARK    4  A    between atoms: C_4  and  C_6
REMARK    5  A    between atoms: C_7  and  N_8
REMARK    6  A    between atoms: C_15  and  C_17
REMARK    7  A    between atoms: C_17  and  C_18
REMARK    8  A    between atoms: C_17  and  N_25
REMARK    9  A    between atoms: C_18  and  C_19
REMARK   10  A    between atoms: C_26  and  O_28
REMARK   11  A    between atoms: O_28  and  C_29
REMARK   12  A    between atoms: C_29  and  C_30
REMARK   13  A    between atoms: C_29  and  C_31
REMARK   14  A    between atoms: C_29  and  C_32
REMARK                            x       y       z     vdW  Elec       q    Type
REMARK                         _______ _______ _______ _____ _____    ______ ____
ROOT
ATOM      1  C   UNL     1      -2.799  11.890  19.123  0.00  0.00    +0.000 A 
ATOM      2  C   UNL     1      -3.088  11.548  17.806  0.00  0.00    +0.000 A 
ATOM      3  S   UNL     1      -1.964  10.432  17.150  0.00  0.00    +0.000 S 
ATOM      4  C   UNL     1      -1.054  10.388  18.574  0.00  0.00    +0.000 A 
ATOM      5  C   UNL     1      -1.564  11.236  19.543  0.00  0.00    +0.000 A 
ATOM      6  C   UNL     1      -0.843  11.388  20.855  0.00  0.00    +0.000 C 
ATOM      7  C   UNL     1       0.627  10.951  20.686  0.00  0.00    +0.000 C 
ATOM      8  N   UNL     1       0.708   9.613  20.065  0.00  0.00    +0.000 N 
ATOM      9  C   UNL     1       1.367   8.594  20.746  0.00  0.00    +0.000 C 
ATOM     10  O   UNL     1       1.748   8.763  21.914  0.00  0.00    +0.000 OA
ATOM     11  C   UNL     1       0.200   9.544  18.688  0.00  0.00    +0.000 C 
ENDROOT
BRANCH   2  12
ATOM     12  N   UNL     1      -4.096  11.984  17.020  0.00  0.00    +0.000 N 
ATOM     13  H   UNL     1      -3.939  12.723  16.337  0.00  0.00    +0.000 HD
ATOM     14  H   UNL     1      -5.059  11.870  17.320  0.00  0.00    +0.000 HD
ENDBRANCH   2  12
BRANCH   1  15
ATOM     15  C   UNL     1      -3.610  12.779  19.976  0.00  0.00    +0.000 C 
ATOM     16  O   UNL     1      -4.809  12.610  20.162  0.00  0.00    +0.000 OA
BRANCH  15  17
ATOM     17  O   UNL     1      -2.901  13.814  20.533  0.00  0.00    +0.000 OA
BRANCH  17  19
ATOM     18  C   UNL     1      -2.877  13.646  22.951  0.00  0.00    +0.000 C 
ATOM     19  C   UNL     1      -3.441  14.371  21.742  0.00  0.00    +0.000 C 
ENDBRANCH  17  19
ENDBRANCH  15  17
ENDBRANCH   1  15
BRANCH   9  20
ATOM     20  C   UNL     1       1.613   7.208  20.071  0.00  0.00    +0.000 C 
BRANCH  20  21
ATOM     21  N   UNL     1       2.977   7.255  19.526  0.00  0.00    +0.000 N 
ATOM     22  C   UNL     1       3.185   6.980  18.204  0.00  0.00    +0.000 C 
ATOM     23  O   UNL     1       2.327   6.446  17.501  0.00  0.00    +0.000 OA
ATOM     24  H   UNL     1       3.634   7.923  19.922  0.00  0.00    +0.000 HD
BRANCH  22  25
ATOM     25  O   UNL     1       4.414   7.372  17.799  0.00  0.00    +0.000 OA
BRANCH  25  26
ATOM     26  C   UNL     1       5.412   6.352  17.492  0.00  0.00    +0.000 C 
ATOM     27  C   UNL     1       5.343   5.180  18.484  0.00  0.00    +0.000 C 
ATOM     28  C   UNL     1       5.076   5.812  16.093  0.00  0.00    +0.000 C 
ATOM     29  C   UNL     1       6.822   6.959  17.431  0.00  0.00    +0.000 C 
ENDBRANCH  25  26
ENDBRANCH  22  25
ENDBRANCH  20  21
BRANCH  20  30
ATOM     30  C   UNL     1       1.444   6.056  21.083  0.00  0.00    +0.000 C 
BRANCH  30  31
ATOM     31  C   UNL     1       1.671   4.625  20.601  0.00  0.00    +0.000 A 
ATOM     32  C   UNL     1       1.150   4.109  19.408  0.00  0.00    +0.000 A 
ATOM     33  C   UNL     1       1.188   2.734  19.145  0.00  0.00    +0.000 A 
ATOM     34  C   UNL     1       1.783   1.860  20.050  0.00  0.00    +0.000 A 
ATOM     35  C   UNL     1       2.414   2.369  21.180  0.00  0.00    +0.000 A 
ATOM     36  C   UNL     1       2.370   3.742  21.446  0.00  0.00    +0.000 A 
ENDBRANCH  30  31
ENDBRANCH  20  30
ENDBRANCH   9  20
TORSDOF 10
ENDMDL
MODEL 6
REMARK VINA RESULT:      -6.5      2.918      9.074
REMARK  Name = 
REMARK  14 active torsions:
REMARK  status: ('A' for Active; 'I' for Inactive)
REMARK    1  A    between atoms: C_1  and  C_2
REMARK    2  A    between atoms: C_2  and  O_3
REMARK    3  A    between atoms: O_3  and  C_4
REMARK    4  A    between atoms: C_4  and  C_6
REMARK    5  A    between atoms: C_7  and  N_8
REMARK    6  A    between atoms: C_15  and  C_17
REMARK    7  A    between atoms: C_17  and  C_18
REMARK    8  A    between atoms: C_17  and  N_25
REMARK    9  A    between atoms: C_18  and  C_19
REMARK   10  A    between atoms: C_26  and  O_28
REMARK   11  A    between atoms: O_28  and  C_29
REMARK   12  A    between atoms: C_29  and  C_30
REMARK   13  A    between atoms: C_29  and  C_31
REMARK   14  A    between atoms: C_29  and  C_32
REMARK                            x       y       z     vdW  Elec       q    Type
REMARK                         _______ _______ _______ _____ _____    ______ ____
ROOT
ATOM      1  C   UNL     1       2.593   4.261  18.686  0.00  0.00    +0.000 A 
ATOM      2  C   UNL     1       2.287   3.831  19.973  0.00  0.00    +0.000 A 
ATOM      3  S   UNL     1       1.897   5.124  21.028  0.00  0.00    +0.000 S 
ATOM      4  C   UNL     1       2.144   6.286  19.825  0.00  0.00    +0.000 A 
ATOM      5  C   UNL     1       2.555   5.718  18.631  0.00  0.00    +0.000 A 
ATOM      6  C   UNL     1       2.896   6.603  17.463  0.00  0.00    +0.000 C 
ATOM      7  C   UNL     1       3.216   8.024  17.972  0.00  0.00    +0.000 C 
ATOM      8  N   UNL     1       2.140   8.519  18.854  0.00  0.00    +0.000 N 
ATOM      9  C   UNL     1       1.486   9.701  18.520  0.00  0.00    +0.000 C 
ATOM     10  O   UNL     1       1.698  10.248  17.427  0.00  0.00    +0.000 OA
ATOM     11  C   UNL     1       1.978   7.766  20.106  0.00  0.00    +0.000 C 
ENDROOT
BRANCH   2  12
ATOM     12  N   UNL     1       2.276   2.573  20.466  0.00  0.00    +0.000 N 
ATOM     13  H   UNL     1       2.369   2.407  21.466  0.00  0.00    +0.000 HD
ATOM     14  H   UNL     1       2.539   1.793  19.871  0.00  0.00    +0.000 HD
ENDBRANCH   2  12
BRANCH   1  15
ATOM     15  C   UNL     1       2.910   3.385  17.543  0.00  0.00    +0.000 C 
ATOM     16  O   UNL     1       2.056   2.953  16.779  0.00  0.00    +0.000 OA
BRANCH  15  17
ATOM     17  O   UNL     1       4.246   3.094  17.419  0.00  0.00    +0.000 OA
BRANCH  17  19
ATOM     18  C   UNL     1       6.110   4.589  17.011  0.00  0.00    +0.000 C 
ATOM     19  C   UNL     1       4.957   3.812  16.400  0.00  0.00    +0.000 C 
ENDBRANCH  17  19
ENDBRANCH  15  17
ENDBRANCH   1  15
BRANCH   9  20
ATOM     20  C   UNL     1       0.450  10.346  19.492  0.00  0.00    +0.000 C 
BRANCH  20  21
ATOM     21  N   UNL     1       0.373  11.768  19.123  0.00  0.00    +0.000 N 
ATOM     22  C   UNL     1       0.920  12.710  19.948  0.00  0.00    +0.000 C 
ATOM     23  O   UNL     1       1.248  12.457  21.107  0.00  0.00    +0.000 OA
ATOM     24  H   UNL     1       0.395  12.013  18.136  0.00  0.00    +0.000 HD
BRANCH  22  25
ATOM     25  O   UNL     1       1.049  13.904  19.327  0.00  0.00    +0.000 OA
BRANCH  25  26
ATOM     26  C   UNL     1       0.191  15.009  19.742  0.00  0.00    +0.000 C 
ATOM     27  C   UNL     1      -1.203  14.513  20.159  0.00  0.00    +0.000 C 
ATOM     28  C   UNL     1       0.856  15.648  20.972  0.00  0.00    +0.000 C 
ATOM     29  C   UNL     1       0.106  16.084  18.648  0.00  0.00    +0.000 C 
ENDBRANCH  25  26
ENDBRANCH  22  25
ENDBRANCH  20  21
BRANCH  20  30
ATOM     30  C   UNL     1      -0.925   9.656  19.384  0.00  0.00    +0.000 C 
BRANCH  30  31
ATOM     31  C   UNL     1      -1.881  10.106  18.282  0.00  0.00    +0.000 A 
ATOM     32  C   UNL     1      -1.770   9.714  16.941  0.00  0.00    +0.000 A 
ATOM     33  C   UNL     1      -2.522  10.349  15.945  0.00  0.00    +0.000 A 
ATOM     34  C   UNL     1      -3.424  11.356  16.278  0.00  0.00    +0.000 A 
ATOM     35  C   UNL     1      -3.637  11.671  17.615  0.00  0.00    +0.000 A 
ATOM     36  C   UNL     1      -2.881  11.041  18.610  0.00  0.00    +0.000 A 
ENDBRANCH  30  31
ENDBRANCH  20  30
ENDBRANCH   9  20
TORSDOF 10
ENDMDL
MODEL 7
REMARK VINA RESULT:      -6.4      2.169      2.813
REMARK  Name = 
REMARK  14 active torsions:
REMARK  status: ('A' for Active; 'I' for Inactive)
REMARK    1  A    between atoms: C_1  and  C_2
REMARK    2  A    between atoms: C_2  and  O_3
REMARK    3  A    between atoms: O_3  and  C_4
REMARK    4  A    between atoms: C_4  and  C_6
REMARK    5  A    between atoms: C_7  and  N_8
REMARK    6  A    between atoms: C_15  and  C_17
REMARK    7  A    between atoms: C_17  and  C_18
REMARK    8  A    between atoms: C_17  and  N_25
REMARK    9  A    between atoms: C_18  and  C_19
REMARK   10  A    between atoms: C_26  and  O_28
REMARK   11  A    between atoms: O_28  and  C_29
REMARK   12  A    between atoms: C_29  and  C_30
REMARK   13  A    between atoms: C_29  and  C_31
REMARK   14  A    between atoms: C_29  and  C_32
REMARK                            x       y       z     vdW  Elec       q    Type
REMARK                         _______ _______ _______ _____ _____    ______ ____
ROOT
ATOM      1  C   UNL     1      -0.964  11.937  19.933  0.00  0.00    +0.000 A 
ATOM      2  C   UNL     1      -0.383  12.728  18.947  0.00  0.00    +0.000 A 
ATOM      3  S   UNL     1       1.044  12.035  18.297  0.00  0.00    +0.000 S 
ATOM      4  C   UNL     1       0.949  10.687  19.313  0.00  0.00    +0.000 A 
ATOM      5  C   UNL     1      -0.135  10.761  20.173  0.00  0.00    +0.000 A 
ATOM      6  C   UNL     1      -0.341   9.685  21.205  0.00  0.00    +0.000 C 
ATOM      7  C   UNL     1       0.992   8.949  21.453  0.00  0.00    +0.000 C 
ATOM      8  N   UNL     1       1.590   8.504  20.179  0.00  0.00    +0.000 N 
ATOM      9  C   UNL     1       1.852   7.150  19.995  0.00  0.00    +0.000 C 
ATOM     10  O   UNL     1       1.454   6.315  20.822  0.00  0.00    +0.000 OA
ATOM     11  C   UNL     1       1.996   9.592  19.278  0.00  0.00    +0.000 C 
ENDROOT
BRANCH   2  12
ATOM     12  N   UNL     1      -0.788  13.927  18.476  0.00  0.00    +0.000 N 
ATOM     13  H   UNL     1      -0.136  14.705  18.409  0.00  0.00    +0.000 HD
ATOM     14  H   UNL     1      -1.768  14.188  18.528  0.00  0.00    +0.000 HD
ENDBRANCH   2  12
BRANCH   1  15
ATOM     15  C   UNL     1      -2.226  12.233  20.636  0.00  0.00    +0.000 C 
ATOM     16  O   UNL     1      -3.290  12.395  20.053  0.00  0.00    +0.000 OA
BRANCH  15  17
ATOM     17  O   UNL     1      -2.095  12.316  22.000  0.00  0.00    +0.000 OA
BRANCH  17  19
ATOM     18  C   UNL     1      -3.003  13.504  23.909  0.00  0.00    +0.000 C 
ATOM     19  C   UNL     1      -3.299  12.589  22.735  0.00  0.00    +0.000 C 
ENDBRANCH  17  19
ENDBRANCH  15  17
ENDBRANCH   1  15
BRANCH   9  20
ATOM     20  C   UNL     1       2.620   6.646  18.734  0.00  0.00    +0.000 C 
BRANCH  20  21
ATOM     21  N   UNL     1       3.827   5.969  19.232  0.00  0.00    +0.000 N 
ATOM     22  C   UNL     1       4.952   5.937  18.458  0.00  0.00    +0.000 C 
ATOM     23  O   UNL     1       4.933   6.221  17.260  0.00  0.00    +0.000 OA
ATOM     24  H   UNL     1       4.008   5.980  20.233  0.00  0.00    +0.000 HD
BRANCH  22  25
ATOM     25  O   UNL     1       6.040   5.573  19.171  0.00  0.00    +0.000 OA
BRANCH  25  26
ATOM     26  C   UNL     1       7.359   5.706  18.560  0.00  0.00    +0.000 C 
ATOM     27  C   UNL     1       7.561   7.104  17.954  0.00  0.00    +0.000 C 
ATOM     28  C   UNL     1       8.389   5.523  19.687  0.00  0.00    +0.000 C 
ATOM     29  C   UNL     1       7.602   4.599  17.523  0.00  0.00    +0.000 C 
ENDBRANCH  25  26
ENDBRANCH  22  25
ENDBRANCH  20  21
BRANCH  20  30
ATOM     30  C   UNL     1       1.746   5.697  17.887  0.00  0.00    +0.000 C 
BRANCH  30  31
ATOM     31  C   UNL     1       1.861   4.194  18.125  0.00  0.00    +0.000 A 
ATOM     32  C   UNL     1       1.236   3.518  19.181  0.00  0.00    +0.000 A 
ATOM     33  C   UNL     1       1.576   2.194  19.486  0.00  0.00    +0.000 A 
ATOM     34  C   UNL     1       2.515   1.513  18.716  0.00  0.00    +0.000 A 
ATOM     35  C   UNL     1       3.053   2.128  17.591  0.00  0.00    +0.000 A 
ATOM     36  C   UNL     1       2.719   3.453  17.291  0.00  0.00    +0.000 A 
ENDBRANCH  30  31
ENDBRANCH  20  30
ENDBRANCH   9  20
TORSDOF 10
ENDMDL
MODEL 8
REMARK VINA RESULT:      -6.4      2.816      9.299
REMARK  Name = 
REMARK  14 active torsions:
REMARK  status: ('A' for Active; 'I' for Inactive)
REMARK    1  A    between atoms: C_1  and  C_2
REMARK    2  A    between atoms: C_2  and  O_3
REMARK    3  A    between atoms: O_3  and  C_4
REMARK    4  A    between atoms: C_4  and  C_6
REMARK    5  A    between atoms: C_7  and  N_8
REMARK    6  A    between atoms: C_15  and  C_17
REMARK    7  A    between atoms: C_17  and  C_18
REMARK    8  A    between atoms: C_17  and  N_25
REMARK    9  A    between atoms: C_18  and  C_19
REMARK   10  A    between atoms: C_26  and  O_28
REMARK   11  A    between atoms: O_28  and  C_29
REMARK   12  A    between atoms: C_29  and  C_30
REMARK   13  A    between atoms: C_29  and  C_31
REMARK   14  A    between atoms: C_29  and  C_32
REMARK                            x       y       z     vdW  Elec       q    Type
REMARK                         _______ _______ _______ _____ _____    ______ ____
ROOT
ATOM      1  C   UNL     1       3.267   4.181  18.784  0.00  0.00    +0.000 A 
ATOM      2  C   UNL     1       2.593   3.701  19.903  0.00  0.00    +0.000 A 
ATOM      3  S   UNL     1       1.721   4.926  20.726  0.00  0.00    +0.000 S 
ATOM      4  C   UNL     1       2.227   6.124  19.646  0.00  0.00    +0.000 A 
ATOM      5  C   UNL     1       3.083   5.624  18.678  0.00  0.00    +0.000 A 
ATOM      6  C   UNL     1       3.697   6.558  17.671  0.00  0.00    +0.000 C 
ATOM      7  C   UNL     1       3.659   8.000  18.219  0.00  0.00    +0.000 C 
ATOM      8  N   UNL     1       2.297   8.354  18.669  0.00  0.00    +0.000 N 
ATOM      9  C   UNL     1       1.665   9.454  18.099  0.00  0.00    +0.000 C 
ATOM     10  O   UNL     1       2.171  10.037  17.128  0.00  0.00    +0.000 OA
ATOM     11  C   UNL     1       1.806   7.571  19.812  0.00  0.00    +0.000 C 
ENDROOT
BRANCH   2  12
ATOM     12  N   UNL     1       2.560   2.445  20.398  0.00  0.00    +0.000 N 
ATOM     13  H   UNL     1       2.532   1.642  19.772  0.00  0.00    +0.000 HD
ATOM     14  H   UNL     1       2.205   2.277  21.334  0.00  0.00    +0.000 HD
ENDBRANCH   2  12
BRANCH   1  15
ATOM     15  C   UNL     1       4.053   3.363  17.842  0.00  0.00    +0.000 C 
ATOM     16  O   UNL     1       3.691   2.258  17.457  0.00  0.00    +0.000 OA
BRANCH  15  17
ATOM     17  O   UNL     1       5.228   3.950  17.442  0.00  0.00    +0.000 OA
BRANCH  17  19
ATOM     18  C   UNL     1       6.831   4.587  15.739  0.00  0.00    +0.000 C 
ATOM     19  C   UNL     1       5.558   3.820  16.051  0.00  0.00    +0.000 C 
ENDBRANCH  17  19
ENDBRANCH  15  17
ENDBRANCH   1  15
BRANCH   9  20
ATOM     20  C   UNL     1       0.293   9.961  18.644  0.00  0.00    +0.000 C 
BRANCH  20  21
ATOM     21  N   UNL     1       0.341  11.429  18.573  0.00  0.00    +0.000 N 
ATOM     22  C   UNL     1       0.802  12.141  19.644  0.00  0.00    +0.000 C 
ATOM     23  O   UNL     1       0.938  11.637  20.759  0.00  0.00    +0.000 OA
ATOM     24  H   UNL     1       0.524  11.863  17.672  0.00  0.00    +0.000 HD
BRANCH  22  25
ATOM     25  O   UNL     1       1.081  13.421  19.311  0.00  0.00    +0.000 OA
BRANCH  25  26
ATOM     26  C   UNL     1       0.186  14.479  19.769  0.00  0.00    +0.000 C 
ATOM     27  C   UNL     1      -1.215  13.932  20.088  0.00  0.00    +0.000 C 
ATOM     28  C   UNL     1       0.788  15.033  21.071  0.00  0.00    +0.000 C 
ATOM     29  C   UNL     1       0.127  15.632  18.756  0.00  0.00    +0.000 C 
ENDBRANCH  25  26
ENDBRANCH  22  25
ENDBRANCH  20  21
BRANCH  20  30
ATOM     30  C   UNL     1      -0.881   9.391  17.821  0.00  0.00    +0.000 C 
BRANCH  30  31
ATOM     31  C   UNL     1      -2.063  10.305  17.509  0.00  0.00    +0.000 A 
ATOM     32  C   UNL     1      -2.772  11.026  18.479  0.00  0.00    +0.000 A 
ATOM     33  C   UNL     1      -3.987  11.647  18.165  0.00  0.00    +0.000 A 
ATOM     34  C   UNL     1      -4.491  11.592  16.869  0.00  0.00    +0.000 A 
ATOM     35  C   UNL     1      -3.741  10.987  15.867  0.00  0.00    +0.000 A 
ATOM     36  C   UNL     1      -2.530  10.360  16.182  0.00  0.00    +0.000 A 
ENDBRANCH  30  31
ENDBRANCH  20  30
ENDBRANCH   9  20
TORSDOF 10
ENDMDL
MODEL 9
REMARK VINA RESULT:      -6.4      2.760      9.195
REMARK  Name = 
REMARK  14 active torsions:
REMARK  status: ('A' for Active; 'I' for Inactive)
REMARK    1  A    between atoms: C_1  and  C_2
REMARK    2  A    between atoms: C_2  and  O_3
REMARK    3  A    between atoms: O_3  and  C_4
REMARK    4  A    between atoms: C_4  and  C_6
REMARK    5  A    between atoms: C_7  and  N_8
REMARK    6  A    between atoms: C_15  and  C_17
REMARK    7  A    between atoms: C_17  and  C_18
REMARK    8  A    between atoms: C_17  and  N_25
REMARK    9  A    between atoms: C_18  and  C_19
REMARK   10  A    between atoms: C_26  and  O_28
REMARK   11  A    between atoms: O_28  and  C_29
REMARK   12  A    between atoms: C_29  and  C_30
REMARK   13  A    between atoms: C_29  and  C_31
REMARK   14  A    between atoms: C_29  and  C_32
REMARK                            x       y       z     vdW  Elec       q    Type
REMARK                         _______ _______ _______ _____ _____    ______ ____
ROOT
ATOM      1  C   UNL     1       3.084   4.057  18.800  0.00  0.00    +0.000 A 
ATOM      2  C   UNL     1       2.460   3.614  19.963  0.00  0.00    +0.000 A 
ATOM      3  S   UNL     1       1.706   4.884  20.833  0.00  0.00    +0.000 S 
ATOM      4  C   UNL     1       2.201   6.052  19.716  0.00  0.00    +0.000 A 
ATOM      5  C   UNL     1       2.966   5.507  18.698  0.00  0.00    +0.000 A 
ATOM      6  C   UNL     1       3.560   6.406  17.648  0.00  0.00    +0.000 C 
ATOM      7  C   UNL     1       3.629   7.850  18.189  0.00  0.00    +0.000 C 
ATOM      8  N   UNL     1       2.319   8.273  18.723  0.00  0.00    +0.000 N 
ATOM      9  C   UNL     1       1.707   9.402  18.189  0.00  0.00    +0.000 C 
ATOM     10  O   UNL     1       2.178   9.956  17.184  0.00  0.00    +0.000 OA
ATOM     11  C   UNL     1       1.864   7.519  19.900  0.00  0.00    +0.000 C 
ENDROOT
BRANCH   2  12
ATOM     12  N   UNL     1       2.397   2.363  20.466  0.00  0.00    +0.000 N 
ATOM     13  H   UNL     1       2.091   2.204  21.424  0.00  0.00    +0.000 HD
ATOM     14  H   UNL     1       2.969   1.625  20.066  0.00  0.00    +0.000 HD
ENDBRANCH   2  12
BRANCH   1  15
ATOM     15  C   UNL     1       3.765   3.198  17.814  0.00  0.00    +0.000 C 
ATOM     16  O   UNL     1       3.257   2.185  17.350  0.00  0.00    +0.000 OA
BRANCH  15  17
ATOM     17  O   UNL     1       5.021   3.634  17.471  0.00  0.00    +0.000 OA
BRANCH  17  19
ATOM     18  C   UNL     1       6.606   4.442  15.824  0.00  0.00    +0.000 C 
ATOM     19  C   UNL     1       5.307   3.694  16.065  0.00  0.00    +0.000 C 
ENDBRANCH  17  19
ENDBRANCH  15  17
ENDBRANCH   1  15
BRANCH   9  20
ATOM     20  C   UNL     1       0.400   9.979  18.818  0.00  0.00    +0.000 C 
BRANCH  20  21
ATOM     21  N   UNL     1       0.753  11.303  19.352  0.00  0.00    +0.000 N 
ATOM     22  C   UNL     1       1.106  11.428  20.666  0.00  0.00    +0.000 C 
ATOM     23  O   UNL     1       0.899  10.537  21.490  0.00  0.00    +0.000 OA
ATOM     24  H   UNL     1       1.206  11.969  18.732  0.00  0.00    +0.000 HD
BRANCH  22  25
ATOM     25  O   UNL     1       1.698  12.618  20.913  0.00  0.00    +0.000 OA
BRANCH  25  26
ATOM     26  C   UNL     1       0.856  13.789  21.137  0.00  0.00    +0.000 C 
ATOM     27  C   UNL     1       0.266  14.319  19.820  0.00  0.00    +0.000 C 
ATOM     28  C   UNL     1      -0.309  13.332  22.030  0.00  0.00    +0.000 C 
ATOM     29  C   UNL     1       1.622  14.884  21.896  0.00  0.00    +0.000 C 
ENDBRANCH  25  26
ENDBRANCH  22  25
ENDBRANCH  20  21
BRANCH  20  30
ATOM     30  C   UNL     1      -0.731  10.071  17.772  0.00  0.00    +0.000 C 
BRANCH  30  31
ATOM     31  C   UNL     1      -2.107  10.548  18.228  0.00  0.00    +0.000 A 
ATOM     32  C   UNL     1      -3.315  10.071  17.703  0.00  0.00    +0.000 A 
ATOM     33  C   UNL     1      -4.524  10.718  17.986  0.00  0.00    +0.000 A 
ATOM     34  C   UNL     1      -4.550  11.826  18.829  0.00  0.00    +0.000 A 
ATOM     35  C   UNL     1      -3.379  12.237  19.456  0.00  0.00    +0.000 A 
ATOM     36  C   UNL     1      -2.170  11.594  19.168  0.00  0.00    +0.000 A 
ENDBRANCH  30  31
ENDBRANCH  20  30
ENDBRANCH   9  20
TORSDOF 10
ENDMDL
