MODEL 1
REMARK VINA RESULT:      -7.8      0.000      0.000
REMARK  Name = 
REMARK  7 active torsions:
REMARK  status: ('A' for Active; 'I' for Inactive)
REMARK    1  A    between atoms: C_1  and  O_2
REMARK    2  A    between atoms: O_2  and  C_3
REMARK    3  A    between atoms: C_5  and  C_6
REMARK    4  A    between atoms: C_10  and  C_11
REMARK    5  A    between atoms: C_10  and  O_12
REMARK    6  A    between atoms: C_13  and  C_14
REMARK    7  A    between atoms: C_17  and  O_18
REMARK                            x       y       z     vdW  Elec       q    Type
REMARK                         _______ _______ _______ _____ _____    ______ ____
ROOT
ATOM      1  C   UNL     1       2.782   3.239  19.522  0.00  0.00    +0.000 A 
ATOM      2  C   UNL     1       3.971   3.992  19.497  0.00  0.00    +0.000 A 
ATOM      3  C   UNL     1       4.214   4.970  18.517  0.00  0.00    +0.000 A 
ATOM      4  C   UNL     1       3.188   5.240  17.602  0.00  0.00    +0.000 A 
ATOM      5  C   UNL     1       2.014   4.485  17.596  0.00  0.00    +0.000 A 
ATOM      6  C   UNL     1       1.823   3.472  18.534  0.00  0.00    +0.000 A 
ENDROOT
BRANCH   3   7
ATOM      7  C   UNL     1       5.534   5.726  18.489  0.00  0.00    +0.000 C 
ATOM      8  O   UNL     1       6.631   4.857  18.844  0.00  0.00    +0.000 OA
ATOM      9  C   UNL     1       7.403   4.589  17.746  0.00  0.00    +0.000 C 
ATOM     10  O   UNL     1       8.481   4.016  17.780  0.00  0.00    +0.000 OA
ATOM     11  C   UNL     1       6.754   5.185  16.500  0.00  0.00    +0.000 C 
ATOM     12  C   UNL     1       5.892   4.102  15.845  0.00  0.00    +0.000 C 
ATOM     13  C   UNL     1       5.961   6.325  17.140  0.00  0.00    +0.000 C 
ATOM     14  C   UNL     1       6.822   7.581  17.366  0.00  0.00    +0.000 C 
BRANCH  11  15
ATOM     15  O   UNL     1       7.617   5.680  15.488  0.00  0.00    +0.000 OA
ATOM     16  H   UNL     1       7.090   5.780  14.673  0.00  0.00    +0.000 HD
ENDBRANCH  11  15
ENDBRANCH   3   7
BRANCH   1  18
ATOM     17  C   UNL     1       2.025   2.687  21.724  0.00  0.00    +0.000 C 
ATOM     18  O   UNL     1       2.744   2.334  20.548  0.00  0.00    +0.000 OA
ENDBRANCH   1  18
BRANCH   6  19
ATOM     19  O   UNL     1       0.677   2.730  18.453  0.00  0.00    +0.000 OA
ATOM     20  H   UNL     1       0.755   1.960  19.040  0.00  0.00    +0.000 HD
ENDBRANCH   6  19
TORSDOF 4
ENDMDL
MODEL 2
REMARK VINA RESULT:      -7.6      1.346      1.826
REMARK  Name = 
REMARK  7 active torsions:
REMARK  status: ('A' for Active; 'I' for Inactive)
REMARK    1  A    between atoms: C_1  and  O_2
REMARK    2  A    between atoms: O_2  and  C_3
REMARK    3  A    between atoms: C_5  and  C_6
REMARK    4  A    between atoms: C_10  and  C_11
REMARK    5  A    between atoms: C_10  and  O_12
REMARK    6  A    between atoms: C_13  and  C_14
REMARK    7  A    between atoms: C_17  and  O_18
REMARK                            x       y       z     vdW  Elec       q    Type
REMARK                         _______ _______ _______ _____ _____    ______ ____
ROOT
ATOM      1  C   UNL     1       2.580   3.888  19.426  0.00  0.00    +0.000 A 
ATOM      2  C   UNL     1       3.931   4.273  19.327  0.00  0.00    +0.000 A 
ATOM      3  C   UNL     1       4.689   4.041  18.166  0.00  0.00    +0.000 A 
ATOM      4  C   UNL     1       4.030   3.484  17.062  0.00  0.00    +0.000 A 
ATOM      5  C   UNL     1       2.700   3.072  17.152  0.00  0.00    +0.000 A 
ATOM      6  C   UNL     1       1.986   3.248  18.336  0.00  0.00    +0.000 A 
ENDROOT
BRANCH   3   7
ATOM      7  C   UNL     1       6.161   4.422  18.115  0.00  0.00    +0.000 C 
ATOM      8  O   UNL     1       6.704   4.200  16.795  0.00  0.00    +0.000 OA
ATOM      9  C   UNL     1       6.948   5.394  16.173  0.00  0.00    +0.000 C 
ATOM     10  O   UNL     1       7.552   5.514  15.119  0.00  0.00    +0.000 OA
ATOM     11  C   UNL     1       6.429   6.542  17.034  0.00  0.00    +0.000 C 
ATOM     12  C   UNL     1       5.009   6.881  16.573  0.00  0.00    +0.000 C 
ATOM     13  C   UNL     1       6.508   5.888  18.414  0.00  0.00    +0.000 C 
ATOM     14  C   UNL     1       7.917   5.986  19.027  0.00  0.00    +0.000 C 
BRANCH  11  15
ATOM     15  O   UNL     1       7.161   7.757  17.012  0.00  0.00    +0.000 OA
ATOM     16  H   UNL     1       7.365   7.962  16.080  0.00  0.00    +0.000 HD
ENDBRANCH  11  15
ENDBRANCH   3   7
BRANCH   1  18
ATOM     17  C   UNL     1       2.029   3.194  21.649  0.00  0.00    +0.000 C 
ATOM     18  O   UNL     1       2.024   4.195  20.639  0.00  0.00    +0.000 OA
ENDBRANCH   1  18
BRANCH   6  19
ATOM     19  O   UNL     1       0.701   2.783  18.387  0.00  0.00    +0.000 OA
ATOM     20  H   UNL     1       0.632   1.980  17.844  0.00  0.00    +0.000 HD
ENDBRANCH   6  19
TORSDOF 4
ENDMDL
MODEL 3
REMARK VINA RESULT:      -7.4      1.604      5.914
REMARK  Name = 
REMARK  7 active torsions:
REMARK  status: ('A' for Active; 'I' for Inactive)
REMARK    1  A    between atoms: C_1  and  O_2
REMARK    2  A    between atoms: O_2  and  C_3
REMARK    3  A    between atoms: C_5  and  C_6
REMARK    4  A    between atoms: C_10  and  C_11
REMARK    5  A    between atoms: C_10  and  O_12
REMARK    6  A    between atoms: C_13  and  C_14
REMARK    7  A    between atoms: C_17  and  O_18
REMARK                            x       y       z     vdW  Elec       q    Type
REMARK                         _______ _______ _______ _____ _____    ______ ____
ROOT
ATOM      1  C   UNL     1       5.495   4.846  16.224  0.00  0.00    +0.000 A 
ATOM      2  C   UNL     1       4.511   4.014  16.791  0.00  0.00    +0.000 A 
ATOM      3  C   UNL     1       4.453   3.764  18.174  0.00  0.00    +0.000 A 
ATOM      4  C   UNL     1       5.363   4.445  18.995  0.00  0.00    +0.000 A 
ATOM      5  C   UNL     1       6.361   5.251  18.446  0.00  0.00    +0.000 A 
ATOM      6  C   UNL     1       6.444   5.430  17.066  0.00  0.00    +0.000 A 
ENDROOT
BRANCH   3   7
ATOM      7  C   UNL     1       3.409   2.817  18.745  0.00  0.00    +0.000 C 
ATOM      8  O   UNL     1       3.661   2.557  20.143  0.00  0.00    +0.000 OA
ATOM      9  C   UNL     1       2.719   3.172  20.921  0.00  0.00    +0.000 C 
ATOM     10  O   UNL     1       2.590   2.994  22.123  0.00  0.00    +0.000 OA
ATOM     11  C   UNL     1       1.812   4.036  20.050  0.00  0.00    +0.000 C 
ATOM     12  C   UNL     1       2.372   5.462  20.045  0.00  0.00    +0.000 C 
ATOM     13  C   UNL     1       1.950   3.296  18.718  0.00  0.00    +0.000 C 
ATOM     14  C   UNL     1       0.997   2.092  18.619  0.00  0.00    +0.000 C 
BRANCH  11  15
ATOM     15  O   UNL     1       0.449   4.141  20.428  0.00  0.00    +0.000 OA
ATOM     16  H   UNL     1      -0.022   4.604  19.711  0.00  0.00    +0.000 HD
ENDBRANCH  11  15
ENDBRANCH   3   7
BRANCH   1  18
ATOM     17  C   UNL     1       6.148   4.061  14.059  0.00  0.00    +0.000 C 
ATOM     18  O   UNL     1       5.385   4.952  14.864  0.00  0.00    +0.000 OA
ENDBRANCH   1  18
BRANCH   6  19
ATOM     19  O   UNL     1       7.470   6.190  16.577  0.00  0.00    +0.000 OA
ATOM     20  H   UNL     1       7.182   7.116  16.525  0.00  0.00    +0.000 HD
ENDBRANCH   6  19
TORSDOF 4
ENDMDL
MODEL 4
REMARK VINA RESULT:      -7.4      1.355      5.650
REMARK  Name = 
REMARK  7 active torsions:
REMARK  status: ('A' for Active; 'I' for Inactive)
REMARK    1  A    between atoms: C_1  and  O_2
REMARK    2  A    between atoms: O_2  and  C_3
REMARK    3  A    between atoms: C_5  and  C_6
REMARK    4  A    between atoms: C_10  and  C_11
REMARK    5  A    between atoms: C_10  and  O_12
REMARK    6  A    between atoms: C_13  and  C_14
REMARK    7  A    between atoms: C_17  and  O_18
REMARK                            x       y       z     vdW  Elec       q    Type
REMARK                         _______ _______ _______ _____ _____    ______ ____
ROOT
ATOM      1  C   UNL     1       6.465   4.815  18.078  0.00  0.00    +0.000 A 
ATOM      2  C   UNL     1       5.183   4.920  18.652  0.00  0.00    +0.000 A 
ATOM      3  C   UNL     1       4.013   4.658  17.917  0.00  0.00    +0.000 A 
ATOM      4  C   UNL     1       4.164   4.197  16.601  0.00  0.00    +0.000 A 
ATOM      5  C   UNL     1       5.425   4.113  16.010  0.00  0.00    +0.000 A 
ATOM      6  C   UNL     1       6.568   4.446  16.735  0.00  0.00    +0.000 A 
ENDROOT
BRANCH   3   7
ATOM      7  C   UNL     1       2.644   4.835  18.554  0.00  0.00    +0.000 C 
ATOM      8  O   UNL     1       1.653   4.034  17.874  0.00  0.00    +0.000 OA
ATOM      9  C   UNL     1       1.266   2.984  18.660  0.00  0.00    +0.000 C 
ATOM     10  O   UNL     1       0.331   2.239  18.410  0.00  0.00    +0.000 OA
ATOM     11  C   UNL     1       2.119   2.942  19.924  0.00  0.00    +0.000 C 
ATOM     12  C   UNL     1       3.295   1.993  19.676  0.00  0.00    +0.000 C 
ATOM     13  C   UNL     1       2.505   4.418  20.026  0.00  0.00    +0.000 C 
ATOM     14  C   UNL     1       1.418   5.260  20.717  0.00  0.00    +0.000 C 
BRANCH  11  15
ATOM     15  O   UNL     1       1.494   2.503  21.120  0.00  0.00    +0.000 OA
ATOM     16  H   UNL     1       0.722   1.962  20.869  0.00  0.00    +0.000 HD
ENDBRANCH  11  15
ENDBRANCH   3   7
BRANCH   1  18
ATOM     17  C   UNL     1       8.010   6.436  18.921  0.00  0.00    +0.000 C 
ATOM     18  O   UNL     1       7.470   5.121  18.955  0.00  0.00    +0.000 OA
ENDBRANCH   1  18
BRANCH   6  19
ATOM     19  O   UNL     1       7.774   4.392  16.093  0.00  0.00    +0.000 OA
ATOM     20  H   UNL     1       7.873   5.183  15.537  0.00  0.00    +0.000 HD
ENDBRANCH   6  19
TORSDOF 4
ENDMDL
MODEL 5
REMARK VINA RESULT:      -7.3      1.539      5.638
REMARK  Name = 
REMARK  7 active torsions:
REMARK  status: ('A' for Active; 'I' for Inactive)
REMARK    1  A    between atoms: C_1  and  O_2
REMARK    2  A    between atoms: O_2  and  C_3
REMARK    3  A    between atoms: C_5  and  C_6
REMARK    4  A    between atoms: C_10  and  C_11
REMARK    5  A    between atoms: C_10  and  O_12
REMARK    6  A    between atoms: C_13  and  C_14
REMARK    7  A    between atoms: C_17  and  O_18
REMARK                            x       y       z     vdW  Elec       q    Type
REMARK                         _______ _______ _______ _____ _____    ______ ____
ROOT
ATOM      1  C   UNL     1       6.120   6.306  16.748  0.00  0.00    +0.000 A 
ATOM      2  C   UNL     1       4.959   6.193  17.535  0.00  0.00    +0.000 A 
ATOM      3  C   UNL     1       4.084   5.098  17.421  0.00  0.00    +0.000 A 
ATOM      4  C   UNL     1       4.450   4.064  16.549  0.00  0.00    +0.000 A 
ATOM      5  C   UNL     1       5.584   4.173  15.742  0.00  0.00    +0.000 A 
ATOM      6  C   UNL     1       6.401   5.300  15.822  0.00  0.00    +0.000 A 
ENDROOT
BRANCH   3   7
ATOM      7  C   UNL     1       2.809   5.037  18.249  0.00  0.00    +0.000 C 
ATOM      8  O   UNL     1       2.014   3.888  17.884  0.00  0.00    +0.000 OA
ATOM      9  C   UNL     1       2.044   2.951  18.881  0.00  0.00    +0.000 C 
ATOM     10  O   UNL     1       1.339   1.955  18.916  0.00  0.00    +0.000 OA
ATOM     11  C   UNL     1       3.021   3.385  19.970  0.00  0.00    +0.000 C 
ATOM     12  C   UNL     1       4.381   2.745  19.675  0.00  0.00    +0.000 C 
ATOM     13  C   UNL     1       2.977   4.901  19.770  0.00  0.00    +0.000 C 
ATOM     14  C   UNL     1       1.787   5.551  20.496  0.00  0.00    +0.000 C 
BRANCH  11  15
ATOM     15  O   UNL     1       2.699   3.046  21.310  0.00  0.00    +0.000 OA
ATOM     16  H   UNL     1       2.838   2.086  21.413  0.00  0.00    +0.000 HD
ENDBRANCH  11  15
ENDBRANCH   3   7
BRANCH   1  18
ATOM     17  C   UNL     1       7.843   7.395  18.002  0.00  0.00    +0.000 C 
ATOM     18  O   UNL     1       6.831   7.448  17.004  0.00  0.00    +0.000 OA
ENDBRANCH   1  18
BRANCH   6  19
ATOM     19  O   UNL     1       7.472   5.378  14.974  0.00  0.00    +0.000 OA
ATOM     20  H   UNL     1       8.274   5.112  15.452  0.00  0.00    +0.000 HD
ENDBRANCH   6  19
TORSDOF 4
ENDMDL
MODEL 6
REMARK VINA RESULT:      -7.3      1.486      5.805
REMARK  Name = 
REMARK  7 active torsions:
REMARK  status: ('A' for Active; 'I' for Inactive)
REMARK    1  A    between atoms: C_1  and  O_2
REMARK    2  A    between atoms: O_2  and  C_3
REMARK    3  A    between atoms: C_5  and  C_6
REMARK    4  A    between atoms: C_10  and  C_11
REMARK    5  A    between atoms: C_10  and  O_12
REMARK    6  A    between atoms: C_13  and  C_14
REMARK    7  A    between atoms: C_17  and  O_18
REMARK                            x       y       z     vdW  Elec       q    Type
REMARK                         _______ _______ _______ _____ _____    ______ ____
ROOT
ATOM      1  C   UNL     1       5.873   4.153  16.563  0.00  0.00    +0.000 A 
ATOM      2  C   UNL     1       4.551   4.390  16.986  0.00  0.00    +0.000 A 
ATOM      3  C   UNL     1       4.260   4.984  18.227  0.00  0.00    +0.000 A 
ATOM      4  C   UNL     1       5.341   5.419  19.007  0.00  0.00    +0.000 A 
ATOM      5  C   UNL     1       6.656   5.168  18.614  0.00  0.00    +0.000 A 
ATOM      6  C   UNL     1       6.922   4.515  17.412  0.00  0.00    +0.000 A 
ENDROOT
BRANCH   3   7
ATOM      7  C   UNL     1       2.819   5.174  18.675  0.00  0.00    +0.000 C 
ATOM      8  O   UNL     1       1.933   4.307  17.934  0.00  0.00    +0.000 OA
ATOM      9  C   UNL     1       1.463   3.304  18.738  0.00  0.00    +0.000 C 
ATOM     10  O   UNL     1       0.577   2.524  18.426  0.00  0.00    +0.000 OA
ATOM     11  C   UNL     1       2.151   3.368  20.099  0.00  0.00    +0.000 C 
ATOM     12  C   UNL     1       3.362   2.431  20.067  0.00  0.00    +0.000 C 
ATOM     13  C   UNL     1       2.502   4.856  20.143  0.00  0.00    +0.000 C 
ATOM     14  C   UNL     1       1.325   5.719  20.632  0.00  0.00    +0.000 C 
BRANCH  11  15
ATOM     15  O   UNL     1       1.386   2.998  21.235  0.00  0.00    +0.000 OA
ATOM     16  H   UNL     1       0.449   2.976  20.966  0.00  0.00    +0.000 HD
ENDBRANCH  11  15
ENDBRANCH   3   7
BRANCH   1  18
ATOM     17  C   UNL     1       6.293   4.371  14.217  0.00  0.00    +0.000 C 
ATOM     18  O   UNL     1       5.942   3.560  15.331  0.00  0.00    +0.000 OA
ENDBRANCH   1  18
BRANCH   6  19
ATOM     19  O   UNL     1       8.226   4.251  17.098  0.00  0.00    +0.000 OA
ATOM     20  H   UNL     1       8.718   5.087  17.055  0.00  0.00    +0.000 HD
ENDBRANCH   6  19
TORSDOF 4
ENDMDL
MODEL 7
REMARK VINA RESULT:      -7.3      1.511      5.594
REMARK  Name = 
REMARK  7 active torsions:
REMARK  status: ('A' for Active; 'I' for Inactive)
REMARK    1  A    between atoms: C_1  and  O_2
REMARK    2  A    between atoms: O_2  and  C_3
REMARK    3  A    between atoms: C_5  and  C_6
REMARK    4  A    between atoms: C_10  and  C_11
REMARK    5  A    between atoms: C_10  and  O_12
REMARK    6  A    between atoms: C_13  and  C_14
REMARK    7  A    between atoms: C_17  and  O_18
REMARK                            x       y       z     vdW  Elec       q    Type
REMARK                         _______ _______ _______ _____ _____    ______ ____
ROOT
ATOM      1  C   UNL     1       6.497   4.775  17.977  0.00  0.00    +0.000 A 
ATOM      2  C   UNL     1       5.540   3.874  18.482  0.00  0.00    +0.000 A 
ATOM      3  C   UNL     1       4.247   3.776  17.936  0.00  0.00    +0.000 A 
ATOM      4  C   UNL     1       3.962   4.549  16.802  0.00  0.00    +0.000 A 
ATOM      5  C   UNL     1       4.890   5.466  16.306  0.00  0.00    +0.000 A 
ATOM      6  C   UNL     1       6.141   5.598  16.906  0.00  0.00    +0.000 A 
ENDROOT
BRANCH   3   7
ATOM      7  C   UNL     1       3.222   2.831  18.542  0.00  0.00    +0.000 C 
ATOM      8  O   UNL     1       3.591   2.469  19.891  0.00  0.00    +0.000 OA
ATOM      9  C   UNL     1       2.750   3.064  20.791  0.00  0.00    +0.000 C 
ATOM     10  O   UNL     1       2.725   2.812  21.986  0.00  0.00    +0.000 OA
ATOM     11  C   UNL     1       1.804   4.017  20.066  0.00  0.00    +0.000 C 
ATOM     12  C   UNL     1       2.420   5.418  20.098  0.00  0.00    +0.000 C 
ATOM     13  C   UNL     1       1.788   3.362  18.684  0.00  0.00    +0.000 C 
ATOM     14  C   UNL     1       0.780   2.202  18.599  0.00  0.00    +0.000 C 
BRANCH  11  15
ATOM     15  O   UNL     1       0.487   4.144  20.577  0.00  0.00    +0.000 OA
ATOM     16  H   UNL     1       0.117   4.979  20.235  0.00  0.00    +0.000 HD
ENDBRANCH  11  15
ENDBRANCH   3   7
BRANCH   1  18
ATOM     17  C   UNL     1       7.932   5.704  19.651  0.00  0.00    +0.000 C 
ATOM     18  O   UNL     1       7.687   4.723  18.651  0.00  0.00    +0.000 OA
ENDBRANCH   1  18
BRANCH   6  19
ATOM     19  O   UNL     1       6.995   6.545  16.410  0.00  0.00    +0.000 OA
ATOM     20  H   UNL     1       7.905   6.211  16.466  0.00  0.00    +0.000 HD
ENDBRANCH   6  19
TORSDOF 4
ENDMDL
MODEL 8
REMARK VINA RESULT:      -7.1      1.855      2.806
REMARK  Name = 
REMARK  7 active torsions:
REMARK  status: ('A' for Active; 'I' for Inactive)
REMARK    1  A    between atoms: C_1  and  O_2
REMARK    2  A    between atoms: O_2  and  C_3
REMARK    3  A    between atoms: C_5  and  C_6
REMARK    4  A    between atoms: C_10  and  C_11
REMARK    5  A    between atoms: C_10  and  O_12
REMARK    6  A    between atoms: C_13  and  C_14
REMARK    7  A    between atoms: C_17  and  O_18
REMARK                            x       y       z     vdW  Elec       q    Type
REMARK                         _______ _______ _______ _____ _____    ______ ____
ROOT
ATOM      1  C   UNL     1       2.106   5.080  19.445  0.00  0.00    +0.000 A 
ATOM      2  C   UNL     1       2.998   5.383  18.399  0.00  0.00    +0.000 A 
ATOM      3  C   UNL     1       3.350   4.436  17.421  0.00  0.00    +0.000 A 
ATOM      4  C   UNL     1       2.712   3.189  17.467  0.00  0.00    +0.000 A 
ATOM      5  C   UNL     1       1.846   2.864  18.513  0.00  0.00    +0.000 A 
ATOM      6  C   UNL     1       1.565   3.795  19.511  0.00  0.00    +0.000 A 
ENDROOT
BRANCH   3   7
ATOM      7  C   UNL     1       4.360   4.782  16.337  0.00  0.00    +0.000 C 
ATOM      8  O   UNL     1       4.806   6.149  16.468  0.00  0.00    +0.000 OA
ATOM      9  C   UNL     1       6.101   6.189  16.907  0.00  0.00    +0.000 C 
ATOM     10  O   UNL     1       6.785   7.199  16.954  0.00  0.00    +0.000 OA
ATOM     11  C   UNL     1       6.577   4.778  17.242  0.00  0.00    +0.000 C 
ATOM     12  C   UNL     1       6.345   4.537  18.736  0.00  0.00    +0.000 C 
ATOM     13  C   UNL     1       5.663   3.970  16.320  0.00  0.00    +0.000 C 
ATOM     14  C   UNL     1       6.213   3.879  14.885  0.00  0.00    +0.000 C 
BRANCH  11  15
ATOM     15  O   UNL     1       7.940   4.473  16.992  0.00  0.00    +0.000 OA
ATOM     16  H   UNL     1       8.075   4.493  16.026  0.00  0.00    +0.000 HD
ENDBRANCH  11  15
ENDBRANCH   3   7
BRANCH   1  18
ATOM     17  C   UNL     1       2.136   7.446  19.802  0.00  0.00    +0.000 C 
ATOM     18  O   UNL     1       1.902   6.133  20.295  0.00  0.00    +0.000 OA
ENDBRANCH   1  18
BRANCH   6  19
ATOM     19  O   UNL     1       0.748   3.408  20.538  0.00  0.00    +0.000 OA
ATOM     20  H   UNL     1       1.215   2.756  21.086  0.00  0.00    +0.000 HD
ENDBRANCH   6  19
TORSDOF 4
ENDMDL
MODEL 9
REMARK VINA RESULT:      -7.1      1.611      2.470
REMARK  Name = 
REMARK  7 active torsions:
REMARK  status: ('A' for Active; 'I' for Inactive)
REMARK    1  A    between atoms: C_1  and  O_2
REMARK    2  A    between atoms: O_2  and  C_3
REMARK    3  A    between atoms: C_5  and  C_6
REMARK    4  A    between atoms: C_10  and  C_11
REMARK    5  A    between atoms: C_10  and  O_12
REMARK    6  A    between atoms: C_13  and  C_14
REMARK    7  A    between atoms: C_17  and  O_18
REMARK                            x       y       z     vdW  Elec       q    Type
REMARK                         _______ _______ _______ _____ _____    ______ ____
ROOT
ATOM      1  C   UNL     1       2.364   3.898  19.083  0.00  0.00    +0.000 A 
ATOM      2  C   UNL     1       3.282   3.998  18.020  0.00  0.00    +0.000 A 
ATOM      3  C   UNL     1       3.804   5.234  17.599  0.00  0.00    +0.000 A 
ATOM      4  C   UNL     1       3.446   6.373  18.334  0.00  0.00    +0.000 A 
ATOM      5  C   UNL     1       2.517   6.294  19.373  0.00  0.00    +0.000 A 
ATOM      6  C   UNL     1       1.958   5.068  19.728  0.00  0.00    +0.000 A 
ENDROOT
BRANCH   3   7
ATOM      7  C   UNL     1       4.752   5.310  16.412  0.00  0.00    +0.000 C 
ATOM      8  O   UNL     1       5.501   6.545  16.430  0.00  0.00    +0.000 OA
ATOM      9  C   UNL     1       6.810   6.304  16.748  0.00  0.00    +0.000 C 
ATOM     10  O   UNL     1       7.703   7.135  16.680  0.00  0.00    +0.000 OA
ATOM     11  C   UNL     1       6.992   4.834  17.112  0.00  0.00    +0.000 C 
ATOM     12  C   UNL     1       6.863   4.698  18.632  0.00  0.00    +0.000 C 
ATOM     13  C   UNL     1       5.835   4.225  16.320  0.00  0.00    +0.000 C 
ATOM     14  C   UNL     1       6.206   3.968  14.848  0.00  0.00    +0.000 C 
BRANCH  11  15
ATOM     15  O   UNL     1       8.222   4.221  16.757  0.00  0.00    +0.000 OA
ATOM     16  H   UNL     1       8.533   3.713  17.529  0.00  0.00    +0.000 HD
ENDBRANCH  11  15
ENDBRANCH   3   7
BRANCH   1  18
ATOM     17  C   UNL     1       0.712   2.187  18.823  0.00  0.00    +0.000 C 
ATOM     18  O   UNL     1       1.971   2.610  19.329  0.00  0.00    +0.000 OA
ENDBRANCH   1  18
BRANCH   6  19
ATOM     19  O   UNL     1       1.017   5.054  20.720  0.00  0.00    +0.000 OA
ATOM     20  H   UNL     1       0.301   5.668  20.487  0.00  0.00    +0.000 HD
ENDBRANCH   6  19
TORSDOF 4
ENDMDL
