MODEL 1
REMARK VINA RESULT:      -8.2      0.000      0.000
REMARK  Name = 
REMARK  5 active torsions:
REMARK  status: ('A' for Active; 'I' for Inactive)
REMARK    1  A    between atoms: C_7  and  O_8
REMARK    2  A    between atoms: O_8  and  C_9
REMARK    3  A    between atoms: C_16  and  C_17
REMARK    4  A    between atoms: C_19  and  C_20
REMARK    5  A    between atoms: C_20  and  C_21
REMARK                            x       y       z     vdW  Elec       q    Type
REMARK                         _______ _______ _______ _____ _____    ______ ____
ROOT
ATOM      1  C   UNL     1      -1.609  14.177  22.445  0.00  0.00    +0.000 C 
ATOM      2  C   UNL     1      -0.363  14.157  21.549  0.00  0.00    +0.000 C 
ATOM      3  C   UNL     1      -0.118  12.823  20.857  0.00  0.00    +0.000 C 
ATOM      4  N   UNL     1      -0.143  11.728  21.838  0.00  0.00    +0.000 N 
ATOM      5  C   UNL     1       0.319  10.516  21.279  0.00  0.00    +0.000 A 
ATOM      6  C   UNL     1       0.676   9.447  22.095  0.00  0.00    +0.000 A 
ATOM      7  C   UNL     1       1.294   8.318  21.545  0.00  0.00    +0.000 A 
ATOM      8  C   UNL     1       1.531   8.285  20.182  0.00  0.00    +0.000 A 
ATOM      9  N   UNL     1       1.139   9.303  19.393  0.00  0.00    +0.000 NA
ATOM     10  N   UNL     1       0.541  10.414  19.949  0.00  0.00    +0.000 NA
ATOM     11  C   UNL     1      -1.415  11.622  22.563  0.00  0.00    +0.000 C 
ATOM     12  C   UNL     1      -1.676  12.923  23.325  0.00  0.00    +0.000 C 
ENDROOT
BRANCH   8  13
ATOM     13  C   UNL     1       2.211   7.184  19.520  0.00  0.00    +0.000 A 
ATOM     14  N   UNL     1       2.980   7.168  18.450  0.00  0.00    +0.000 NA
ATOM     15  C   UNL     1       3.334   5.838  18.366  0.00  0.00    +0.000 A 
ATOM     16  N   UNL     1       2.824   5.060  19.333  0.00  0.00    +0.000 NA
ATOM     17  O   UNL     1       2.063   5.949  20.090  0.00  0.00    +0.000 OA
BRANCH  15  18
ATOM     18  C   UNL     1       4.318   5.328  17.380  0.00  0.00    +0.000 C 
BRANCH  18  19
ATOM     19  C   UNL     1       5.671   5.857  17.790  0.00  0.00    +0.000 A 
ATOM     20  C   UNL     1       6.252   6.935  17.106  0.00  0.00    +0.000 A 
ATOM     21  C   UNL     1       7.492   7.439  17.501  0.00  0.00    +0.000 A 
ATOM     22  C   UNL     1       8.166   6.870  18.580  0.00  0.00    +0.000 A 
ATOM     23  C   UNL     1       7.603   5.794  19.263  0.00  0.00    +0.000 A 
ATOM     24  C   UNL     1       6.363   5.288  18.870  0.00  0.00    +0.000 A 
ENDBRANCH  18  19
ENDBRANCH  15  18
ENDBRANCH   8  13
BRANCH   1  25
ATOM     25  O   UNL     1      -2.793  14.314  21.641  0.00  0.00    +0.000 OA
BRANCH  25  32
ATOM     26  F   UNL     1      -3.767  16.333  23.555  0.00  0.00    +0.000 F 
ATOM     27  C   UNL     1      -4.496  15.267  23.194  0.00  0.00    +0.000 A 
ATOM     28  C   UNL     1      -5.749  15.135  23.790  0.00  0.00    +0.000 A 
ATOM     29  C   UNL     1      -6.557  14.041  23.489  0.00  0.00    +0.000 A 
ATOM     30  C   UNL     1      -6.099  13.088  22.579  0.00  0.00    +0.000 A 
ATOM     31  C   UNL     1      -4.840  13.227  21.981  0.00  0.00    +0.000 A 
ATOM     32  C   UNL     1      -4.013  14.320  22.279  0.00  0.00    +0.000 A 
ENDBRANCH  25  32
ENDBRANCH   1  25
TORSDOF 5
ENDMDL
MODEL 2
REMARK VINA RESULT:      -8.1      2.183      2.907
REMARK  Name = 
REMARK  5 active torsions:
REMARK  status: ('A' for Active; 'I' for Inactive)
REMARK    1  A    between atoms: C_7  and  O_8
REMARK    2  A    between atoms: O_8  and  C_9
REMARK    3  A    between atoms: C_16  and  C_17
REMARK    4  A    between atoms: C_19  and  C_20
REMARK    5  A    between atoms: C_20  and  C_21
REMARK                            x       y       z     vdW  Elec       q    Type
REMARK                         _______ _______ _______ _____ _____    ______ ____
ROOT
ATOM      1  C   UNL     1      -1.364  13.917  19.780  0.00  0.00    +0.000 C 
ATOM      2  C   UNL     1      -1.952  12.562  20.198  0.00  0.00    +0.000 C 
ATOM      3  C   UNL     1      -0.912  11.470  20.400  0.00  0.00    +0.000 C 
ATOM      4  N   UNL     1      -0.033  11.381  19.223  0.00  0.00    +0.000 N 
ATOM      5  C   UNL     1       0.782  10.228  19.267  0.00  0.00    +0.000 A 
ATOM      6  C   UNL     1       1.446   9.783  18.128  0.00  0.00    +0.000 A 
ATOM      7  C   UNL     1       2.108   8.549  18.136  0.00  0.00    +0.000 A 
ATOM      8  C   UNL     1       2.094   7.793  19.295  0.00  0.00    +0.000 A 
ATOM      9  N   UNL     1       1.490   8.253  20.407  0.00  0.00    +0.000 NA
ATOM     10  N   UNL     1       0.833   9.465  20.382  0.00  0.00    +0.000 NA
ATOM     11  C   UNL     1       0.686  12.627  18.936  0.00  0.00    +0.000 C 
ATOM     12  C   UNL     1      -0.322  13.746  18.668  0.00  0.00    +0.000 C 
ENDROOT
BRANCH   8  13
ATOM     13  C   UNL     1       2.705   6.478  19.392  0.00  0.00    +0.000 A 
ATOM     14  N   UNL     1       3.796   5.994  18.834  0.00  0.00    +0.000 NA
ATOM     15  C   UNL     1       3.843   4.715  19.349  0.00  0.00    +0.000 A 
ATOM     16  N   UNL     1       2.843   4.412  20.189  0.00  0.00    +0.000 NA
ATOM     17  O   UNL     1       2.075   5.575  20.206  0.00  0.00    +0.000 OA
BRANCH  15  18
ATOM     18  C   UNL     1       4.984   3.796  19.116  0.00  0.00    +0.000 C 
BRANCH  18  19
ATOM     19  C   UNL     1       5.551   4.128  17.758  0.00  0.00    +0.000 A 
ATOM     20  C   UNL     1       4.797   3.903  16.596  0.00  0.00    +0.000 A 
ATOM     21  C   UNL     1       5.314   4.233  15.342  0.00  0.00    +0.000 A 
ATOM     22  C   UNL     1       6.588   4.788  15.234  0.00  0.00    +0.000 A 
ATOM     23  C   UNL     1       7.349   5.010  16.380  0.00  0.00    +0.000 A 
ATOM     24  C   UNL     1       6.836   4.680  17.635  0.00  0.00    +0.000 A 
ENDBRANCH  18  19
ENDBRANCH  15  18
ENDBRANCH   8  13
BRANCH   1  25
ATOM     25  O   UNL     1      -0.803  14.585  20.923  0.00  0.00    +0.000 OA
BRANCH  25  32
ATOM     26  F   UNL     1      -0.992  13.225  23.531  0.00  0.00    +0.000 F 
ATOM     27  C   UNL     1      -1.754  14.280  23.208  0.00  0.00    +0.000 A 
ATOM     28  C   UNL     1      -2.676  14.702  24.165  0.00  0.00    +0.000 A 
ATOM     29  C   UNL     1      -3.524  15.775  23.896  0.00  0.00    +0.000 A 
ATOM     30  C   UNL     1      -3.430  16.422  22.663  0.00  0.00    +0.000 A 
ATOM     31  C   UNL     1      -2.501  15.995  21.708  0.00  0.00    +0.000 A 
ATOM     32  C   UNL     1      -1.645  14.914  21.961  0.00  0.00    +0.000 A 
ENDBRANCH  25  32
ENDBRANCH   1  25
TORSDOF 5
ENDMDL
MODEL 3
REMARK VINA RESULT:      -8.0      8.194     10.384
REMARK  Name = 
REMARK  5 active torsions:
REMARK  status: ('A' for Active; 'I' for Inactive)
REMARK    1  A    between atoms: C_7  and  O_8
REMARK    2  A    between atoms: O_8  and  C_9
REMARK    3  A    between atoms: C_16  and  C_17
REMARK    4  A    between atoms: C_19  and  C_20
REMARK    5  A    between atoms: C_20  and  C_21
REMARK                            x       y       z     vdW  Elec       q    Type
REMARK                         _______ _______ _______ _____ _____    ______ ____
ROOT
ATOM      1  C   UNL     1      10.579  12.451  19.020  0.00  0.00    +0.000 C 
ATOM      2  C   UNL     1      10.330  11.867  17.622  0.00  0.00    +0.000 C 
ATOM      3  C   UNL     1       9.172  10.881  17.560  0.00  0.00    +0.000 C 
ATOM      4  N   UNL     1       9.325   9.850  18.598  0.00  0.00    +0.000 N 
ATOM      5  C   UNL     1       8.412   8.788  18.416  0.00  0.00    +0.000 A 
ATOM      6  C   UNL     1       8.589   7.577  19.080  0.00  0.00    +0.000 A 
ATOM      7  C   UNL     1       7.783   6.477  18.762  0.00  0.00    +0.000 A 
ATOM      8  C   UNL     1       6.810   6.621  17.790  0.00  0.00    +0.000 A 
ATOM      9  N   UNL     1       6.613   7.810  17.188  0.00  0.00    +0.000 NA
ATOM     10  N   UNL     1       7.421   8.883  17.501  0.00  0.00    +0.000 NA
ATOM     11  C   UNL     1       9.366  10.395  19.960  0.00  0.00    +0.000 C 
ATOM     12  C   UNL     1      10.553  11.351  20.089  0.00  0.00    +0.000 C 
ENDROOT
BRANCH   8  13
ATOM     13  C   UNL     1       5.957   5.530  17.351  0.00  0.00    +0.000 A 
ATOM     14  N   UNL     1       5.492   4.485  18.007  0.00  0.00    +0.000 NA
ATOM     15  C   UNL     1       4.727   3.856  17.047  0.00  0.00    +0.000 A 
ATOM     16  N   UNL     1       4.703   4.473  15.857  0.00  0.00    +0.000 NA
ATOM     17  O   UNL     1       5.534   5.576  16.051  0.00  0.00    +0.000 OA
BRANCH  15  18
ATOM     18  C   UNL     1       3.876   2.678  17.343  0.00  0.00    +0.000 C 
BRANCH  18  19
ATOM     19  C   UNL     1       3.068   3.012  18.572  0.00  0.00    +0.000 A 
ATOM     20  C   UNL     1       3.414   2.472  19.821  0.00  0.00    +0.000 A 
ATOM     21  C   UNL     1       2.681   2.801  20.962  0.00  0.00    +0.000 A 
ATOM     22  C   UNL     1       1.593   3.667  20.869  0.00  0.00    +0.000 A 
ATOM     23  C   UNL     1       1.235   4.203  19.634  0.00  0.00    +0.000 A 
ATOM     24  C   UNL     1       1.966   3.877  18.491  0.00  0.00    +0.000 A 
ENDBRANCH  18  19
ENDBRANCH  15  18
ENDBRANCH   8  13
BRANCH   1  25
ATOM     25  O   UNL     1       9.614  13.478  19.305  0.00  0.00    +0.000 OA
BRANCH  25  32
ATOM     26  F   UNL     1      10.142  15.663  17.398  0.00  0.00    +0.000 F 
ATOM     27  C   UNL     1      10.339  15.791  18.718  0.00  0.00    +0.000 A 
ATOM     28  C   UNL     1      10.838  17.016  19.160  0.00  0.00    +0.000 A 
ATOM     29  C   UNL     1      11.096  17.219  20.514  0.00  0.00    +0.000 A 
ATOM     30  C   UNL     1      10.842  16.188  21.417  0.00  0.00    +0.000 A 
ATOM     31  C   UNL     1      10.339  14.961  20.968  0.00  0.00    +0.000 A 
ATOM     32  C   UNL     1      10.079  14.738  19.608  0.00  0.00    +0.000 A 
ENDBRANCH  25  32
ENDBRANCH   1  25
TORSDOF 5
ENDMDL
MODEL 4
REMARK VINA RESULT:      -8.0      3.371     11.247
REMARK  Name = 
REMARK  5 active torsions:
REMARK  status: ('A' for Active; 'I' for Inactive)
REMARK    1  A    between atoms: C_7  and  O_8
REMARK    2  A    between atoms: O_8  and  C_9
REMARK    3  A    between atoms: C_16  and  C_17
REMARK    4  A    between atoms: C_19  and  C_20
REMARK    5  A    between atoms: C_20  and  C_21
REMARK                            x       y       z     vdW  Elec       q    Type
REMARK                         _______ _______ _______ _____ _____    ______ ____
ROOT
ATOM      1  C   UNL     1       2.810   6.589  18.174  0.00  0.00    +0.000 C 
ATOM      2  C   UNL     1       2.887   6.758  19.698  0.00  0.00    +0.000 C 
ATOM      3  C   UNL     1       1.803   7.656  20.278  0.00  0.00    +0.000 C 
ATOM      4  N   UNL     1       1.764   8.937  19.555  0.00  0.00    +0.000 N 
ATOM      5  C   UNL     1       0.947   9.882  20.215  0.00  0.00    +0.000 A 
ATOM      6  C   UNL     1       1.017  11.233  19.887  0.00  0.00    +0.000 A 
ATOM      7  C   UNL     1       0.336  12.180  20.661  0.00  0.00    +0.000 A 
ATOM      8  C   UNL     1      -0.411  11.746  21.743  0.00  0.00    +0.000 A 
ATOM      9  N   UNL     1      -0.512  10.433  22.022  0.00  0.00    +0.000 NA
ATOM     10  N   UNL     1       0.172   9.511  21.259  0.00  0.00    +0.000 NA
ATOM     11  C   UNL     1       1.493   8.790  18.121  0.00  0.00    +0.000 C 
ATOM     12  C   UNL     1       2.592   7.939  17.480  0.00  0.00    +0.000 C 
ENDROOT
BRANCH   8  13
ATOM     13  C   UNL     1      -1.112  12.650  22.638  0.00  0.00    +0.000 A 
ATOM     14  N   UNL     1      -2.386  12.712  22.972  0.00  0.00    +0.000 NA
ATOM     15  C   UNL     1      -2.399  13.756  23.873  0.00  0.00    +0.000 A 
ATOM     16  N   UNL     1      -1.202  14.315  24.102  0.00  0.00    +0.000 NA
ATOM     17  O   UNL     1      -0.348  13.594  23.268  0.00  0.00    +0.000 OA
BRANCH  15  18
ATOM     18  C   UNL     1      -3.608  14.135  24.646  0.00  0.00    +0.000 C 
BRANCH  18  19
ATOM     19  C   UNL     1      -4.797  13.927  23.741  0.00  0.00    +0.000 A 
ATOM     20  C   UNL     1      -5.754  12.944  24.035  0.00  0.00    +0.000 A 
ATOM     21  C   UNL     1      -6.866  12.769  23.210  0.00  0.00    +0.000 A 
ATOM     22  C   UNL     1      -7.033  13.570  22.082  0.00  0.00    +0.000 A 
ATOM     23  C   UNL     1      -6.086  14.545  21.775  0.00  0.00    +0.000 A 
ATOM     24  C   UNL     1      -4.973  14.722  22.597  0.00  0.00    +0.000 A 
ENDBRANCH  18  19
ENDBRANCH  15  18
ENDBRANCH   8  13
BRANCH   1  25
ATOM     25  O   UNL     1       1.773   5.653  17.832  0.00  0.00    +0.000 OA
BRANCH  25  32
ATOM     26  F   UNL     1       0.506   4.250  20.094  0.00  0.00    +0.000 F 
ATOM     27  C   UNL     1       1.360   3.646  19.254  0.00  0.00    +0.000 A 
ATOM     28  C   UNL     1       1.649   2.307  19.512  0.00  0.00    +0.000 A 
ATOM     29  C   UNL     1       2.547   1.616  18.702  0.00  0.00    +0.000 A 
ATOM     30  C   UNL     1       3.143   2.278  17.628  0.00  0.00    +0.000 A 
ATOM     31  C   UNL     1       2.846   3.622  17.373  0.00  0.00    +0.000 A 
ATOM     32  C   UNL     1       1.949   4.333  18.182  0.00  0.00    +0.000 A 
ENDBRANCH  25  32
ENDBRANCH   1  25
TORSDOF 5
ENDMDL
MODEL 5
REMARK VINA RESULT:      -8.0      8.503     10.379
REMARK  Name = 
REMARK  5 active torsions:
REMARK  status: ('A' for Active; 'I' for Inactive)
REMARK    1  A    between atoms: C_7  and  O_8
REMARK    2  A    between atoms: O_8  and  C_9
REMARK    3  A    between atoms: C_16  and  C_17
REMARK    4  A    between atoms: C_19  and  C_20
REMARK    5  A    between atoms: C_20  and  C_21
REMARK                            x       y       z     vdW  Elec       q    Type
REMARK                         _______ _______ _______ _____ _____    ______ ____
ROOT
ATOM      1  C   UNL     1      10.670  12.965  19.485  0.00  0.00    +0.000 C 
ATOM      2  C   UNL     1      10.640  12.395  18.060  0.00  0.00    +0.000 C 
ATOM      3  C   UNL     1       9.533  11.377  17.823  0.00  0.00    +0.000 C 
ATOM      4  N   UNL     1       9.569  10.336  18.861  0.00  0.00    +0.000 N 
ATOM      5  C   UNL     1       8.724   9.251  18.541  0.00  0.00    +0.000 A 
ATOM      6  C   UNL     1       8.842   8.036  19.210  0.00  0.00    +0.000 A 
ATOM      7  C   UNL     1       8.123   6.918  18.770  0.00  0.00    +0.000 A 
ATOM      8  C   UNL     1       7.294   7.049  17.670  0.00  0.00    +0.000 A 
ATOM      9  N   UNL     1       7.148   8.240  17.059  0.00  0.00    +0.000 NA
ATOM     10  N   UNL     1       7.870   9.331  17.495  0.00  0.00    +0.000 NA
ATOM     11  C   UNL     1       9.400  10.862  20.221  0.00  0.00    +0.000 C 
ATOM     12  C   UNL     1      10.527  11.850  20.528  0.00  0.00    +0.000 C 
ENDROOT
BRANCH   8  13
ATOM     13  C   UNL     1       6.545   5.940  17.103  0.00  0.00    +0.000 A 
ATOM     14  N   UNL     1       5.266   5.632  17.190  0.00  0.00    +0.000 NA
ATOM     15  C   UNL     1       5.188   4.497  16.411  0.00  0.00    +0.000 A 
ATOM     16  N   UNL     1       6.348   4.114  15.858  0.00  0.00    +0.000 NA
ATOM     17  O   UNL     1       7.255   5.061  16.331  0.00  0.00    +0.000 OA
BRANCH  15  18
ATOM     18  C   UNL     1       3.901   3.835  16.083  0.00  0.00    +0.000 C 
BRANCH  18  19
ATOM     19  C   UNL     1       3.210   3.535  17.390  0.00  0.00    +0.000 A 
ATOM     20  C   UNL     1       2.093   4.283  17.794  0.00  0.00    +0.000 A 
ATOM     21  C   UNL     1       1.441   3.989  18.993  0.00  0.00    +0.000 A 
ATOM     22  C   UNL     1       1.896   2.949  19.800  0.00  0.00    +0.000 A 
ATOM     23  C   UNL     1       3.008   2.203  19.413  0.00  0.00    +0.000 A 
ATOM     24  C   UNL     1       3.663   2.495  18.216  0.00  0.00    +0.000 A 
ENDBRANCH  18  19
ENDBRANCH  15  18
ENDBRANCH   8  13
BRANCH   1  25
ATOM     25  O   UNL     1       9.644  13.960  19.641  0.00  0.00    +0.000 OA
BRANCH  25  32
ATOM     26  F   UNL     1      12.127  15.501  20.027  0.00  0.00    +0.000 F 
ATOM     27  C   UNL     1      11.071  15.986  19.358  0.00  0.00    +0.000 A 
ATOM     28  C   UNL     1      11.187  17.284  18.863  0.00  0.00    +0.000 A 
ATOM     29  C   UNL     1      10.124  17.871  18.180  0.00  0.00    +0.000 A 
ATOM     30  C   UNL     1       8.950  17.140  17.992  0.00  0.00    +0.000 A 
ATOM     31  C   UNL     1       8.841  15.836  18.490  0.00  0.00    +0.000 A 
ATOM     32  C   UNL     1       9.900  15.234  19.184  0.00  0.00    +0.000 A 
ENDBRANCH  25  32
ENDBRANCH   1  25
TORSDOF 5
ENDMDL
MODEL 6
REMARK VINA RESULT:      -8.0      2.184      3.035
REMARK  Name = 
REMARK  5 active torsions:
REMARK  status: ('A' for Active; 'I' for Inactive)
REMARK    1  A    between atoms: C_7  and  O_8
REMARK    2  A    between atoms: O_8  and  C_9
REMARK    3  A    between atoms: C_16  and  C_17
REMARK    4  A    between atoms: C_19  and  C_20
REMARK    5  A    between atoms: C_20  and  C_21
REMARK                            x       y       z     vdW  Elec       q    Type
REMARK                         _______ _______ _______ _____ _____    ______ ____
ROOT
ATOM      1  C   UNL     1      -1.336  13.625  19.733  0.00  0.00    +0.000 C 
ATOM      2  C   UNL     1      -1.921  12.240  20.041  0.00  0.00    +0.000 C 
ATOM      3  C   UNL     1      -0.876  11.143  20.187  0.00  0.00    +0.000 C 
ATOM      4  N   UNL     1       0.028  11.144  19.026  0.00  0.00    +0.000 N 
ATOM      5  C   UNL     1       0.851   9.997  19.006  0.00  0.00    +0.000 A 
ATOM      6  C   UNL     1       1.544   9.639  17.853  0.00  0.00    +0.000 A 
ATOM      7  C   UNL     1       2.215   8.412  17.788  0.00  0.00    +0.000 A 
ATOM      8  C   UNL     1       2.183   7.575  18.889  0.00  0.00    +0.000 A 
ATOM      9  N   UNL     1       1.552   7.951  20.018  0.00  0.00    +0.000 NA
ATOM     10  N   UNL     1       0.885   9.157  20.065  0.00  0.00    +0.000 NA
ATOM     11  C   UNL     1       0.743  12.413  18.844  0.00  0.00    +0.000 C 
ATOM     12  C   UNL     1      -0.269  13.541  18.634  0.00  0.00    +0.000 C 
ENDROOT
BRANCH   8  13
ATOM     13  C   UNL     1       2.803   6.261  18.906  0.00  0.00    +0.000 A 
ATOM     14  N   UNL     1       3.219   5.494  17.918  0.00  0.00    +0.000 NA
ATOM     15  C   UNL     1       3.734   4.407  18.592  0.00  0.00    +0.000 A 
ATOM     16  N   UNL     1       3.656   4.486  19.929  0.00  0.00    +0.000 NA
ATOM     17  O   UNL     1       3.021   5.709  20.139  0.00  0.00    +0.000 OA
BRANCH  15  18
ATOM     18  C   UNL     1       4.456   3.305  17.908  0.00  0.00    +0.000 C 
BRANCH  18  19
ATOM     19  C   UNL     1       5.352   3.937  16.873  0.00  0.00    +0.000 A 
ATOM     20  C   UNL     1       6.529   4.599  17.257  0.00  0.00    +0.000 A 
ATOM     21  C   UNL     1       7.370   5.163  16.297  0.00  0.00    +0.000 A 
ATOM     22  C   UNL     1       7.045   5.075  14.944  0.00  0.00    +0.000 A 
ATOM     23  C   UNL     1       5.876   4.428  14.550  0.00  0.00    +0.000 A 
ATOM     24  C   UNL     1       5.032   3.863  15.508  0.00  0.00    +0.000 A 
ENDBRANCH  18  19
ENDBRANCH  15  18
ENDBRANCH   8  13
BRANCH   1  25
ATOM     25  O   UNL     1      -0.804  14.214  20.932  0.00  0.00    +0.000 OA
BRANCH  25  32
ATOM     26  F   UNL     1      -0.940  12.690  23.452  0.00  0.00    +0.000 F 
ATOM     27  C   UNL     1      -1.750  13.726  23.188  0.00  0.00    +0.000 A 
ATOM     28  C   UNL     1      -2.696  14.044  24.161  0.00  0.00    +0.000 A 
ATOM     29  C   UNL     1      -3.593  15.089  23.951  0.00  0.00    +0.000 A 
ATOM     30  C   UNL     1      -3.526  15.814  22.761  0.00  0.00    +0.000 A 
ATOM     31  C   UNL     1      -2.572  15.491  21.788  0.00  0.00    +0.000 A 
ATOM     32  C   UNL     1      -1.666  14.438  21.983  0.00  0.00    +0.000 A 
ENDBRANCH  25  32
ENDBRANCH   1  25
TORSDOF 5
ENDMDL
MODEL 7
REMARK VINA RESULT:      -8.0      8.128      9.987
REMARK  Name = 
REMARK  5 active torsions:
REMARK  status: ('A' for Active; 'I' for Inactive)
REMARK    1  A    between atoms: C_7  and  O_8
REMARK    2  A    between atoms: O_8  and  C_9
REMARK    3  A    between atoms: C_16  and  C_17
REMARK    4  A    between atoms: C_19  and  C_20
REMARK    5  A    between atoms: C_20  and  C_21
REMARK                            x       y       z     vdW  Elec       q    Type
REMARK                         _______ _______ _______ _____ _____    ______ ____
ROOT
ATOM      1  C   UNL     1      10.694  12.565  19.118  0.00  0.00    +0.000 C 
ATOM      2  C   UNL     1      10.512  11.966  17.716  0.00  0.00    +0.000 C 
ATOM      3  C   UNL     1       9.350  10.989  17.606  0.00  0.00    +0.000 C 
ATOM      4  N   UNL     1       9.442   9.969  18.662  0.00  0.00    +0.000 N 
ATOM      5  C   UNL     1       8.530   8.912  18.446  0.00  0.00    +0.000 A 
ATOM      6  C   UNL     1       8.662   7.708  19.132  0.00  0.00    +0.000 A 
ATOM      7  C   UNL     1       7.864   6.611  18.786  0.00  0.00    +0.000 A 
ATOM      8  C   UNL     1       6.943   6.752  17.764  0.00  0.00    +0.000 A 
ATOM      9  N   UNL     1       6.787   7.934  17.139  0.00  0.00    +0.000 NA
ATOM     10  N   UNL     1       7.587   9.004  17.481  0.00  0.00    +0.000 NA
ATOM     11  C   UNL     1       9.418  10.530  20.018  0.00  0.00    +0.000 C 
ATOM     12  C   UNL     1      10.605  11.478  20.197  0.00  0.00    +0.000 C 
ENDROOT
BRANCH   8  13
ATOM     13  C   UNL     1       6.104   5.662  17.295  0.00  0.00    +0.000 A 
ATOM     14  N   UNL     1       5.763   4.528  17.874  0.00  0.00    +0.000 NA
ATOM     15  C   UNL     1       4.934   3.958  16.932  0.00  0.00    +0.000 A 
ATOM     16  N   UNL     1       4.754   4.693  15.825  0.00  0.00    +0.000 NA
ATOM     17  O   UNL     1       5.545   5.817  16.055  0.00  0.00    +0.000 OA
BRANCH  15  18
ATOM     18  C   UNL     1       4.177   2.706  17.180  0.00  0.00    +0.000 C 
BRANCH  18  19
ATOM     19  C   UNL     1       3.215   2.984  18.308  0.00  0.00    +0.000 A 
ATOM     20  C   UNL     1       3.449   2.464  19.590  0.00  0.00    +0.000 A 
ATOM     21  C   UNL     1       2.571   2.742  20.638  0.00  0.00    +0.000 A 
ATOM     22  C   UNL     1       1.449   3.539  20.418  0.00  0.00    +0.000 A 
ATOM     23  C   UNL     1       1.201   4.055  19.148  0.00  0.00    +0.000 A 
ATOM     24  C   UNL     1       2.077   3.779  18.097  0.00  0.00    +0.000 A 
ENDBRANCH  18  19
ENDBRANCH  15  18
ENDBRANCH   8  13
BRANCH   1  25
ATOM     25  O   UNL     1       9.726  13.603  19.342  0.00  0.00    +0.000 OA
BRANCH  25  32
ATOM     26  F   UNL     1       7.808  13.243  21.552  0.00  0.00    +0.000 F 
ATOM     27  C   UNL     1       8.838  14.100  21.619  0.00  0.00    +0.000 A 
ATOM     28  C   UNL     1       8.954  14.848  22.790  0.00  0.00    +0.000 A 
ATOM     29  C   UNL     1       9.981  15.779  22.927  0.00  0.00    +0.000 A 
ATOM     30  C   UNL     1      10.892  15.946  21.884  0.00  0.00    +0.000 A 
ATOM     31  C   UNL     1      10.771  15.190  20.711  0.00  0.00    +0.000 A 
ATOM     32  C   UNL     1       9.740  14.253  20.556  0.00  0.00    +0.000 A 
ENDBRANCH  25  32
ENDBRANCH   1  25
TORSDOF 5
ENDMDL
MODEL 8
REMARK VINA RESULT:      -8.0      7.820     10.034
REMARK  Name = 
REMARK  5 active torsions:
REMARK  status: ('A' for Active; 'I' for Inactive)
REMARK    1  A    between atoms: C_7  and  O_8
REMARK    2  A    between atoms: O_8  and  C_9
REMARK    3  A    between atoms: C_16  and  C_17
REMARK    4  A    between atoms: C_19  and  C_20
REMARK    5  A    between atoms: C_20  and  C_21
REMARK                            x       y       z     vdW  Elec       q    Type
REMARK                         _______ _______ _______ _____ _____    ______ ____
ROOT
ATOM      1  C   UNL     1      10.288  12.552  19.083  0.00  0.00    +0.000 C 
ATOM      2  C   UNL     1      10.014  12.024  17.667  0.00  0.00    +0.000 C 
ATOM      3  C   UNL     1       8.912  10.976  17.599  0.00  0.00    +0.000 C 
ATOM      4  N   UNL     1       9.166   9.906  18.576  0.00  0.00    +0.000 N 
ATOM      5  C   UNL     1       8.307   8.803  18.375  0.00  0.00    +0.000 A 
ATOM      6  C   UNL     1       8.579   7.573  18.969  0.00  0.00    +0.000 A 
ATOM      7  C   UNL     1       7.824   6.445  18.626  0.00  0.00    +0.000 A 
ATOM      8  C   UNL     1       6.804   6.581  17.701  0.00  0.00    +0.000 A 
ATOM      9  N   UNL     1       6.517   7.784  17.169  0.00  0.00    +0.000 NA
ATOM     10  N   UNL     1       7.275   8.885  17.506  0.00  0.00    +0.000 NA
ATOM     11  C   UNL     1       9.233  10.385  19.962  0.00  0.00    +0.000 C 
ATOM     12  C   UNL     1      10.369  11.402  20.094  0.00  0.00    +0.000 C 
ENDROOT
BRANCH   8  13
ATOM     13  C   UNL     1       5.997   5.464  17.240  0.00  0.00    +0.000 A 
ATOM     14  N   UNL     1       5.311   4.563  17.915  0.00  0.00    +0.000 NA
ATOM     15  C   UNL     1       4.747   3.812  16.905  0.00  0.00    +0.000 A 
ATOM     16  N   UNL     1       5.052   4.220  15.665  0.00  0.00    +0.000 NA
ATOM     17  O   UNL     1       5.897   5.307  15.884  0.00  0.00    +0.000 OA
BRANCH  15  18
ATOM     18  C   UNL     1       3.760   2.734  17.161  0.00  0.00    +0.000 C 
BRANCH  18  19
ATOM     19  C   UNL     1       2.953   3.147  18.366  0.00  0.00    +0.000 A 
ATOM     20  C   UNL     1       2.248   4.361  18.370  0.00  0.00    +0.000 A 
ATOM     21  C   UNL     1       1.482   4.732  19.476  0.00  0.00    +0.000 A 
ATOM     22  C   UNL     1       1.414   3.898  20.591  0.00  0.00    +0.000 A 
ATOM     23  C   UNL     1       2.115   2.694  20.603  0.00  0.00    +0.000 A 
ATOM     24  C   UNL     1       2.882   2.320  19.498  0.00  0.00    +0.000 A 
ENDBRANCH  18  19
ENDBRANCH  15  18
ENDBRANCH   8  13
BRANCH   1  25
ATOM     25  O   UNL     1       9.280  13.506  19.458  0.00  0.00    +0.000 OA
BRANCH  25  32
ATOM     26  F   UNL     1       7.211  15.240  18.275  0.00  0.00    +0.000 F 
ATOM     27  C   UNL     1       8.470  15.653  18.481  0.00  0.00    +0.000 A 
ATOM     28  C   UNL     1       8.775  16.954  18.083  0.00  0.00    +0.000 A 
ATOM     29  C   UNL     1      10.068  17.449  18.238  0.00  0.00    +0.000 A 
ATOM     30  C   UNL     1      11.046  16.631  18.803  0.00  0.00    +0.000 A 
ATOM     31  C   UNL     1      10.733  15.326  19.202  0.00  0.00    +0.000 A 
ATOM     32  C   UNL     1       9.438  14.811  19.048  0.00  0.00    +0.000 A 
ENDBRANCH  25  32
ENDBRANCH   1  25
TORSDOF 5
ENDMDL
MODEL 9
REMARK VINA RESULT:      -8.0      1.408      1.824
REMARK  Name = 
REMARK  5 active torsions:
REMARK  status: ('A' for Active; 'I' for Inactive)
REMARK    1  A    between atoms: C_7  and  O_8
REMARK    2  A    between atoms: O_8  and  C_9
REMARK    3  A    between atoms: C_16  and  C_17
REMARK    4  A    between atoms: C_19  and  C_20
REMARK    5  A    between atoms: C_20  and  C_21
REMARK                            x       y       z     vdW  Elec       q    Type
REMARK                         _______ _______ _______ _____ _____    ______ ____
ROOT
ATOM      1  C   UNL     1      -2.195  14.362  23.169  0.00  0.00    +0.000 C 
ATOM      2  C   UNL     1      -0.853  14.459  22.431  0.00  0.00    +0.000 C 
ATOM      3  C   UNL     1      -0.524  13.240  21.580  0.00  0.00    +0.000 C 
ATOM      4  N   UNL     1      -0.657  12.012  22.378  0.00  0.00    +0.000 N 
ATOM      5  C   UNL     1      -0.128  10.890  21.700  0.00  0.00    +0.000 A 
ATOM      6  C   UNL     1       0.135   9.706  22.384  0.00  0.00    +0.000 A 
ATOM      7  C   UNL     1       0.819   8.664  21.746  0.00  0.00    +0.000 A 
ATOM      8  C   UNL     1       1.213   8.831  20.431  0.00  0.00    +0.000 A 
ATOM      9  N   UNL     1       0.911   9.961  19.762  0.00  0.00    +0.000 NA
ATOM     10  N   UNL     1       0.247  10.984  20.405  0.00  0.00    +0.000 NA
ATOM     11  C   UNL     1      -2.004  11.815  22.925  0.00  0.00    +0.000 C 
ATOM     12  C   UNL     1      -2.359  12.991  23.838  0.00  0.00    +0.000 C 
ENDROOT
BRANCH   8  13
ATOM     13  C   UNL     1       1.971   7.833  19.696  0.00  0.00    +0.000 A 
ATOM     14  N   UNL     1       2.211   6.565  19.965  0.00  0.00    +0.000 NA
ATOM     15  C   UNL     1       2.951   6.170  18.871  0.00  0.00    +0.000 A 
ATOM     16  N   UNL     1       3.159   7.130  17.958  0.00  0.00    +0.000 NA
ATOM     17  O   UNL     1       2.524   8.241  18.512  0.00  0.00    +0.000 OA
BRANCH  15  18
ATOM     18  C   UNL     1       3.356   4.761  18.641  0.00  0.00    +0.000 C 
BRANCH  18  19
ATOM     19  C   UNL     1       4.794   4.782  18.184  0.00  0.00    +0.000 A 
ATOM     20  C   UNL     1       5.137   4.357  16.892  0.00  0.00    +0.000 A 
ATOM     21  C   UNL     1       6.464   4.399  16.462  0.00  0.00    +0.000 A 
ATOM     22  C   UNL     1       7.462   4.863  17.317  0.00  0.00    +0.000 A 
ATOM     23  C   UNL     1       7.135   5.281  18.605  0.00  0.00    +0.000 A 
ATOM     24  C   UNL     1       5.809   5.240  19.038  0.00  0.00    +0.000 A 
ENDBRANCH  18  19
ENDBRANCH  15  18
ENDBRANCH   8  13
BRANCH   1  25
ATOM     25  O   UNL     1      -3.278  14.632  22.262  0.00  0.00    +0.000 OA
BRANCH  25  32
ATOM     26  F   UNL     1      -5.291  12.536  21.774  0.00  0.00    +0.000 F 
ATOM     27  C   UNL     1      -5.537  13.612  22.536  0.00  0.00    +0.000 A 
ATOM     28  C   UNL     1      -6.817  13.715  23.079  0.00  0.00    +0.000 A 
ATOM     29  C   UNL     1      -7.160  14.816  23.860  0.00  0.00    +0.000 A 
ATOM     30  C   UNL     1      -6.205  15.806  24.096  0.00  0.00    +0.000 A 
ATOM     31  C   UNL     1      -4.921  15.696  23.549  0.00  0.00    +0.000 A 
ATOM     32  C   UNL     1      -4.562  14.596  22.757  0.00  0.00    +0.000 A 
ENDBRANCH  25  32
ENDBRANCH   1  25
TORSDOF 5
ENDMDL
