MODEL 1
REMARK VINA RESULT:      -7.0      0.000      0.000
REMARK  Name = 
REMARK  4 active torsions:
REMARK  status: ('A' for Active; 'I' for Inactive)
REMARK    1  A    between atoms: C_6  and  C_7
REMARK    2  A    between atoms: C_8  and  C_9
REMARK    3  A    between atoms: C_12  and  O_13
REMARK    4  A    between atoms: O_13  and  C_14
REMARK                            x       y       z     vdW  Elec       q    Type
REMARK                         _______ _______ _______ _____ _____    ______ ____
ROOT
ATOM      1  C   UNL     1       3.086   2.005  17.923  0.00  0.00    +0.000 C 
ATOM      2  C   UNL     1       2.582   2.885  18.798  0.00  0.00    +0.000 C 
ATOM      3  C   UNL     1       1.135   2.985  19.055  0.00  0.00    +0.000 C 
ATOM      4  O   UNL     1       0.271   2.269  18.586  0.00  0.00    +0.000 OA
ATOM      5  O   UNL     1       0.918   4.030  19.892  0.00  0.00    +0.000 OA
ATOM      6  C   UNL     1       2.151   4.613  20.346  0.00  0.00    +0.000 C 
ATOM      7  C   UNL     1       2.030   6.130  20.229  0.00  0.00    +0.000 C 
ATOM      8  C   UNL     1       3.303   3.911  19.606  0.00  0.00    +0.000 C 
ENDROOT
BRANCH   8   9
ATOM      9  C   UNL     1       4.250   4.777  18.801  0.00  0.00    +0.000 A 
ATOM     10  C   UNL     1       5.576   4.947  19.227  0.00  0.00    +0.000 A 
ATOM     11  C   UNL     1       6.455   5.755  18.503  0.00  0.00    +0.000 A 
ATOM     12  C   UNL     1       6.033   6.397  17.339  0.00  0.00    +0.000 A 
ATOM     13  C   UNL     1       4.720   6.234  16.905  0.00  0.00    +0.000 A 
ATOM     14  C   UNL     1       3.842   5.416  17.621  0.00  0.00    +0.000 A 
BRANCH  12  15
ATOM     15  O   UNL     1       6.975   7.176  16.726  0.00  0.00    +0.000 OA
ATOM     16  C   UNL     1       7.708   8.043  17.584  0.00  0.00    +0.000 C 
ENDBRANCH  12  15
ENDBRANCH   8   9
TORSDOF 2
ENDMDL
MODEL 2
REMARK VINA RESULT:      -6.9      1.763      2.253
REMARK  Name = 
REMARK  4 active torsions:
REMARK  status: ('A' for Active; 'I' for Inactive)
REMARK    1  A    between atoms: C_6  and  C_7
REMARK    2  A    between atoms: C_8  and  C_9
REMARK    3  A    between atoms: C_12  and  O_13
REMARK    4  A    between atoms: O_13  and  C_14
REMARK                            x       y       z     vdW  Elec       q    Type
REMARK                         _______ _______ _______ _____ _____    ______ ____
ROOT
ATOM      1  C   UNL     1       3.447   1.610  18.322  0.00  0.00    +0.000 C 
ATOM      2  C   UNL     1       3.041   2.828  18.707  0.00  0.00    +0.000 C 
ATOM      3  C   UNL     1       1.614   3.169  18.831  0.00  0.00    +0.000 C 
ATOM      4  O   UNL     1       0.678   2.408  18.681  0.00  0.00    +0.000 OA
ATOM      5  O   UNL     1       1.512   4.490  19.123  0.00  0.00    +0.000 OA
ATOM      6  C   UNL     1       2.801   5.091  19.334  0.00  0.00    +0.000 C 
ATOM      7  C   UNL     1       2.842   6.408  18.565  0.00  0.00    +0.000 C 
ATOM      8  C   UNL     1       3.869   4.028  19.022  0.00  0.00    +0.000 C 
ENDROOT
BRANCH   8   9
ATOM      9  C   UNL     1       4.901   4.361  17.964  0.00  0.00    +0.000 A 
ATOM     10  C   UNL     1       4.541   4.350  16.608  0.00  0.00    +0.000 A 
ATOM     11  C   UNL     1       5.486   4.638  15.621  0.00  0.00    +0.000 A 
ATOM     12  C   UNL     1       6.800   4.952  15.968  0.00  0.00    +0.000 A 
ATOM     13  C   UNL     1       7.169   4.968  17.310  0.00  0.00    +0.000 A 
ATOM     14  C   UNL     1       6.222   4.692  18.300  0.00  0.00    +0.000 A 
BRANCH  12  15
ATOM     15  O   UNL     1       7.640   5.198  14.917  0.00  0.00    +0.000 OA
ATOM     16  C   UNL     1       7.154   4.805  13.638  0.00  0.00    +0.000 C 
ENDBRANCH  12  15
ENDBRANCH   8   9
TORSDOF 2
ENDMDL
MODEL 3
REMARK VINA RESULT:      -6.9      1.068      2.541
REMARK  Name = 
REMARK  4 active torsions:
REMARK  status: ('A' for Active; 'I' for Inactive)
REMARK    1  A    between atoms: C_6  and  C_7
REMARK    2  A    between atoms: C_8  and  C_9
REMARK    3  A    between atoms: C_12  and  O_13
REMARK    4  A    between atoms: O_13  and  C_14
REMARK                            x       y       z     vdW  Elec       q    Type
REMARK                         _______ _______ _______ _____ _____    ______ ____
ROOT
ATOM      1  C   UNL     1       1.847   5.424  20.607  0.00  0.00    +0.000 C 
ATOM      2  C   UNL     1       1.927   4.278  19.919  0.00  0.00    +0.000 C 
ATOM      3  C   UNL     1       1.532   2.988  20.509  0.00  0.00    +0.000 C 
ATOM      4  O   UNL     1       1.039   2.821  21.608  0.00  0.00    +0.000 OA
ATOM      5  O   UNL     1       1.828   2.002  19.625  0.00  0.00    +0.000 OA
ATOM      6  C   UNL     1       2.308   2.532  18.377  0.00  0.00    +0.000 C 
ATOM      7  C   UNL     1       3.544   1.736  17.968  0.00  0.00    +0.000 C 
ATOM      8  C   UNL     1       2.437   4.056  18.535  0.00  0.00    +0.000 C 
ENDROOT
BRANCH   8   9
ATOM      9  C   UNL     1       3.795   4.676  18.272  0.00  0.00    +0.000 A 
ATOM     10  C   UNL     1       4.092   5.200  17.005  0.00  0.00    +0.000 A 
ATOM     11  C   UNL     1       5.344   5.759  16.744  0.00  0.00    +0.000 A 
ATOM     12  C   UNL     1       6.318   5.814  17.741  0.00  0.00    +0.000 A 
ATOM     13  C   UNL     1       6.034   5.300  19.003  0.00  0.00    +0.000 A 
ATOM     14  C   UNL     1       4.777   4.751  19.271  0.00  0.00    +0.000 A 
BRANCH  12  15
ATOM     15  O   UNL     1       7.511   6.366  17.365  0.00  0.00    +0.000 OA
ATOM     16  C   UNL     1       7.646   7.762  17.607  0.00  0.00    +0.000 C 
ENDBRANCH  12  15
ENDBRANCH   8   9
TORSDOF 2
ENDMDL
MODEL 4
REMARK VINA RESULT:      -6.9      0.180      1.216
REMARK  Name = 
REMARK  4 active torsions:
REMARK  status: ('A' for Active; 'I' for Inactive)
REMARK    1  A    between atoms: C_6  and  C_7
REMARK    2  A    between atoms: C_8  and  C_9
REMARK    3  A    between atoms: C_12  and  O_13
REMARK    4  A    between atoms: O_13  and  C_14
REMARK                            x       y       z     vdW  Elec       q    Type
REMARK                         _______ _______ _______ _____ _____    ______ ____
ROOT
ATOM      1  C   UNL     1       3.059   2.000  17.888  0.00  0.00    +0.000 C 
ATOM      2  C   UNL     1       2.537   2.826  18.805  0.00  0.00    +0.000 C 
ATOM      3  C   UNL     1       1.085   2.912  19.037  0.00  0.00    +0.000 C 
ATOM      4  O   UNL     1       0.231   2.227  18.508  0.00  0.00    +0.000 OA
ATOM      5  O   UNL     1       0.851   3.903  19.933  0.00  0.00    +0.000 OA
ATOM      6  C   UNL     1       2.075   4.456  20.447  0.00  0.00    +0.000 C 
ATOM      7  C   UNL     1       1.956   5.978  20.420  0.00  0.00    +0.000 C 
ATOM      8  C   UNL     1       3.241   3.799  19.690  0.00  0.00    +0.000 C 
ENDROOT
BRANCH   8   9
ATOM      9  C   UNL     1       4.205   4.711  18.958  0.00  0.00    +0.000 A 
ATOM     10  C   UNL     1       3.766   5.446  17.847  0.00  0.00    +0.000 A 
ATOM     11  C   UNL     1       4.647   6.278  17.154  0.00  0.00    +0.000 A 
ATOM     12  C   UNL     1       5.975   6.400  17.561  0.00  0.00    +0.000 A 
ATOM     13  C   UNL     1       6.422   5.678  18.664  0.00  0.00    +0.000 A 
ATOM     14  C   UNL     1       5.539   4.854  19.366  0.00  0.00    +0.000 A 
BRANCH  12  15
ATOM     15  O   UNL     1       6.748   7.228  16.795  0.00  0.00    +0.000 OA
ATOM     16  C   UNL     1       7.663   8.051  17.511  0.00  0.00    +0.000 C 
ENDBRANCH  12  15
ENDBRANCH   8   9
TORSDOF 2
ENDMDL
MODEL 5
REMARK VINA RESULT:      -6.8      1.865      2.030
REMARK  Name = 
REMARK  4 active torsions:
REMARK  status: ('A' for Active; 'I' for Inactive)
REMARK    1  A    between atoms: C_6  and  C_7
REMARK    2  A    between atoms: C_8  and  C_9
REMARK    3  A    between atoms: C_12  and  O_13
REMARK    4  A    between atoms: O_13  and  C_14
REMARK                            x       y       z     vdW  Elec       q    Type
REMARK                         _______ _______ _______ _____ _____    ______ ____
ROOT
ATOM      1  C   UNL     1       3.470   1.576  18.213  0.00  0.00    +0.000 C 
ATOM      2  C   UNL     1       3.039   2.804  18.532  0.00  0.00    +0.000 C 
ATOM      3  C   UNL     1       1.605   3.123  18.634  0.00  0.00    +0.000 C 
ATOM      4  O   UNL     1       0.684   2.336  18.523  0.00  0.00    +0.000 OA
ATOM      5  O   UNL     1       1.475   4.455  18.856  0.00  0.00    +0.000 OA
ATOM      6  C   UNL     1       2.752   5.091  19.037  0.00  0.00    +0.000 C 
ATOM      7  C   UNL     1       2.768   6.367  18.200  0.00  0.00    +0.000 C 
ATOM      8  C   UNL     1       3.842   4.036  18.785  0.00  0.00    +0.000 C 
ENDROOT
BRANCH   8   9
ATOM      9  C   UNL     1       4.870   4.332  17.712  0.00  0.00    +0.000 A 
ATOM     10  C   UNL     1       6.156   4.760  18.075  0.00  0.00    +0.000 A 
ATOM     11  C   UNL     1       7.109   5.052  17.097  0.00  0.00    +0.000 A 
ATOM     12  C   UNL     1       6.801   4.913  15.744  0.00  0.00    +0.000 A 
ATOM     13  C   UNL     1       5.529   4.487  15.371  0.00  0.00    +0.000 A 
ATOM     14  C   UNL     1       4.578   4.182  16.348  0.00  0.00    +0.000 A 
BRANCH  12  15
ATOM     15  O   UNL     1       7.806   5.246  14.878  0.00  0.00    +0.000 OA
ATOM     16  C   UNL     1       7.524   5.033  13.499  0.00  0.00    +0.000 C 
ENDBRANCH  12  15
ENDBRANCH   8   9
TORSDOF 2
ENDMDL
MODEL 6
REMARK VINA RESULT:      -6.8      1.107      2.307
REMARK  Name = 
REMARK  4 active torsions:
REMARK  status: ('A' for Active; 'I' for Inactive)
REMARK    1  A    between atoms: C_6  and  C_7
REMARK    2  A    between atoms: C_8  and  C_9
REMARK    3  A    between atoms: C_12  and  O_13
REMARK    4  A    between atoms: O_13  and  C_14
REMARK                            x       y       z     vdW  Elec       q    Type
REMARK                         _______ _______ _______ _____ _____    ______ ____
ROOT
ATOM      1  C   UNL     1       1.914   5.483  20.395  0.00  0.00    +0.000 C 
ATOM      2  C   UNL     1       1.986   4.293  19.784  0.00  0.00    +0.000 C 
ATOM      3  C   UNL     1       1.590   3.047  20.460  0.00  0.00    +0.000 C 
ATOM      4  O   UNL     1       1.102   2.955  21.570  0.00  0.00    +0.000 OA
ATOM      5  O   UNL     1       1.878   2.004  19.642  0.00  0.00    +0.000 OA
ATOM      6  C   UNL     1       2.353   2.448  18.359  0.00  0.00    +0.000 C 
ATOM      7  C   UNL     1       3.585   1.622  17.998  0.00  0.00    +0.000 C 
ATOM      8  C   UNL     1       2.489   3.979  18.415  0.00  0.00    +0.000 C 
ENDROOT
BRANCH   8   9
ATOM      9  C   UNL     1       3.848   4.574  18.106  0.00  0.00    +0.000 A 
ATOM     10  C   UNL     1       4.807   4.694  19.122  0.00  0.00    +0.000 A 
ATOM     11  C   UNL     1       6.058   5.255  18.855  0.00  0.00    +0.000 A 
ATOM     12  C   UNL     1       6.377   5.697  17.571  0.00  0.00    +0.000 A 
ATOM     13  C   UNL     1       5.434   5.581  16.553  0.00  0.00    +0.000 A 
ATOM     14  C   UNL     1       4.186   5.009  16.815  0.00  0.00    +0.000 A 
BRANCH  12  15
ATOM     15  O   UNL     1       7.621   6.245  17.433  0.00  0.00    +0.000 OA
ATOM     16  C   UNL     1       7.693   7.657  17.599  0.00  0.00    +0.000 C 
ENDBRANCH  12  15
ENDBRANCH   8   9
TORSDOF 2
ENDMDL
MODEL 7
REMARK VINA RESULT:      -6.7      1.569      5.997
REMARK  Name = 
REMARK  4 active torsions:
REMARK  status: ('A' for Active; 'I' for Inactive)
REMARK    1  A    between atoms: C_6  and  C_7
REMARK    2  A    between atoms: C_8  and  C_9
REMARK    3  A    between atoms: C_12  and  O_13
REMARK    4  A    between atoms: O_13  and  C_14
REMARK                            x       y       z     vdW  Elec       q    Type
REMARK                         _______ _______ _______ _____ _____    ______ ____
ROOT
ATOM      1  C   UNL     1       6.792   5.548  19.538  0.00  0.00    +0.000 C 
ATOM      2  C   UNL     1       6.901   5.547  18.203  0.00  0.00    +0.000 C 
ATOM      3  C   UNL     1       7.550   6.650  17.474  0.00  0.00    +0.000 C 
ATOM      4  O   UNL     1       8.106   7.611  17.972  0.00  0.00    +0.000 OA
ATOM      5  O   UNL     1       7.408   6.429  16.144  0.00  0.00    +0.000 OA
ATOM      6  C   UNL     1       6.792   5.157  15.878  0.00  0.00    +0.000 C 
ATOM      7  C   UNL     1       5.710   5.366  14.822  0.00  0.00    +0.000 C 
ATOM      8  C   UNL     1       6.388   4.541  17.228  0.00  0.00    +0.000 C 
ENDROOT
BRANCH   8   9
ATOM      9  C   UNL     1       4.931   4.178  17.425  0.00  0.00    +0.000 A 
ATOM     10  C   UNL     1       3.971   5.191  17.569  0.00  0.00    +0.000 A 
ATOM     11  C   UNL     1       2.626   4.871  17.768  0.00  0.00    +0.000 A 
ATOM     12  C   UNL     1       2.214   3.539  17.816  0.00  0.00    +0.000 A 
ATOM     13  C   UNL     1       3.157   2.526  17.671  0.00  0.00    +0.000 A 
ATOM     14  C   UNL     1       4.501   2.843  17.461  0.00  0.00    +0.000 A 
BRANCH  12  15
ATOM     15  O   UNL     1       0.878   3.348  18.034  0.00  0.00    +0.000 OA
ATOM     16  C   UNL     1       0.547   2.310  18.949  0.00  0.00    +0.000 C 
ENDBRANCH  12  15
ENDBRANCH   8   9
TORSDOF 2
ENDMDL
MODEL 8
REMARK VINA RESULT:      -6.7      1.703      5.731
REMARK  Name = 
REMARK  4 active torsions:
REMARK  status: ('A' for Active; 'I' for Inactive)
REMARK    1  A    between atoms: C_6  and  C_7
REMARK    2  A    between atoms: C_8  and  C_9
REMARK    3  A    between atoms: C_12  and  O_13
REMARK    4  A    between atoms: O_13  and  C_14
REMARK                            x       y       z     vdW  Elec       q    Type
REMARK                         _______ _______ _______ _____ _____    ______ ____
ROOT
ATOM      1  C   UNL     1       5.034   4.549  14.412  0.00  0.00    +0.000 C 
ATOM      2  C   UNL     1       5.655   5.128  15.449  0.00  0.00    +0.000 C 
ATOM      3  C   UNL     1       7.123   5.208  15.529  0.00  0.00    +0.000 C 
ATOM      4  O   UNL     1       7.911   4.846  14.676  0.00  0.00    +0.000 OA
ATOM      5  O   UNL     1       7.460   5.738  16.731  0.00  0.00    +0.000 OA
ATOM      6  C   UNL     1       6.301   6.155  17.473  0.00  0.00    +0.000 C 
ATOM      7  C   UNL     1       6.451   5.657  18.908  0.00  0.00    +0.000 C 
ATOM      8  C   UNL     1       5.056   5.727  16.676  0.00  0.00    +0.000 C 
ENDROOT
BRANCH   8   9
ATOM      9  C   UNL     1       4.051   4.832  17.372  0.00  0.00    +0.000 A 
ATOM     10  C   UNL     1       2.879   5.383  17.912  0.00  0.00    +0.000 A 
ATOM     11  C   UNL     1       1.952   4.572  18.570  0.00  0.00    +0.000 A 
ATOM     12  C   UNL     1       2.172   3.200  18.693  0.00  0.00    +0.000 A 
ATOM     13  C   UNL     1       3.330   2.641  18.159  0.00  0.00    +0.000 A 
ATOM     14  C   UNL     1       4.253   3.449  17.490  0.00  0.00    +0.000 A 
BRANCH  12  15
ATOM     15  O   UNL     1       1.206   2.512  19.373  0.00  0.00    +0.000 OA
ATOM     16  C   UNL     1       1.211   2.680  20.786  0.00  0.00    +0.000 C 
ENDBRANCH  12  15
ENDBRANCH   8   9
TORSDOF 2
ENDMDL
MODEL 9
REMARK VINA RESULT:      -6.6      1.542      2.218
REMARK  Name = 
REMARK  4 active torsions:
REMARK  status: ('A' for Active; 'I' for Inactive)
REMARK    1  A    between atoms: C_6  and  C_7
REMARK    2  A    between atoms: C_8  and  C_9
REMARK    3  A    between atoms: C_12  and  O_13
REMARK    4  A    between atoms: O_13  and  C_14
REMARK                            x       y       z     vdW  Elec       q    Type
REMARK                         _______ _______ _______ _____ _____    ______ ____
ROOT
ATOM      1  C   UNL     1       1.345   4.669  17.536  0.00  0.00    +0.000 C 
ATOM      2  C   UNL     1       1.972   3.699  18.214  0.00  0.00    +0.000 C 
ATOM      3  C   UNL     1       1.483   3.220  19.518  0.00  0.00    +0.000 C 
ATOM      4  O   UNL     1       0.462   3.573  20.076  0.00  0.00    +0.000 OA
ATOM      5  O   UNL     1       2.377   2.326  20.010  0.00  0.00    +0.000 OA
ATOM      6  C   UNL     1       3.427   2.048  19.067  0.00  0.00    +0.000 C 
ATOM      7  C   UNL     1       4.758   2.097  19.812  0.00  0.00    +0.000 C 
ATOM      8  C   UNL     1       3.229   2.979  17.858  0.00  0.00    +0.000 C 
ENDROOT
BRANCH   8   9
ATOM      9  C   UNL     1       4.378   3.892  17.482  0.00  0.00    +0.000 A 
ATOM     10  C   UNL     1       4.647   5.032  18.254  0.00  0.00    +0.000 A 
ATOM     11  C   UNL     1       5.693   5.892  17.909  0.00  0.00    +0.000 A 
ATOM     12  C   UNL     1       6.492   5.625  16.798  0.00  0.00    +0.000 A 
ATOM     13  C   UNL     1       6.236   4.496  16.026  0.00  0.00    +0.000 A 
ATOM     14  C   UNL     1       5.199   3.628  16.375  0.00  0.00    +0.000 A 
BRANCH  12  15
ATOM     15  O   UNL     1       7.471   6.546  16.548  0.00  0.00    +0.000 OA
ATOM     16  C   UNL     1       7.608   7.577  17.519  0.00  0.00    +0.000 C 
ENDBRANCH  12  15
ENDBRANCH   8   9
TORSDOF 2
ENDMDL
