MODEL 1
REMARK VINA RESULT:      -9.0      0.000      0.000
REMARK  Name = 
REMARK  14 active torsions:
REMARK  status: ('A' for Active; 'I' for Inactive)
REMARK    1  A    between atoms: C_1  and  C_2
REMARK    2  A    between atoms: C_2  and  N_3
REMARK    3  A    between atoms: N_3  and  C_4
REMARK    4  A    between atoms: N_3  and  C_6
REMARK    5  A    between atoms: C_4  and  C_5
REMARK    6  A    between atoms: C_6  and  C_7
REMARK    7  A    between atoms: C_7  and  C_8
REMARK    8  A    between atoms: C_8  and  C_9
REMARK    9  A    between atoms: C_9  and  C_10
REMARK   10  A    between atoms: C_9  and  N_11
REMARK   11  A    between atoms: C_15  and  C_17
REMARK   12  A    between atoms: C_23  and  C_24
REMARK   13  A    between atoms: C_24  and  C_25
REMARK   14  A    between atoms: C_25  and  C_26
REMARK                            x       y       z     vdW  Elec       q    Type
REMARK                         _______ _______ _______ _____ _____    ______ ____
ROOT
ATOM      1  N   UNL     1       7.147   5.710  17.135  0.00  0.00    +0.000 NA
ATOM      2  C   UNL     1       6.380   4.681  17.181  0.00  0.00    +0.000 C 
ATOM      3  N   UNL     1       6.670   3.632  16.375  0.00  0.00    +0.000 N 
ATOM      4  N   UNL     1       5.286   4.591  18.005  0.00  0.00    +0.000 N 
ATOM      5  C   UNL     1       4.368   3.557  18.037  0.00  0.00    +0.000 C 
ATOM      6  O   UNL     1       4.211   2.735  17.138  0.00  0.00    +0.000 OA
ATOM      7  H   UNL     1       7.250   3.878  15.583  0.00  0.00    +0.000 HD
ATOM      8  H   UNL     1       5.885   3.014  16.164  0.00  0.00    +0.000 HD
ATOM      9  H   UNL     1       5.210   5.299  18.718  0.00  0.00    +0.000 HD
ENDROOT
BRANCH   5  10
ATOM     10  C   UNL     1       3.441   3.538  19.201  0.00  0.00    +0.000 A 
ATOM     11  C   UNL     1       3.767   2.623  20.222  0.00  0.00    +0.000 A 
ATOM     12  C   UNL     1       2.959   2.500  21.350  0.00  0.00    +0.000 A 
ATOM     13  C   UNL     1       1.814   3.282  21.450  0.00  0.00    +0.000 A 
ATOM     14  C   UNL     1       1.503   4.204  20.442  0.00  0.00    +0.000 A 
ATOM     15  F   UNL     1       0.365   4.898  20.578  0.00  0.00    +0.000 F 
ATOM     16  C   UNL     1       2.321   4.398  19.321  0.00  0.00    +0.000 A 
BRANCH  16  17
ATOM     17  C   UNL     1       1.985   5.424  18.251  0.00  0.00    +0.000 C 
BRANCH  17  18
ATOM     18  C   UNL     1       2.827   6.712  18.129  0.00  0.00    +0.000 C 
BRANCH  18  19
ATOM     19  C   UNL     1       2.132   7.911  18.765  0.00  0.00    +0.000 A 
ATOM     20  C   UNL     1       1.704   8.998  17.999  0.00  0.00    +0.000 A 
ATOM     21  C   UNL     1       0.962  10.036  18.580  0.00  0.00    +0.000 A 
ATOM     22  C   UNL     1       0.575   9.985  19.929  0.00  0.00    +0.000 A 
ATOM     23  C   UNL     1      -0.251  10.969  20.507  0.00  0.00    +0.000 A 
ATOM     24  C   UNL     1      -0.727  10.836  21.814  0.00  0.00    +0.000 A 
ATOM     25  C   UNL     1      -0.397   9.709  22.557  0.00  0.00    +0.000 A 
ATOM     26  C   UNL     1       0.471   8.757  22.021  0.00  0.00    +0.000 A 
ATOM     27  C   UNL     1       0.979   8.887  20.712  0.00  0.00    +0.000 A 
ATOM     28  C   UNL     1       1.846   7.931  20.140  0.00  0.00    +0.000 A 
ENDBRANCH  18  19
ENDBRANCH  17  18
ENDBRANCH  16  17
ENDBRANCH   5  10
BRANCH   1  29
ATOM     29  C   UNL     1       6.901   6.921  17.919  0.00  0.00    +0.000 C 
ATOM     30  C   UNL     1       5.924   7.792  17.129  0.00  0.00    +0.000 C 
BRANCH  29  31
ATOM     31  C   UNL     1       8.243   7.636  18.152  0.00  0.00    +0.000 C 
BRANCH  31  32
ATOM     32  C   UNL     1       8.197   9.149  17.890  0.00  0.00    +0.000 C 
BRANCH  32  33
ATOM     33  C   UNL     1       9.022  10.002  18.876  0.00  0.00    +0.000 C 
BRANCH  33  34
ATOM     34  N   UNL     1       9.788  11.079  18.228  0.00  0.00    +0.000 NA
BRANCH  34  36
ATOM     35  C   UNL     1       9.624  13.539  17.686  0.00  0.00    +0.000 C 
ATOM     36  C   UNL     1       8.906  12.217  17.904  0.00  0.00    +0.000 C 
ENDBRANCH  34  36
BRANCH  34  37
ATOM     37  C   UNL     1      10.992  11.456  18.982  0.00  0.00    +0.000 C 
ATOM     38  C   UNL     1      10.812  11.647  20.484  0.00  0.00    +0.000 C 
ENDBRANCH  34  37
ENDBRANCH  33  34
ENDBRANCH  32  33
ENDBRANCH  31  32
ENDBRANCH  29  31
ENDBRANCH   1  29
TORSDOF 11
ENDMDL
MODEL 2
REMARK VINA RESULT:      -8.0      0.960      1.827
REMARK  Name = 
REMARK  14 active torsions:
REMARK  status: ('A' for Active; 'I' for Inactive)
REMARK    1  A    between atoms: C_1  and  C_2
REMARK    2  A    between atoms: C_2  and  N_3
REMARK    3  A    between atoms: N_3  and  C_4
REMARK    4  A    between atoms: N_3  and  C_6
REMARK    5  A    between atoms: C_4  and  C_5
REMARK    6  A    between atoms: C_6  and  C_7
REMARK    7  A    between atoms: C_7  and  C_8
REMARK    8  A    between atoms: C_8  and  C_9
REMARK    9  A    between atoms: C_9  and  C_10
REMARK   10  A    between atoms: C_9  and  N_11
REMARK   11  A    between atoms: C_15  and  C_17
REMARK   12  A    between atoms: C_23  and  C_24
REMARK   13  A    between atoms: C_24  and  C_25
REMARK   14  A    between atoms: C_25  and  C_26
REMARK                            x       y       z     vdW  Elec       q    Type
REMARK                         _______ _______ _______ _____ _____    ______ ____
ROOT
ATOM      1  N   UNL     1       7.633   6.539  16.910  0.00  0.00    +0.000 NA
ATOM      2  C   UNL     1       6.933   5.470  16.778  0.00  0.00    +0.000 C 
ATOM      3  N   UNL     1       7.276   4.599  15.799  0.00  0.00    +0.000 N 
ATOM      4  N   UNL     1       5.861   5.166  17.578  0.00  0.00    +0.000 N 
ATOM      5  C   UNL     1       5.010   4.085  17.433  0.00  0.00    +0.000 C 
ATOM      6  O   UNL     1       4.892   3.424  16.404  0.00  0.00    +0.000 OA
ATOM      7  H   UNL     1       7.827   5.017  15.059  0.00  0.00    +0.000 HD
ATOM      8  H   UNL     1       6.529   3.978  15.487  0.00  0.00    +0.000 HD
ATOM      9  H   UNL     1       5.751   5.732  18.405  0.00  0.00    +0.000 HD
ENDROOT
BRANCH   5  10
ATOM     10  C   UNL     1       4.105   3.802  18.579  0.00  0.00    +0.000 A 
ATOM     11  C   UNL     1       4.534   2.785  19.456  0.00  0.00    +0.000 A 
ATOM     12  C   UNL     1       3.757   2.418  20.552  0.00  0.00    +0.000 A 
ATOM     13  C   UNL     1       2.542   3.056  20.764  0.00  0.00    +0.000 A 
ATOM     14  C   UNL     1       2.126   4.080  19.901  0.00  0.00    +0.000 A 
ATOM     15  F   UNL     1       0.927   4.628  20.136  0.00  0.00    +0.000 F 
ATOM     16  C   UNL     1       2.907   4.518  18.823  0.00  0.00    +0.000 A 
BRANCH  16  17
ATOM     17  C   UNL     1       2.455   5.650  17.915  0.00  0.00    +0.000 C 
BRANCH  17  18
ATOM     18  C   UNL     1       2.998   7.078  18.139  0.00  0.00    +0.000 C 
BRANCH  18  19
ATOM     19  C   UNL     1       2.052   7.921  18.988  0.00  0.00    +0.000 A 
ATOM     20  C   UNL     1       1.875   7.672  20.351  0.00  0.00    +0.000 A 
ATOM     21  C   UNL     1       1.095   8.529  21.140  0.00  0.00    +0.000 A 
ATOM     22  C   UNL     1       0.520   9.691  20.601  0.00  0.00    +0.000 A 
ATOM     23  C   UNL     1      -0.186  10.615  21.397  0.00  0.00    +0.000 A 
ATOM     24  C   UNL     1      -0.643  11.824  20.868  0.00  0.00    +0.000 A 
ATOM     25  C   UNL     1      -0.386  12.136  19.538  0.00  0.00    +0.000 A 
ATOM     26  C   UNL     1       0.257  11.205  18.721  0.00  0.00    +0.000 A 
ATOM     27  C   UNL     1       0.704   9.970  19.233  0.00  0.00    +0.000 A 
ATOM     28  C   UNL     1       1.371   9.017  18.433  0.00  0.00    +0.000 A 
ENDBRANCH  18  19
ENDBRANCH  17  18
ENDBRANCH  16  17
ENDBRANCH   5  10
BRANCH   1  29
ATOM     29  C   UNL     1       7.323   7.576  17.895  0.00  0.00    +0.000 C 
ATOM     30  C   UNL     1       6.227   8.463  17.304  0.00  0.00    +0.000 C 
BRANCH  29  31
ATOM     31  C   UNL     1       8.605   8.372  18.190  0.00  0.00    +0.000 C 
BRANCH  31  32
ATOM     32  C   UNL     1       8.388   9.889  18.290  0.00  0.00    +0.000 C 
BRANCH  32  33
ATOM     33  C   UNL     1       9.665  10.739  18.123  0.00  0.00    +0.000 C 
BRANCH  33  34
ATOM     34  N   UNL     1       9.738  11.883  19.045  0.00  0.00    +0.000 NA
BRANCH  34  36
ATOM     35  C   UNL     1       9.810  12.526  21.485  0.00  0.00    +0.000 C 
ATOM     36  C   UNL     1       9.719  11.420  20.446  0.00  0.00    +0.000 C 
ENDBRANCH  34  36
BRANCH  34  37
ATOM     37  C   UNL     1      10.850  12.795  18.736  0.00  0.00    +0.000 C 
ATOM     38  C   UNL     1      10.789  13.494  17.382  0.00  0.00    +0.000 C 
ENDBRANCH  34  37
ENDBRANCH  33  34
ENDBRANCH  32  33
ENDBRANCH  31  32
ENDBRANCH  29  31
ENDBRANCH   1  29
TORSDOF 11
ENDMDL
MODEL 3
REMARK VINA RESULT:      -8.0      5.419     10.152
REMARK  Name = 
REMARK  14 active torsions:
REMARK  status: ('A' for Active; 'I' for Inactive)
REMARK    1  A    between atoms: C_1  and  C_2
REMARK    2  A    between atoms: C_2  and  N_3
REMARK    3  A    between atoms: N_3  and  C_4
REMARK    4  A    between atoms: N_3  and  C_6
REMARK    5  A    between atoms: C_4  and  C_5
REMARK    6  A    between atoms: C_6  and  C_7
REMARK    7  A    between atoms: C_7  and  C_8
REMARK    8  A    between atoms: C_8  and  C_9
REMARK    9  A    between atoms: C_9  and  C_10
REMARK   10  A    between atoms: C_9  and  N_11
REMARK   11  A    between atoms: C_15  and  C_17
REMARK   12  A    between atoms: C_23  and  C_24
REMARK   13  A    between atoms: C_24  and  C_25
REMARK   14  A    between atoms: C_25  and  C_26
REMARK                            x       y       z     vdW  Elec       q    Type
REMARK                         _______ _______ _______ _____ _____    ______ ____
ROOT
ATOM      1  N   UNL     1      -2.297  11.544  16.548  0.00  0.00    +0.000 NA
ATOM      2  C   UNL     1      -1.401  11.898  17.399  0.00  0.00    +0.000 C 
ATOM      3  N   UNL     1      -1.060  13.207  17.458  0.00  0.00    +0.000 N 
ATOM      4  N   UNL     1      -0.778  11.020  18.249  0.00  0.00    +0.000 N 
ATOM      5  C   UNL     1       0.255  11.315  19.119  0.00  0.00    +0.000 C 
ATOM      6  O   UNL     1       0.973  12.309  19.038  0.00  0.00    +0.000 OA
ATOM      7  H   UNL     1      -1.286  13.723  16.616  0.00  0.00    +0.000 HD
ATOM      8  H   UNL     1      -0.138  13.399  17.851  0.00  0.00    +0.000 HD
ATOM      9  H   UNL     1      -1.186  10.100  18.311  0.00  0.00    +0.000 HD
ENDROOT
BRANCH   5  10
ATOM     10  C   UNL     1       0.571  10.280  20.140  0.00  0.00    +0.000 A 
ATOM     11  C   UNL     1       0.236  10.615  21.468  0.00  0.00    +0.000 A 
ATOM     12  C   UNL     1       0.506   9.733  22.512  0.00  0.00    +0.000 A 
ATOM     13  C   UNL     1       1.126   8.522  22.231  0.00  0.00    +0.000 A 
ATOM     14  C   UNL     1       1.442   8.185  20.908  0.00  0.00    +0.000 A 
ATOM     15  F   UNL     1       2.076   7.021  20.708  0.00  0.00    +0.000 F 
ATOM     16  C   UNL     1       1.133   9.018  19.825  0.00  0.00    +0.000 A 
BRANCH  16  17
ATOM     17  C   UNL     1       1.455   8.624  18.393  0.00  0.00    +0.000 C 
BRANCH  17  18
ATOM     18  C   UNL     1       2.920   8.367  17.978  0.00  0.00    +0.000 C 
BRANCH  18  19
ATOM     19  C   UNL     1       3.207   6.882  17.787  0.00  0.00    +0.000 A 
ATOM     20  C   UNL     1       4.504   6.409  17.572  0.00  0.00    +0.000 A 
ATOM     21  C   UNL     1       4.764   5.033  17.518  0.00  0.00    +0.000 A 
ATOM     22  C   UNL     1       3.746   4.091  17.736  0.00  0.00    +0.000 A 
ATOM     23  C   UNL     1       4.005   2.706  17.781  0.00  0.00    +0.000 A 
ATOM     24  C   UNL     1       3.003   1.795  18.123  0.00  0.00    +0.000 A 
ATOM     25  C   UNL     1       1.731   2.255  18.441  0.00  0.00    +0.000 A 
ATOM     26  C   UNL     1       1.442   3.617  18.340  0.00  0.00    +0.000 A 
ATOM     27  C   UNL     1       2.436   4.548  17.974  0.00  0.00    +0.000 A 
ATOM     28  C   UNL     1       2.175   5.933  17.880  0.00  0.00    +0.000 A 
ENDBRANCH  18  19
ENDBRANCH  17  18
ENDBRANCH  16  17
ENDBRANCH   5  10
BRANCH   1  29
ATOM     29  C   UNL     1      -2.706  10.152  16.358  0.00  0.00    +0.000 C 
ATOM     30  C   UNL     1      -3.250  10.020  14.935  0.00  0.00    +0.000 C 
BRANCH  29  31
ATOM     31  C   UNL     1      -3.771   9.805  17.412  0.00  0.00    +0.000 C 
BRANCH  31  32
ATOM     32  C   UNL     1      -4.331  11.026  18.157  0.00  0.00    +0.000 C 
BRANCH  32  33
ATOM     33  C   UNL     1      -5.830  11.299  17.918  0.00  0.00    +0.000 C 
BRANCH  33  34
ATOM     34  N   UNL     1      -6.226  12.693  18.176  0.00  0.00    +0.000 NA
BRANCH  34  36
ATOM     35  C   UNL     1      -7.674  14.403  17.015  0.00  0.00    +0.000 C 
ATOM     36  C   UNL     1      -6.557  13.378  16.912  0.00  0.00    +0.000 C 
ENDBRANCH  34  36
BRANCH  34  37
ATOM     37  C   UNL     1      -7.269  12.809  19.205  0.00  0.00    +0.000 C 
ATOM     38  C   UNL     1      -7.627  11.526  19.947  0.00  0.00    +0.000 C 
ENDBRANCH  34  37
ENDBRANCH  33  34
ENDBRANCH  32  33
ENDBRANCH  31  32
ENDBRANCH  29  31
ENDBRANCH   1  29
TORSDOF 11
ENDMDL
MODEL 4
REMARK VINA RESULT:      -7.8      3.119      5.916
REMARK  Name = 
REMARK  14 active torsions:
REMARK  status: ('A' for Active; 'I' for Inactive)
REMARK    1  A    between atoms: C_1  and  C_2
REMARK    2  A    between atoms: C_2  and  N_3
REMARK    3  A    between atoms: N_3  and  C_4
REMARK    4  A    between atoms: N_3  and  C_6
REMARK    5  A    between atoms: C_4  and  C_5
REMARK    6  A    between atoms: C_6  and  C_7
REMARK    7  A    between atoms: C_7  and  C_8
REMARK    8  A    between atoms: C_8  and  C_9
REMARK    9  A    between atoms: C_9  and  C_10
REMARK   10  A    between atoms: C_9  and  N_11
REMARK   11  A    between atoms: C_15  and  C_17
REMARK   12  A    between atoms: C_23  and  C_24
REMARK   13  A    between atoms: C_24  and  C_25
REMARK   14  A    between atoms: C_25  and  C_26
REMARK                            x       y       z     vdW  Elec       q    Type
REMARK                         _______ _______ _______ _____ _____    ______ ____
ROOT
ATOM      1  N   UNL     1       7.317   6.251  16.231  0.00  0.00    +0.000 NA
ATOM      2  C   UNL     1       7.023   5.958  17.447  0.00  0.00    +0.000 C 
ATOM      3  N   UNL     1       7.800   6.469  18.432  0.00  0.00    +0.000 N 
ATOM      4  N   UNL     1       5.965   5.158  17.796  0.00  0.00    +0.000 N 
ATOM      5  C   UNL     1       5.649   4.728  19.072  0.00  0.00    +0.000 C 
ATOM      6  O   UNL     1       6.428   4.730  20.022  0.00  0.00    +0.000 OA
ATOM      7  H   UNL     1       8.720   6.750  18.117  0.00  0.00    +0.000 HD
ATOM      8  H   UNL     1       7.780   5.955  19.313  0.00  0.00    +0.000 HD
ATOM      9  H   UNL     1       5.304   4.954  17.063  0.00  0.00    +0.000 HD
ENDROOT
BRANCH   5  10
ATOM     10  C   UNL     1       4.304   4.116  19.246  0.00  0.00    +0.000 A 
ATOM     11  C   UNL     1       4.273   2.707  19.248  0.00  0.00    +0.000 A 
ATOM     12  C   UNL     1       3.066   2.024  19.380  0.00  0.00    +0.000 A 
ATOM     13  C   UNL     1       1.887   2.749  19.494  0.00  0.00    +0.000 A 
ATOM     14  C   UNL     1       1.923   4.150  19.510  0.00  0.00    +0.000 A 
ATOM     15  F   UNL     1       0.749   4.791  19.581  0.00  0.00    +0.000 F 
ATOM     16  C   UNL     1       3.121   4.873  19.439  0.00  0.00    +0.000 A 
BRANCH  16  17
ATOM     17  C   UNL     1       3.145   6.392  19.487  0.00  0.00    +0.000 C 
BRANCH  17  18
ATOM     18  C   UNL     1       2.606   7.207  18.292  0.00  0.00    +0.000 C 
BRANCH  18  19
ATOM     19  C   UNL     1       1.950   8.509  18.740  0.00  0.00    +0.000 A 
ATOM     20  C   UNL     1       1.202   8.583  19.917  0.00  0.00    +0.000 A 
ATOM     21  C   UNL     1       0.707   9.813  20.374  0.00  0.00    +0.000 A 
ATOM     22  C   UNL     1       0.997  11.010  19.700  0.00  0.00    +0.000 A 
ATOM     23  C   UNL     1       0.591  12.265  20.195  0.00  0.00    +0.000 A 
ATOM     24  C   UNL     1       0.996  13.450  19.577  0.00  0.00    +0.000 A 
ATOM     25  C   UNL     1       1.827  13.400  18.465  0.00  0.00    +0.000 A 
ATOM     26  C   UNL     1       2.187  12.164  17.925  0.00  0.00    +0.000 A 
ATOM     27  C   UNL     1       1.768  10.957  18.522  0.00  0.00    +0.000 A 
ATOM     28  C   UNL     1       2.130   9.694  18.007  0.00  0.00    +0.000 A 
ENDBRANCH  18  19
ENDBRANCH  17  18
ENDBRANCH  16  17
ENDBRANCH   5  10
BRANCH   1  29
ATOM     29  C   UNL     1       6.583   5.714  15.084  0.00  0.00    +0.000 C 
ATOM     30  C   UNL     1       5.135   6.190  15.198  0.00  0.00    +0.000 C 
BRANCH  29  31
ATOM     31  C   UNL     1       6.683   4.179  15.112  0.00  0.00    +0.000 C 
BRANCH  31  32
ATOM     32  C   UNL     1       5.852   3.480  14.027  0.00  0.00    +0.000 C 
BRANCH  32  33
ATOM     33  C   UNL     1       6.225   3.860  12.580  0.00  0.00    +0.000 C 
BRANCH  33  34
ATOM     34  N   UNL     1       5.476   3.110  11.559  0.00  0.00    +0.000 NA
BRANCH  34  36
ATOM     35  C   UNL     1       7.046   1.270  10.837  0.00  0.00    +0.000 C 
ATOM     36  C   UNL     1       5.811   1.674  11.624  0.00  0.00    +0.000 C 
ENDBRANCH  34  36
BRANCH  34  37
ATOM     37  C   UNL     1       4.032   3.385  11.593  0.00  0.00    +0.000 C 
ATOM     38  C   UNL     1       3.396   3.802  10.272  0.00  0.00    +0.000 C 
ENDBRANCH  34  37
ENDBRANCH  33  34
ENDBRANCH  32  33
ENDBRANCH  31  32
ENDBRANCH  29  31
ENDBRANCH   1  29
TORSDOF 11
ENDMDL
MODEL 5
REMARK VINA RESULT:      -7.8      1.052      1.358
REMARK  Name = 
REMARK  14 active torsions:
REMARK  status: ('A' for Active; 'I' for Inactive)
REMARK    1  A    between atoms: C_1  and  C_2
REMARK    2  A    between atoms: C_2  and  N_3
REMARK    3  A    between atoms: N_3  and  C_4
REMARK    4  A    between atoms: N_3  and  C_6
REMARK    5  A    between atoms: C_4  and  C_5
REMARK    6  A    between atoms: C_6  and  C_7
REMARK    7  A    between atoms: C_7  and  C_8
REMARK    8  A    between atoms: C_8  and  C_9
REMARK    9  A    between atoms: C_9  and  C_10
REMARK   10  A    between atoms: C_9  and  N_11
REMARK   11  A    between atoms: C_15  and  C_17
REMARK   12  A    between atoms: C_23  and  C_24
REMARK   13  A    between atoms: C_24  and  C_25
REMARK   14  A    between atoms: C_25  and  C_26
REMARK                            x       y       z     vdW  Elec       q    Type
REMARK                         _______ _______ _______ _____ _____    ______ ____
ROOT
ATOM      1  N   UNL     1       7.755   6.795  16.807  0.00  0.00    +0.000 NA
ATOM      2  C   UNL     1       7.016   5.751  16.682  0.00  0.00    +0.000 C 
ATOM      3  N   UNL     1       7.283   4.899  15.665  0.00  0.00    +0.000 N 
ATOM      4  N   UNL     1       5.975   5.458  17.526  0.00  0.00    +0.000 N 
ATOM      5  C   UNL     1       5.084   4.409  17.395  0.00  0.00    +0.000 C 
ATOM      6  O   UNL     1       4.894   3.781  16.356  0.00  0.00    +0.000 OA
ATOM      7  H   UNL     1       7.810   5.320  14.910  0.00  0.00    +0.000 HD
ATOM      8  H   UNL     1       6.502   4.310  15.373  0.00  0.00    +0.000 HD
ATOM      9  H   UNL     1       5.924   6.004  18.372  0.00  0.00    +0.000 HD
ENDROOT
BRANCH   5  10
ATOM     10  C   UNL     1       4.227   4.121  18.577  0.00  0.00    +0.000 A 
ATOM     11  C   UNL     1       4.201   2.776  18.996  0.00  0.00    +0.000 A 
ATOM     12  C   UNL     1       3.416   2.384  20.078  0.00  0.00    +0.000 A 
ATOM     13  C   UNL     1       2.644   3.335  20.732  0.00  0.00    +0.000 A 
ATOM     14  C   UNL     1       2.686   4.676  20.325  0.00  0.00    +0.000 A 
ATOM     15  F   UNL     1       1.887   5.537  20.970  0.00  0.00    +0.000 F 
ATOM     16  C   UNL     1       3.507   5.119  19.279  0.00  0.00    +0.000 A 
BRANCH  16  17
ATOM     17  C   UNL     1       3.564   6.582  18.870  0.00  0.00    +0.000 C 
BRANCH  17  18
ATOM     18  C   UNL     1       2.368   7.220  18.131  0.00  0.00    +0.000 C 
BRANCH  18  19
ATOM     19  C   UNL     1       1.786   8.400  18.900  0.00  0.00    +0.000 A 
ATOM     20  C   UNL     1       1.423   9.585  18.256  0.00  0.00    +0.000 A 
ATOM     21  C   UNL     1       0.780  10.614  18.958  0.00  0.00    +0.000 A 
ATOM     22  C   UNL     1       0.428  10.463  20.309  0.00  0.00    +0.000 A 
ATOM     23  C   UNL     1      -0.304  11.445  21.006  0.00  0.00    +0.000 A 
ATOM     24  C   UNL     1      -0.753  11.222  22.309  0.00  0.00    +0.000 A 
ATOM     25  C   UNL     1      -0.491  10.007  22.931  0.00  0.00    +0.000 A 
ATOM     26  C   UNL     1       0.285   9.048  22.278  0.00  0.00    +0.000 A 
ATOM     27  C   UNL     1       0.766   9.266  20.970  0.00  0.00    +0.000 A 
ATOM     28  C   UNL     1       1.539   8.308  20.280  0.00  0.00    +0.000 A 
ENDBRANCH  18  19
ENDBRANCH  17  18
ENDBRANCH  16  17
ENDBRANCH   5  10
BRANCH   1  29
ATOM     29  C   UNL     1       7.527   7.813  17.834  0.00  0.00    +0.000 C 
ATOM     30  C   UNL     1       6.274   8.594  17.440  0.00  0.00    +0.000 C 
BRANCH  29  31
ATOM     31  C   UNL     1       8.766   8.720  17.910  0.00  0.00    +0.000 C 
BRANCH  31  32
ATOM     32  C   UNL     1       8.686   9.795  19.004  0.00  0.00    +0.000 C 
BRANCH  32  33
ATOM     33  C   UNL     1       9.866  10.789  19.023  0.00  0.00    +0.000 C 
BRANCH  33  34
ATOM     34  N   UNL     1       9.870  11.723  17.886  0.00  0.00    +0.000 NA
BRANCH  34  36
ATOM     35  C   UNL     1       7.702  12.799  17.169  0.00  0.00    +0.000 C 
ATOM     36  C   UNL     1       8.898  12.811  18.107  0.00  0.00    +0.000 C 
ENDBRANCH  34  36
BRANCH  34  37
ATOM     37  C   UNL     1      11.219  12.194  17.539  0.00  0.00    +0.000 C 
ATOM     38  C   UNL     1      11.294  13.504  16.763  0.00  0.00    +0.000 C 
ENDBRANCH  34  37
ENDBRANCH  33  34
ENDBRANCH  32  33
ENDBRANCH  31  32
ENDBRANCH  29  31
ENDBRANCH   1  29
TORSDOF 11
ENDMDL
MODEL 6
REMARK VINA RESULT:      -7.7      5.387     10.275
REMARK  Name = 
REMARK  14 active torsions:
REMARK  status: ('A' for Active; 'I' for Inactive)
REMARK    1  A    between atoms: C_1  and  C_2
REMARK    2  A    between atoms: C_2  and  N_3
REMARK    3  A    between atoms: N_3  and  C_4
REMARK    4  A    between atoms: N_3  and  C_6
REMARK    5  A    between atoms: C_4  and  C_5
REMARK    6  A    between atoms: C_6  and  C_7
REMARK    7  A    between atoms: C_7  and  C_8
REMARK    8  A    between atoms: C_8  and  C_9
REMARK    9  A    between atoms: C_9  and  C_10
REMARK   10  A    between atoms: C_9  and  N_11
REMARK   11  A    between atoms: C_15  and  C_17
REMARK   12  A    between atoms: C_23  and  C_24
REMARK   13  A    between atoms: C_24  and  C_25
REMARK   14  A    between atoms: C_25  and  C_26
REMARK                            x       y       z     vdW  Elec       q    Type
REMARK                         _______ _______ _______ _____ _____    ______ ____
ROOT
ATOM      1  N   UNL     1      -2.290  11.972  16.959  0.00  0.00    +0.000 NA
ATOM      2  C   UNL     1      -1.260  12.179  17.699  0.00  0.00    +0.000 C 
ATOM      3  N   UNL     1      -0.706  13.415  17.691  0.00  0.00    +0.000 N 
ATOM      4  N   UNL     1      -0.697  11.214  18.495  0.00  0.00    +0.000 N 
ATOM      5  C   UNL     1       0.461  11.340  19.240  0.00  0.00    +0.000 C 
ATOM      6  O   UNL     1       1.317  12.203  19.059  0.00  0.00    +0.000 OA
ATOM      7  H   UNL     1      -0.938  13.957  16.868  0.00  0.00    +0.000 HD
ATOM      8  H   UNL     1       0.272  13.455  17.977  0.00  0.00    +0.000 HD
ATOM      9  H   UNL     1      -1.239  10.373  18.622  0.00  0.00    +0.000 HD
ENDROOT
BRANCH   5  10
ATOM     10  C   UNL     1       0.717  10.271  20.244  0.00  0.00    +0.000 A 
ATOM     11  C   UNL     1       0.453  10.621  21.584  0.00  0.00    +0.000 A 
ATOM     12  C   UNL     1       0.677   9.709  22.612  0.00  0.00    +0.000 A 
ATOM     13  C   UNL     1       1.180   8.451  22.304  0.00  0.00    +0.000 A 
ATOM     14  C   UNL     1       1.425   8.100  20.969  0.00  0.00    +0.000 A 
ATOM     15  F   UNL     1       1.948   6.889  20.741  0.00  0.00    +0.000 F 
ATOM     16  C   UNL     1       1.157   8.969  19.902  0.00  0.00    +0.000 A 
BRANCH  16  17
ATOM     17  C   UNL     1       1.399   8.562  18.458  0.00  0.00    +0.000 C 
BRANCH  17  18
ATOM     18  C   UNL     1       2.840   8.320  17.959  0.00  0.00    +0.000 C 
BRANCH  18  19
ATOM     19  C   UNL     1       3.139   6.837  17.775  0.00  0.00    +0.000 A 
ATOM     20  C   UNL     1       4.439   6.376  17.548  0.00  0.00    +0.000 A 
ATOM     21  C   UNL     1       4.712   5.002  17.501  0.00  0.00    +0.000 A 
ATOM     22  C   UNL     1       3.706   4.051  17.738  0.00  0.00    +0.000 A 
ATOM     23  C   UNL     1       3.980   2.670  17.790  0.00  0.00    +0.000 A 
ATOM     24  C   UNL     1       2.991   1.751  18.150  0.00  0.00    +0.000 A 
ATOM     25  C   UNL     1       1.719   2.200  18.480  0.00  0.00    +0.000 A 
ATOM     26  C   UNL     1       1.415   3.558  18.373  0.00  0.00    +0.000 A 
ATOM     27  C   UNL     1       2.394   4.497  17.988  0.00  0.00    +0.000 A 
ATOM     28  C   UNL     1       2.119   5.878  17.887  0.00  0.00    +0.000 A 
ENDBRANCH  18  19
ENDBRANCH  17  18
ENDBRANCH  16  17
ENDBRANCH   5  10
BRANCH   1  29
ATOM     29  C   UNL     1      -2.939  10.665  16.846  0.00  0.00    +0.000 C 
ATOM     30  C   UNL     1      -3.412  10.508  15.401  0.00  0.00    +0.000 C 
BRANCH  29  31
ATOM     31  C   UNL     1      -4.111  10.611  17.840  0.00  0.00    +0.000 C 
BRANCH  31  32
ATOM     32  C   UNL     1      -5.425  11.180  17.286  0.00  0.00    +0.000 C 
BRANCH  32  33
ATOM     33  C   UNL     1      -5.905  12.480  17.963  0.00  0.00    +0.000 C 
BRANCH  33  34
ATOM     34  N   UNL     1      -7.046  12.287  18.871  0.00  0.00    +0.000 NA
BRANCH  34  36
ATOM     35  C   UNL     1      -7.615  10.603  20.663  0.00  0.00    +0.000 C 
ATOM     36  C   UNL     1      -7.188  10.862  19.228  0.00  0.00    +0.000 C 
ENDBRANCH  34  36
BRANCH  34  37
ATOM     37  C   UNL     1      -7.012  13.189  20.032  0.00  0.00    +0.000 C 
ATOM     38  C   UNL     1      -6.686  14.649  19.739  0.00  0.00    +0.000 C 
ENDBRANCH  34  37
ENDBRANCH  33  34
ENDBRANCH  32  33
ENDBRANCH  31  32
ENDBRANCH  29  31
ENDBRANCH   1  29
TORSDOF 11
ENDMDL
MODEL 7
REMARK VINA RESULT:      -7.7      3.226      5.785
REMARK  Name = 
REMARK  14 active torsions:
REMARK  status: ('A' for Active; 'I' for Inactive)
REMARK    1  A    between atoms: C_1  and  C_2
REMARK    2  A    between atoms: C_2  and  N_3
REMARK    3  A    between atoms: N_3  and  C_4
REMARK    4  A    between atoms: N_3  and  C_6
REMARK    5  A    between atoms: C_4  and  C_5
REMARK    6  A    between atoms: C_6  and  C_7
REMARK    7  A    between atoms: C_7  and  C_8
REMARK    8  A    between atoms: C_8  and  C_9
REMARK    9  A    between atoms: C_9  and  C_10
REMARK   10  A    between atoms: C_9  and  N_11
REMARK   11  A    between atoms: C_15  and  C_17
REMARK   12  A    between atoms: C_23  and  C_24
REMARK   13  A    between atoms: C_24  and  C_25
REMARK   14  A    between atoms: C_25  and  C_26
REMARK                            x       y       z     vdW  Elec       q    Type
REMARK                         _______ _______ _______ _____ _____    ______ ____
ROOT
ATOM      1  N   UNL     1       7.602   5.824  15.882  0.00  0.00    +0.000 NA
ATOM      2  C   UNL     1       7.123   5.711  17.069  0.00  0.00    +0.000 C 
ATOM      3  N   UNL     1       7.637   6.501  18.042  0.00  0.00    +0.000 N 
ATOM      4  N   UNL     1       6.120   4.834  17.398  0.00  0.00    +0.000 N 
ATOM      5  C   UNL     1       5.626   4.595  18.666  0.00  0.00    +0.000 C 
ATOM      6  O   UNL     1       6.208   4.884  19.709  0.00  0.00    +0.000 OA
ATOM      7  H   UNL     1       8.560   6.858  17.829  0.00  0.00    +0.000 HD
ATOM      8  H   UNL     1       7.514   6.154  18.994  0.00  0.00    +0.000 HD
ATOM      9  H   UNL     1       5.637   4.405  16.624  0.00  0.00    +0.000 HD
ENDROOT
BRANCH   5  10
ATOM     10  C   UNL     1       4.353   3.826  18.741  0.00  0.00    +0.000 A 
ATOM     11  C   UNL     1       4.491   2.424  18.753  0.00  0.00    +0.000 A 
ATOM     12  C   UNL     1       3.368   1.601  18.799  0.00  0.00    +0.000 A 
ATOM     13  C   UNL     1       2.105   2.180  18.816  0.00  0.00    +0.000 A 
ATOM     14  C   UNL     1       1.972   3.575  18.822  0.00  0.00    +0.000 A 
ATOM     15  F   UNL     1       0.728   4.071  18.797  0.00  0.00    +0.000 F 
ATOM     16  C   UNL     1       3.078   4.436  18.837  0.00  0.00    +0.000 A 
BRANCH  16  17
ATOM     17  C   UNL     1       2.916   5.947  18.874  0.00  0.00    +0.000 C 
BRANCH  17  18
ATOM     18  C   UNL     1       2.247   6.618  20.093  0.00  0.00    +0.000 C 
BRANCH  18  19
ATOM     19  C   UNL     1       1.760   8.027  19.772  0.00  0.00    +0.000 A 
ATOM     20  C   UNL     1       1.911   8.580  18.497  0.00  0.00    +0.000 A 
ATOM     21  C   UNL     1       1.351   9.827  18.188  0.00  0.00    +0.000 A 
ATOM     22  C   UNL     1       0.576  10.529  19.124  0.00  0.00    +0.000 A 
ATOM     23  C   UNL     1      -0.074  11.737  18.802  0.00  0.00    +0.000 A 
ATOM     24  C   UNL     1      -0.942  12.354  19.707  0.00  0.00    +0.000 A 
ATOM     25  C   UNL     1      -1.186  11.765  20.941  0.00  0.00    +0.000 A 
ATOM     26  C   UNL     1      -0.501  10.602  21.300  0.00  0.00    +0.000 A 
ATOM     27  C   UNL     1       0.395   9.978  20.408  0.00  0.00    +0.000 A 
ATOM     28  C   UNL     1       1.088   8.793  20.738  0.00  0.00    +0.000 A 
ENDBRANCH  18  19
ENDBRANCH  17  18
ENDBRANCH  16  17
ENDBRANCH   5  10
BRANCH   1  29
ATOM     29  C   UNL     1       7.164   4.987  14.764  0.00  0.00    +0.000 C 
ATOM     30  C   UNL     1       7.953   5.416  13.528  0.00  0.00    +0.000 C 
BRANCH  29  31
ATOM     31  C   UNL     1       5.650   5.178  14.572  0.00  0.00    +0.000 C 
BRANCH  31  32
ATOM     32  C   UNL     1       4.971   4.037  13.801  0.00  0.00    +0.000 C 
BRANCH  32  33
ATOM     33  C   UNL     1       5.892   3.275  12.827  0.00  0.00    +0.000 C 
BRANCH  33  34
ATOM     34  N   UNL     1       5.166   2.535  11.782  0.00  0.00    +0.000 NA
BRANCH  34  36
ATOM     35  C   UNL     1       3.077   3.108  10.485  0.00  0.00    +0.000 C 
ATOM     36  C   UNL     1       4.507   3.470  10.850  0.00  0.00    +0.000 C 
ENDBRANCH  34  36
BRANCH  34  37
ATOM     37  C   UNL     1       5.997   1.521  11.117  0.00  0.00    +0.000 C 
ATOM     38  C   UNL     1       7.490   1.819  11.043  0.00  0.00    +0.000 C 
ENDBRANCH  34  37
ENDBRANCH  33  34
ENDBRANCH  32  33
ENDBRANCH  31  32
ENDBRANCH  29  31
ENDBRANCH   1  29
TORSDOF 11
ENDMDL
MODEL 8
REMARK VINA RESULT:      -7.7      0.988      1.135
REMARK  Name = 
REMARK  14 active torsions:
REMARK  status: ('A' for Active; 'I' for Inactive)
REMARK    1  A    between atoms: C_1  and  C_2
REMARK    2  A    between atoms: C_2  and  N_3
REMARK    3  A    between atoms: N_3  and  C_4
REMARK    4  A    between atoms: N_3  and  C_6
REMARK    5  A    between atoms: C_4  and  C_5
REMARK    6  A    between atoms: C_6  and  C_7
REMARK    7  A    between atoms: C_7  and  C_8
REMARK    8  A    between atoms: C_8  and  C_9
REMARK    9  A    between atoms: C_9  and  C_10
REMARK   10  A    between atoms: C_9  and  N_11
REMARK   11  A    between atoms: C_15  and  C_17
REMARK   12  A    between atoms: C_23  and  C_24
REMARK   13  A    between atoms: C_24  and  C_25
REMARK   14  A    between atoms: C_25  and  C_26
REMARK                            x       y       z     vdW  Elec       q    Type
REMARK                         _______ _______ _______ _____ _____    ______ ____
ROOT
ATOM      1  N   UNL     1       7.766   6.394  16.547  0.00  0.00    +0.000 NA
ATOM      2  C   UNL     1       6.748   5.644  16.318  0.00  0.00    +0.000 C 
ATOM      3  N   UNL     1       6.596   5.137  15.072  0.00  0.00    +0.000 N 
ATOM      4  N   UNL     1       5.811   5.331  17.271  0.00  0.00    +0.000 N 
ATOM      5  C   UNL     1       4.648   4.612  17.070  0.00  0.00    +0.000 C 
ATOM      6  O   UNL     1       4.125   4.421  15.975  0.00  0.00    +0.000 OA
ATOM      7  H   UNL     1       7.098   5.654  14.360  0.00  0.00    +0.000 HD
ATOM      8  H   UNL     1       5.643   4.868  14.824  0.00  0.00    +0.000 HD
ATOM      9  H   UNL     1       6.052   5.565  18.222  0.00  0.00    +0.000 HD
ENDROOT
BRANCH   5  10
ATOM     10  C   UNL     1       3.940   4.152  18.296  0.00  0.00    +0.000 A 
ATOM     11  C   UNL     1       4.558   3.094  18.994  0.00  0.00    +0.000 A 
ATOM     12  C   UNL     1       3.975   2.566  20.143  0.00  0.00    +0.000 A 
ATOM     13  C   UNL     1       2.764   3.083  20.587  0.00  0.00    +0.000 A 
ATOM     14  C   UNL     1       2.161   4.147  19.901  0.00  0.00    +0.000 A 
ATOM     15  F   UNL     1       0.975   4.574  20.356  0.00  0.00    +0.000 F 
ATOM     16  C   UNL     1       2.746   4.745  18.776  0.00  0.00    +0.000 A 
BRANCH  16  17
ATOM     17  C   UNL     1       2.093   5.917  18.062  0.00  0.00    +0.000 C 
BRANCH  17  18
ATOM     18  C   UNL     1       2.816   7.280  18.005  0.00  0.00    +0.000 C 
BRANCH  18  19
ATOM     19  C   UNL     1       2.086   8.347  18.813  0.00  0.00    +0.000 A 
ATOM     20  C   UNL     1       1.577   9.500  18.209  0.00  0.00    +0.000 A 
ATOM     21  C   UNL     1       0.806  10.411  18.944  0.00  0.00    +0.000 A 
ATOM     22  C   UNL     1       0.473  10.167  20.286  0.00  0.00    +0.000 A 
ATOM     23  C   UNL     1      -0.379  11.021  21.013  0.00  0.00    +0.000 A 
ATOM     24  C   UNL     1      -0.798  10.695  22.305  0.00  0.00    +0.000 A 
ATOM     25  C   UNL     1      -0.385   9.501  22.884  0.00  0.00    +0.000 A 
ATOM     26  C   UNL     1       0.509   8.674  22.201  0.00  0.00    +0.000 A 
ATOM     27  C   UNL     1       0.960   8.999  20.906  0.00  0.00    +0.000 A 
ATOM     28  C   UNL     1       1.851   8.174  20.187  0.00  0.00    +0.000 A 
ENDBRANCH  18  19
ENDBRANCH  17  18
ENDBRANCH  16  17
ENDBRANCH   5  10
BRANCH   1  29
ATOM     29  C   UNL     1       8.003   7.040  17.838  0.00  0.00    +0.000 C 
ATOM     30  C   UNL     1       7.146   6.321  18.880  0.00  0.00    +0.000 C 
BRANCH  29  31
ATOM     31  C   UNL     1       7.630   8.527  17.718  0.00  0.00    +0.000 C 
BRANCH  31  32
ATOM     32  C   UNL     1       8.514   9.462  18.558  0.00  0.00    +0.000 C 
BRANCH  32  33
ATOM     33  C   UNL     1       9.303  10.509  17.745  0.00  0.00    +0.000 C 
BRANCH  33  34
ATOM     34  N   UNL     1       9.385  11.825  18.398  0.00  0.00    +0.000 NA
BRANCH  34  36
ATOM     35  C   UNL     1       8.681  14.227  18.069  0.00  0.00    +0.000 C 
ATOM     36  C   UNL     1       8.402  12.755  17.809  0.00  0.00    +0.000 C 
ENDBRANCH  34  36
BRANCH  34  37
ATOM     37  C   UNL     1       9.319  11.741  19.864  0.00  0.00    +0.000 C 
ATOM     38  C   UNL     1      10.640  11.900  20.607  0.00  0.00    +0.000 C 
ENDBRANCH  34  37
ENDBRANCH  33  34
ENDBRANCH  32  33
ENDBRANCH  31  32
ENDBRANCH  29  31
ENDBRANCH   1  29
TORSDOF 11
ENDMDL
MODEL 9
REMARK VINA RESULT:      -7.6      3.252      5.665
REMARK  Name = 
REMARK  14 active torsions:
REMARK  status: ('A' for Active; 'I' for Inactive)
REMARK    1  A    between atoms: C_1  and  C_2
REMARK    2  A    between atoms: C_2  and  N_3
REMARK    3  A    between atoms: N_3  and  C_4
REMARK    4  A    between atoms: N_3  and  C_6
REMARK    5  A    between atoms: C_4  and  C_5
REMARK    6  A    between atoms: C_6  and  C_7
REMARK    7  A    between atoms: C_7  and  C_8
REMARK    8  A    between atoms: C_8  and  C_9
REMARK    9  A    between atoms: C_9  and  C_10
REMARK   10  A    between atoms: C_9  and  N_11
REMARK   11  A    between atoms: C_15  and  C_17
REMARK   12  A    between atoms: C_23  and  C_24
REMARK   13  A    between atoms: C_24  and  C_25
REMARK   14  A    between atoms: C_25  and  C_26
REMARK                            x       y       z     vdW  Elec       q    Type
REMARK                         _______ _______ _______ _____ _____    ______ ____
ROOT
ATOM      1  N   UNL     1       6.781   6.191  16.466  0.00  0.00    +0.000 NA
ATOM      2  C   UNL     1       6.490   5.756  17.639  0.00  0.00    +0.000 C 
ATOM      3  N   UNL     1       7.304   6.099  18.666  0.00  0.00    +0.000 N 
ATOM      4  N   UNL     1       5.400   4.967  17.903  0.00  0.00    +0.000 N 
ATOM      5  C   UNL     1       5.082   4.389  19.118  0.00  0.00    +0.000 C 
ATOM      6  O   UNL     1       5.873   4.232  20.045  0.00  0.00    +0.000 OA
ATOM      7  H   UNL     1       8.232   6.377  18.372  0.00  0.00    +0.000 HD
ATOM      8  H   UNL     1       7.272   5.476  19.474  0.00  0.00    +0.000 HD
ATOM      9  H   UNL     1       4.720   4.889  17.163  0.00  0.00    +0.000 HD
ENDROOT
BRANCH   5  10
ATOM     10  C   UNL     1       3.711   3.821  19.238  0.00  0.00    +0.000 A 
ATOM     11  C   UNL     1       3.562   2.494  18.787  0.00  0.00    +0.000 A 
ATOM     12  C   UNL     1       2.319   1.866  18.829  0.00  0.00    +0.000 A 
ATOM     13  C   UNL     1       1.221   2.570  19.306  0.00  0.00    +0.000 A 
ATOM     14  C   UNL     1       1.376   3.883  19.770  0.00  0.00    +0.000 A 
ATOM     15  F   UNL     1       0.272   4.522  20.180  0.00  0.00    +0.000 F 
ATOM     16  C   UNL     1       2.620   4.529  19.800  0.00  0.00    +0.000 A 
BRANCH  16  17
ATOM     17  C   UNL     1       2.776   5.943  20.334  0.00  0.00    +0.000 C 
BRANCH  17  18
ATOM     18  C   UNL     1       2.512   7.149  19.407  0.00  0.00    +0.000 C 
BRANCH  18  19
ATOM     19  C   UNL     1       1.547   8.150  20.033  0.00  0.00    +0.000 A 
ATOM     20  C   UNL     1       1.081   7.996  21.341  0.00  0.00    +0.000 A 
ATOM     21  C   UNL     1       0.290   8.986  21.940  0.00  0.00    +0.000 A 
ATOM     22  C   UNL     1      -0.007  10.184  21.270  0.00  0.00    +0.000 A 
ATOM     23  C   UNL     1      -0.718  11.231  21.890  0.00  0.00    +0.000 A 
ATOM     24  C   UNL     1      -0.894  12.460  21.252  0.00  0.00    +0.000 A 
ATOM     25  C   UNL     1      -0.348  12.669  19.991  0.00  0.00    +0.000 A 
ATOM     26  C   UNL     1       0.304  11.621  19.338  0.00  0.00    +0.000 A 
ATOM     27  C   UNL     1       0.472  10.366  19.958  0.00  0.00    +0.000 A 
ATOM     28  C   UNL     1       1.141   9.295  19.328  0.00  0.00    +0.000 A 
ENDBRANCH  18  19
ENDBRANCH  17  18
ENDBRANCH  16  17
ENDBRANCH   5  10
BRANCH   1  29
ATOM     29  C   UNL     1       6.006   5.842  15.274  0.00  0.00    +0.000 C 
ATOM     30  C   UNL     1       4.827   6.810  15.189  0.00  0.00    +0.000 C 
BRANCH  29  31
ATOM     31  C   UNL     1       5.539   4.382  15.403  0.00  0.00    +0.000 C 
BRANCH  31  32
ATOM     32  C   UNL     1       6.090   3.453  14.311  0.00  0.00    +0.000 C 
BRANCH  32  33
ATOM     33  C   UNL     1       6.525   4.164  13.013  0.00  0.00    +0.000 C 
BRANCH  33  34
ATOM     34  N   UNL     1       6.101   3.470  11.787  0.00  0.00    +0.000 NA
BRANCH  34  36
ATOM     35  C   UNL     1       6.416   1.064  11.088  0.00  0.00    +0.000 C 
ATOM     36  C   UNL     1       7.055   2.396  11.446  0.00  0.00    +0.000 C 
ENDBRANCH  34  36
BRANCH  34  37
ATOM     37  C   UNL     1       4.700   3.026  11.837  0.00  0.00    +0.000 C 
ATOM     38  C   UNL     1       3.770   3.619  10.785  0.00  0.00    +0.000 C 
ENDBRANCH  34  37
ENDBRANCH  33  34
ENDBRANCH  32  33
ENDBRANCH  31  32
ENDBRANCH  29  31
ENDBRANCH   1  29
TORSDOF 11
ENDMDL
