MODEL 1
REMARK VINA RESULT:      -8.7      0.000      0.000
REMARK  Name = 
REMARK  4 active torsions:
REMARK  status: ('A' for Active; 'I' for Inactive)
REMARK    1  A    between atoms: C_3  and  C_4
REMARK    2  A    between atoms: C_7  and  C_8
REMARK    3  A    between atoms: C_10  and  C_11
REMARK    4  A    between atoms: C_18  and  N_19
REMARK                            x       y       z     vdW  Elec       q    Type
REMARK                         _______ _______ _______ _____ _____    ______ ____
ROOT
ATOM      1  C   UNL     1       4.987   4.994  18.382  0.00  0.00    +0.000 A 
ATOM      2  N   UNL     1       6.153   4.514  18.835  0.00  0.00    +0.000 NA
ATOM      3  O   UNL     1       6.922   4.372  17.681  0.00  0.00    +0.000 OA
ATOM      4  C   UNL     1       6.147   4.790  16.634  0.00  0.00    +0.000 A 
ATOM      5  N   UNL     1       4.960   5.212  17.023  0.00  0.00    +0.000 NA
ENDROOT
BRANCH   1   8
ATOM      6  C   UNL     1       2.175   4.455  20.754  0.00  0.00    +0.000 A 
ATOM      7  C   UNL     1       3.272   4.182  19.970  0.00  0.00    +0.000 A 
ATOM      8  C   UNL     1       3.809   5.216  19.210  0.00  0.00    +0.000 A 
ATOM      9  C   UNL     1       3.203   6.472  19.270  0.00  0.00    +0.000 A 
ATOM     10  C   UNL     1       2.089   6.673  20.085  0.00  0.00    +0.000 A 
ATOM     11  N   UNL     1       1.579   5.666  20.822  0.00  0.00    +0.000 NA
BRANCH  10  12
ATOM     12  N   UNL     1       1.441   7.904  20.040  0.00  0.00    +0.000 N 
ATOM     13  C   UNL     1       1.257   8.578  21.325  0.00  0.00    +0.000 C 
ATOM     14  C   UNL     1       0.051   9.508  21.179  0.00  0.00    +0.000 C 
ATOM     15  C   UNL     1       0.235  10.485  20.015  0.00  0.00    +0.000 C 
ATOM     16  C   UNL     1       0.636   9.769  18.722  0.00  0.00    +0.000 C 
ATOM     17  C   UNL     1       1.805   8.807  18.945  0.00  0.00    +0.000 C 
ENDBRANCH  10  12
ENDBRANCH   1   8
BRANCH   4  18
ATOM     18  C   UNL     1       6.567   4.745  15.206  0.00  0.00    +0.000 A 
ATOM     19  C   UNL     1       5.980   3.926  14.216  0.00  0.00    +0.000 A 
ATOM     20  C   UNL     1       6.702   4.194  13.084  0.00  0.00    +0.000 A 
ATOM     21  O   UNL     1       7.667   5.111  13.376  0.00  0.00    +0.000 OA
ATOM     22  N   UNL     1       7.575   5.472  14.712  0.00  0.00    +0.000 NA
BRANCH  20  23
ATOM     23  C   UNL     1       6.463   3.573  11.724  0.00  0.00    +0.000 C 
ATOM     24  C   UNL     1       7.128   2.246  11.432  0.00  0.00    +0.000 C 
ATOM     25  C   UNL     1       5.654   2.298  11.643  0.00  0.00    +0.000 C 
ENDBRANCH  20  23
ENDBRANCH   4  18
TORSDOF 4
ENDMDL
MODEL 2
REMARK VINA RESULT:      -8.4      0.659      1.218
REMARK  Name = 
REMARK  4 active torsions:
REMARK  status: ('A' for Active; 'I' for Inactive)
REMARK    1  A    between atoms: C_3  and  C_4
REMARK    2  A    between atoms: C_7  and  C_8
REMARK    3  A    between atoms: C_10  and  C_11
REMARK    4  A    between atoms: C_18  and  N_19
REMARK                            x       y       z     vdW  Elec       q    Type
REMARK                         _______ _______ _______ _____ _____    ______ ____
ROOT
ATOM      1  C   UNL     1       4.769   5.250  18.647  0.00  0.00    +0.000 A 
ATOM      2  N   UNL     1       5.786   4.533  19.147  0.00  0.00    +0.000 NA
ATOM      3  O   UNL     1       6.600   4.299  18.040  0.00  0.00    +0.000 OA
ATOM      4  C   UNL     1       6.000   4.906  16.971  0.00  0.00    +0.000 A 
ATOM      5  N   UNL     1       4.888   5.530  17.305  0.00  0.00    +0.000 NA
ENDROOT
BRANCH   1   8
ATOM      6  C   UNL     1       1.838   5.192  20.935  0.00  0.00    +0.000 A 
ATOM      7  C   UNL     1       2.927   4.746  20.220  0.00  0.00    +0.000 A 
ATOM      8  C   UNL     1       3.595   5.656  19.407  0.00  0.00    +0.000 A 
ATOM      9  C   UNL     1       3.123   6.969  19.348  0.00  0.00    +0.000 A 
ATOM     10  C   UNL     1       2.010   7.347  20.098  0.00  0.00    +0.000 A 
ATOM     11  N   UNL     1       1.372   6.459  20.887  0.00  0.00    +0.000 NA
BRANCH  10  12
ATOM     12  N   UNL     1       1.498   8.631  19.935  0.00  0.00    +0.000 N 
ATOM     13  C   UNL     1       1.332   9.082  18.554  0.00  0.00    +0.000 C 
ATOM     14  C   UNL     1       1.386  10.612  18.568  0.00  0.00    +0.000 C 
ATOM     15  C   UNL     1       0.339  11.200  19.518  0.00  0.00    +0.000 C 
ATOM     16  C   UNL     1       0.396  10.556  20.906  0.00  0.00    +0.000 C 
ATOM     17  C   UNL     1       0.403   9.028  20.823  0.00  0.00    +0.000 C 
ENDBRANCH  10  12
ENDBRANCH   1   8
BRANCH   4  18
ATOM     18  C   UNL     1       6.512   4.846  15.574  0.00  0.00    +0.000 A 
ATOM     19  C   UNL     1       5.909   4.121  14.522  0.00  0.00    +0.000 A 
ATOM     20  C   UNL     1       6.735   4.332  13.450  0.00  0.00    +0.000 A 
ATOM     21  O   UNL     1       7.772   5.128  13.834  0.00  0.00    +0.000 OA
ATOM     22  N   UNL     1       7.627   5.466  15.171  0.00  0.00    +0.000 NA
BRANCH  20  23
ATOM     23  C   UNL     1       6.525   3.773  12.059  0.00  0.00    +0.000 C 
ATOM     24  C   UNL     1       6.263   2.288  11.931  0.00  0.00    +0.000 C 
ATOM     25  C   UNL     1       5.154   3.253  11.688  0.00  0.00    +0.000 C 
ENDBRANCH  20  23
ENDBRANCH   4  18
TORSDOF 4
ENDMDL
MODEL 3
REMARK VINA RESULT:      -8.1      2.667      4.539
REMARK  Name = 
REMARK  4 active torsions:
REMARK  status: ('A' for Active; 'I' for Inactive)
REMARK    1  A    between atoms: C_3  and  C_4
REMARK    2  A    between atoms: C_7  and  C_8
REMARK    3  A    between atoms: C_10  and  C_11
REMARK    4  A    between atoms: C_18  and  N_19
REMARK                            x       y       z     vdW  Elec       q    Type
REMARK                         _______ _______ _______ _____ _____    ______ ____
ROOT
ATOM      1  C   UNL     1       6.513   4.883  15.623  0.00  0.00    +0.000 A 
ATOM      2  N   UNL     1       7.542   5.357  14.907  0.00  0.00    +0.000 NA
ATOM      3  O   UNL     1       7.257   4.946  13.606  0.00  0.00    +0.000 OA
ATOM      4  C   UNL     1       6.071   4.264  13.656  0.00  0.00    +0.000 A 
ATOM      5  N   UNL     1       5.562   4.229  14.872  0.00  0.00    +0.000 NA
ENDROOT
BRANCH   1   8
ATOM      6  C   UNL     1       7.342   5.426  19.207  0.00  0.00    +0.000 A 
ATOM      7  C   UNL     1       7.507   5.333  17.843  0.00  0.00    +0.000 A 
ATOM      8  C   UNL     1       6.406   4.971  17.073  0.00  0.00    +0.000 A 
ATOM      9  C   UNL     1       5.197   4.710  17.719  0.00  0.00    +0.000 A 
ATOM     10  C   UNL     1       5.106   4.820  19.106  0.00  0.00    +0.000 A 
ATOM     11  N   UNL     1       6.177   5.177  19.844  0.00  0.00    +0.000 NA
BRANCH  10  12
ATOM     12  N   UNL     1       3.919   4.448  19.730  0.00  0.00    +0.000 N 
ATOM     13  C   UNL     1       2.727   5.198  19.338  0.00  0.00    +0.000 C 
ATOM     14  C   UNL     1       1.736   5.113  20.501  0.00  0.00    +0.000 C 
ATOM     15  C   UNL     1       1.431   3.660  20.872  0.00  0.00    +0.000 C 
ATOM     16  C   UNL     1       2.707   2.838  21.073  0.00  0.00    +0.000 C 
ATOM     17  C   UNL     1       3.684   3.013  19.908  0.00  0.00    +0.000 C 
ENDBRANCH  10  12
ENDBRANCH   1   8
BRANCH   4  18
ATOM     18  C   UNL     1       5.434   3.599  12.487  0.00  0.00    +0.000 A 
ATOM     19  C   UNL     1       4.380   4.145  11.720  0.00  0.00    +0.000 A 
ATOM     20  C   UNL     1       4.104   3.180  10.789  0.00  0.00    +0.000 A 
ATOM     21  O   UNL     1       4.935   2.118  10.986  0.00  0.00    +0.000 OA
ATOM     22  N   UNL     1       5.785   2.385  12.049  0.00  0.00    +0.000 NA
BRANCH  20  23
ATOM     23  C   UNL     1       3.048   3.280   9.709  0.00  0.00    +0.000 C 
ATOM     24  C   UNL     1       2.200   4.533   9.671  0.00  0.00    +0.000 C 
ATOM     25  C   UNL     1       3.227   4.309   8.615  0.00  0.00    +0.000 C 
ENDBRANCH  20  23
ENDBRANCH   4  18
TORSDOF 4
ENDMDL
MODEL 4
REMARK VINA RESULT:      -8.0      3.692      9.911
REMARK  Name = 
REMARK  4 active torsions:
REMARK  status: ('A' for Active; 'I' for Inactive)
REMARK    1  A    between atoms: C_3  and  C_4
REMARK    2  A    between atoms: C_7  and  C_8
REMARK    3  A    between atoms: C_10  and  C_11
REMARK    4  A    between atoms: C_18  and  N_19
REMARK                            x       y       z     vdW  Elec       q    Type
REMARK                         _______ _______ _______ _____ _____    ______ ____
ROOT
ATOM      1  C   UNL     1       1.826   7.892  19.815  0.00  0.00    +0.000 A 
ATOM      2  N   UNL     1       1.713   8.740  18.782  0.00  0.00    +0.000 NA
ATOM      3  O   UNL     1       1.013   9.820  19.317  0.00  0.00    +0.000 OA
ATOM      4  C   UNL     1       0.775   9.528  20.632  0.00  0.00    +0.000 A 
ATOM      5  N   UNL     1       1.286   8.365  20.989  0.00  0.00    +0.000 NA
ENDROOT
BRANCH   1   8
ATOM      6  C   UNL     1       2.490   4.280  20.391  0.00  0.00    +0.000 A 
ATOM      7  C   UNL     1       1.928   5.528  20.535  0.00  0.00    +0.000 A 
ATOM      8  C   UNL     1       2.401   6.557  19.727  0.00  0.00    +0.000 A 
ATOM      9  C   UNL     1       3.427   6.277  18.823  0.00  0.00    +0.000 A 
ATOM     10  C   UNL     1       3.951   4.988  18.737  0.00  0.00    +0.000 A 
ATOM     11  N   UNL     1       3.483   3.996  19.519  0.00  0.00    +0.000 NA
BRANCH  10  12
ATOM     12  N   UNL     1       5.046   4.766  17.906  0.00  0.00    +0.000 N 
ATOM     13  C   UNL     1       4.773   4.784  16.469  0.00  0.00    +0.000 C 
ATOM     14  C   UNL     1       5.855   3.939  15.793  0.00  0.00    +0.000 C 
ATOM     15  C   UNL     1       7.257   4.443  16.139  0.00  0.00    +0.000 C 
ATOM     16  C   UNL     1       7.449   4.618  17.648  0.00  0.00    +0.000 C 
ATOM     17  C   UNL     1       6.305   5.417  18.276  0.00  0.00    +0.000 C 
ENDBRANCH  10  12
ENDBRANCH   1   8
BRANCH   4  18
ATOM     18  C   UNL     1      -0.004  10.394  21.559  0.00  0.00    +0.000 A 
ATOM     19  C   UNL     1      -0.937  11.376  21.156  0.00  0.00    +0.000 A 
ATOM     20  C   UNL     1      -1.370  11.931  22.331  0.00  0.00    +0.000 A 
ATOM     21  O   UNL     1      -0.734  11.326  23.373  0.00  0.00    +0.000 OA
ATOM     22  N   UNL     1       0.120  10.345  22.890  0.00  0.00    +0.000 NA
BRANCH  20  23
ATOM     23  C   UNL     1      -2.397  13.037  22.451  0.00  0.00    +0.000 C 
ATOM     24  C   UNL     1      -3.784  12.659  22.922  0.00  0.00    +0.000 C 
ATOM     25  C   UNL     1      -2.884  13.426  23.829  0.00  0.00    +0.000 C 
ENDBRANCH  20  23
ENDBRANCH   4  18
TORSDOF 4
ENDMDL
MODEL 5
REMARK VINA RESULT:      -8.0      3.716      9.926
REMARK  Name = 
REMARK  4 active torsions:
REMARK  status: ('A' for Active; 'I' for Inactive)
REMARK    1  A    between atoms: C_3  and  C_4
REMARK    2  A    between atoms: C_7  and  C_8
REMARK    3  A    between atoms: C_10  and  C_11
REMARK    4  A    between atoms: C_18  and  N_19
REMARK                            x       y       z     vdW  Elec       q    Type
REMARK                         _______ _______ _______ _____ _____    ______ ____
ROOT
ATOM      1  C   UNL     1       1.787   7.947  19.845  0.00  0.00    +0.000 A 
ATOM      2  N   UNL     1       1.711   8.850  18.858  0.00  0.00    +0.000 NA
ATOM      3  O   UNL     1       0.995   9.902  19.426  0.00  0.00    +0.000 OA
ATOM      4  C   UNL     1       0.711   9.538  20.714  0.00  0.00    +0.000 A 
ATOM      5  N   UNL     1       1.207   8.357  21.025  0.00  0.00    +0.000 NA
ENDROOT
BRANCH   1   8
ATOM      6  C   UNL     1       2.514   4.334  20.338  0.00  0.00    +0.000 A 
ATOM      7  C   UNL     1       1.955   5.577  20.534  0.00  0.00    +0.000 A 
ATOM      8  C   UNL     1       2.363   6.617  19.705  0.00  0.00    +0.000 A 
ATOM      9  C   UNL     1       3.325   6.353  18.728  0.00  0.00    +0.000 A 
ATOM     10  C   UNL     1       3.851   5.068  18.593  0.00  0.00    +0.000 A 
ATOM     11  N   UNL     1       3.445   4.065  19.397  0.00  0.00    +0.000 NA
BRANCH  10  12
ATOM     12  N   UNL     1       4.886   4.862  17.685  0.00  0.00    +0.000 N 
ATOM     13  C   UNL     1       6.203   4.601  18.264  0.00  0.00    +0.000 C 
ATOM     14  C   UNL     1       7.245   5.023  17.226  0.00  0.00    +0.000 C 
ATOM     15  C   UNL     1       7.028   4.306  15.891  0.00  0.00    +0.000 C 
ATOM     16  C   UNL     1       5.580   4.417  15.408  0.00  0.00    +0.000 C 
ATOM     17  C   UNL     1       4.584   4.043  16.509  0.00  0.00    +0.000 C 
ENDBRANCH  10  12
ENDBRANCH   1   8
BRANCH   4  18
ATOM     18  C   UNL     1      -0.099  10.355  21.660  0.00  0.00    +0.000 A 
ATOM     19  C   UNL     1      -0.989  11.385  21.281  0.00  0.00    +0.000 A 
ATOM     20  C   UNL     1      -1.474  11.865  22.469  0.00  0.00    +0.000 A 
ATOM     21  O   UNL     1      -0.906  11.173  23.497  0.00  0.00    +0.000 OA
ATOM     22  N   UNL     1      -0.048  10.209  22.988  0.00  0.00    +0.000 NA
BRANCH  20  23
ATOM     23  C   UNL     1      -2.483  12.984  22.615  0.00  0.00    +0.000 C 
ATOM     24  C   UNL     1      -3.949  12.610  22.627  0.00  0.00    +0.000 C 
ATOM     25  C   UNL     1      -3.296  13.063  23.887  0.00  0.00    +0.000 C 
ENDBRANCH  20  23
ENDBRANCH   4  18
TORSDOF 4
ENDMDL
MODEL 6
REMARK VINA RESULT:      -8.0      5.284      7.193
REMARK  Name = 
REMARK  4 active torsions:
REMARK  status: ('A' for Active; 'I' for Inactive)
REMARK    1  A    between atoms: C_3  and  C_4
REMARK    2  A    between atoms: C_7  and  C_8
REMARK    3  A    between atoms: C_10  and  C_11
REMARK    4  A    between atoms: C_18  and  N_19
REMARK                            x       y       z     vdW  Elec       q    Type
REMARK                         _______ _______ _______ _____ _____    ______ ____
ROOT
ATOM      1  C   UNL     1       7.208   7.108  17.873  0.00  0.00    +0.000 A 
ATOM      2  N   UNL     1       8.148   6.832  18.788  0.00  0.00    +0.000 NA
ATOM      3  O   UNL     1       8.833   8.038  18.932  0.00  0.00    +0.000 OA
ATOM      4  C   UNL     1       8.233   8.937  18.093  0.00  0.00    +0.000 A 
ATOM      5  N   UNL     1       7.209   8.417  17.446  0.00  0.00    +0.000 NA
ENDROOT
BRANCH   1   8
ATOM      6  C   UNL     1       5.591   4.710  15.537  0.00  0.00    +0.000 A 
ATOM      7  C   UNL     1       6.470   5.657  16.010  0.00  0.00    +0.000 A 
ATOM      8  C   UNL     1       6.293   6.126  17.308  0.00  0.00    +0.000 A 
ATOM      9  C   UNL     1       5.229   5.623  18.059  0.00  0.00    +0.000 A 
ATOM     10  C   UNL     1       4.375   4.667  17.510  0.00  0.00    +0.000 A 
ATOM     11  N   UNL     1       4.558   4.214  16.253  0.00  0.00    +0.000 NA
BRANCH  10  12
ATOM     12  N   UNL     1       3.261   4.266  18.242  0.00  0.00    +0.000 N 
ATOM     13  C   UNL     1       2.855   2.871  18.077  0.00  0.00    +0.000 C 
ATOM     14  C   UNL     1       1.362   2.794  18.404  0.00  0.00    +0.000 C 
ATOM     15  C   UNL     1       1.065   3.340  19.803  0.00  0.00    +0.000 C 
ATOM     16  C   UNL     1       1.685   4.723  20.023  0.00  0.00    +0.000 C 
ATOM     17  C   UNL     1       3.161   4.753  19.620  0.00  0.00    +0.000 C 
ENDBRANCH  10  12
ENDBRANCH   1   8
BRANCH   4  18
ATOM     18  C   UNL     1       8.696  10.338  17.892  0.00  0.00    +0.000 A 
ATOM     19  C   UNL     1      10.014  10.794  18.118  0.00  0.00    +0.000 A 
ATOM     20  C   UNL     1       9.960  12.133  17.836  0.00  0.00    +0.000 A 
ATOM     21  O   UNL     1       8.690  12.463  17.471  0.00  0.00    +0.000 OA
ATOM     22  N   UNL     1       7.892  11.329  17.492  0.00  0.00    +0.000 NA
BRANCH  20  23
ATOM     23  C   UNL     1      11.129  13.093  17.915  0.00  0.00    +0.000 C 
ATOM     24  C   UNL     1      11.821  13.463  16.621  0.00  0.00    +0.000 C 
ATOM     25  C   UNL     1      10.974  14.472  17.316  0.00  0.00    +0.000 C 
ENDBRANCH  20  23
ENDBRANCH   4  18
TORSDOF 4
ENDMDL
MODEL 7
REMARK VINA RESULT:      -7.9      5.347      7.128
REMARK  Name = 
REMARK  4 active torsions:
REMARK  status: ('A' for Active; 'I' for Inactive)
REMARK    1  A    between atoms: C_3  and  C_4
REMARK    2  A    between atoms: C_7  and  C_8
REMARK    3  A    between atoms: C_10  and  C_11
REMARK    4  A    between atoms: C_18  and  N_19
REMARK                            x       y       z     vdW  Elec       q    Type
REMARK                         _______ _______ _______ _____ _____    ______ ____
ROOT
ATOM      1  C   UNL     1       7.217   7.245  17.879  0.00  0.00    +0.000 A 
ATOM      2  N   UNL     1       8.181   6.962  18.767  0.00  0.00    +0.000 NA
ATOM      3  O   UNL     1       8.873   8.165  18.897  0.00  0.00    +0.000 OA
ATOM      4  C   UNL     1       8.254   9.070  18.078  0.00  0.00    +0.000 A 
ATOM      5  N   UNL     1       7.211   8.555  17.457  0.00  0.00    +0.000 NA
ENDROOT
BRANCH   1   8
ATOM      6  C   UNL     1       5.520   4.873  15.572  0.00  0.00    +0.000 A 
ATOM      7  C   UNL     1       6.414   5.817  16.025  0.00  0.00    +0.000 A 
ATOM      8  C   UNL     1       6.284   6.268  17.335  0.00  0.00    +0.000 A 
ATOM      9  C   UNL     1       5.249   5.752  18.118  0.00  0.00    +0.000 A 
ATOM     10  C   UNL     1       4.378   4.801  17.588  0.00  0.00    +0.000 A 
ATOM     11  N   UNL     1       4.515   4.366  16.320  0.00  0.00    +0.000 NA
BRANCH  10  12
ATOM     12  N   UNL     1       3.292   4.389  18.356  0.00  0.00    +0.000 N 
ATOM     13  C   UNL     1       3.123   5.065  19.641  0.00  0.00    +0.000 C 
ATOM     14  C   UNL     1       2.351   4.111  20.555  0.00  0.00    +0.000 C 
ATOM     15  C   UNL     1       1.022   3.686  19.926  0.00  0.00    +0.000 C 
ATOM     16  C   UNL     1       1.201   3.175  18.494  0.00  0.00    +0.000 C 
ATOM     17  C   UNL     1       2.034   4.140  17.648  0.00  0.00    +0.000 C 
ENDBRANCH  10  12
ENDBRANCH   1   8
BRANCH   4  18
ATOM     18  C   UNL     1       8.716  10.470  17.871  0.00  0.00    +0.000 A 
ATOM     19  C   UNL     1      10.033  10.929  18.096  0.00  0.00    +0.000 A 
ATOM     20  C   UNL     1       9.978  12.266  17.807  0.00  0.00    +0.000 A 
ATOM     21  O   UNL     1       8.708  12.593  17.439  0.00  0.00    +0.000 OA
ATOM     22  N   UNL     1       7.911  11.458  17.464  0.00  0.00    +0.000 NA
BRANCH  20  23
ATOM     23  C   UNL     1      11.146  13.227  17.882  0.00  0.00    +0.000 C 
ATOM     24  C   UNL     1      12.057  13.319  16.678  0.00  0.00    +0.000 C 
ATOM     25  C   UNL     1      11.136  14.448  16.990  0.00  0.00    +0.000 C 
ENDBRANCH  20  23
ENDBRANCH   4  18
TORSDOF 4
ENDMDL
MODEL 8
REMARK VINA RESULT:      -7.7      2.849      4.553
REMARK  Name = 
REMARK  4 active torsions:
REMARK  status: ('A' for Active; 'I' for Inactive)
REMARK    1  A    between atoms: C_3  and  C_4
REMARK    2  A    between atoms: C_7  and  C_8
REMARK    3  A    between atoms: C_10  and  C_11
REMARK    4  A    between atoms: C_18  and  N_19
REMARK                            x       y       z     vdW  Elec       q    Type
REMARK                         _______ _______ _______ _____ _____    ______ ____
ROOT
ATOM      1  C   UNL     1       6.258   4.605  15.696  0.00  0.00    +0.000 A 
ATOM      2  N   UNL     1       7.458   4.774  15.123  0.00  0.00    +0.000 NA
ATOM      3  O   UNL     1       7.249   4.390  13.799  0.00  0.00    +0.000 OA
ATOM      4  C   UNL     1       5.933   4.031  13.693  0.00  0.00    +0.000 A 
ATOM      5  N   UNL     1       5.279   4.178  14.828  0.00  0.00    +0.000 NA
ENDROOT
BRANCH   1   8
ATOM      6  C   UNL     1       6.625   5.526  19.279  0.00  0.00    +0.000 A 
ATOM      7  C   UNL     1       6.943   5.360  17.950  0.00  0.00    +0.000 A 
ATOM      8  C   UNL     1       5.991   4.781  17.116  0.00  0.00    +0.000 A 
ATOM      9  C   UNL     1       4.770   4.389  17.669  0.00  0.00    +0.000 A 
ATOM     10  C   UNL     1       4.522   4.585  19.027  0.00  0.00    +0.000 A 
ATOM     11  N   UNL     1       5.449   5.151  19.826  0.00  0.00    +0.000 NA
BRANCH  10  12
ATOM     12  N   UNL     1       3.342   4.084  19.570  0.00  0.00    +0.000 N 
ATOM     13  C   UNL     1       3.336   2.654  19.878  0.00  0.00    +0.000 C 
ATOM     14  C   UNL     1       1.878   2.191  19.844  0.00  0.00    +0.000 C 
ATOM     15  C   UNL     1       1.007   3.011  20.799  0.00  0.00    +0.000 C 
ATOM     16  C   UNL     1       1.192   4.517  20.596  0.00  0.00    +0.000 C 
ATOM     17  C   UNL     1       2.671   4.909  20.577  0.00  0.00    +0.000 C 
ENDBRANCH  10  12
ENDBRANCH   1   8
BRANCH   4  18
ATOM     18  C   UNL     1       5.304   3.496  12.454  0.00  0.00    +0.000 A 
ATOM     19  C   UNL     1       4.208   4.084  11.785  0.00  0.00    +0.000 A 
ATOM     20  C   UNL     1       3.961   3.239  10.736  0.00  0.00    +0.000 A 
ATOM     21  O   UNL     1       4.848   2.205  10.775  0.00  0.00    +0.000 OA
ATOM     22  N   UNL     1       5.707   2.372  11.851  0.00  0.00    +0.000 NA
BRANCH  20  23
ATOM     23  C   UNL     1       2.877   3.427   9.696  0.00  0.00    +0.000 C 
ATOM     24  C   UNL     1       2.236   4.794   9.590  0.00  0.00    +0.000 C 
ATOM     25  C   UNL     1       3.157   4.330   8.515  0.00  0.00    +0.000 C 
ENDBRANCH  20  23
ENDBRANCH   4  18
TORSDOF 4
ENDMDL
MODEL 9
REMARK VINA RESULT:      -7.6      4.288      9.827
REMARK  Name = 
REMARK  4 active torsions:
REMARK  status: ('A' for Active; 'I' for Inactive)
REMARK    1  A    between atoms: C_3  and  C_4
REMARK    2  A    between atoms: C_7  and  C_8
REMARK    3  A    between atoms: C_10  and  C_11
REMARK    4  A    between atoms: C_18  and  N_19
REMARK                            x       y       z     vdW  Elec       q    Type
REMARK                         _______ _______ _______ _____ _____    ______ ____
ROOT
ATOM      1  C   UNL     1       1.858   8.762  18.663  0.00  0.00    +0.000 A 
ATOM      2  N   UNL     1       1.280   9.693  17.891  0.00  0.00    +0.000 NA
ATOM      3  O   UNL     1       0.539  10.455  18.792  0.00  0.00    +0.000 OA
ATOM      4  C   UNL     1       0.746   9.916  20.032  0.00  0.00    +0.000 A 
ATOM      5  N   UNL     1       1.576   8.892  20.004  0.00  0.00    +0.000 NA
ENDROOT
BRANCH   1   8
ATOM      6  C   UNL     1       4.502   6.816  16.918  0.00  0.00    +0.000 A 
ATOM      7  C   UNL     1       3.762   7.896  17.342  0.00  0.00    +0.000 A 
ATOM      8  C   UNL     1       2.663   7.657  18.161  0.00  0.00    +0.000 A 
ATOM      9  C   UNL     1       2.360   6.337  18.501  0.00  0.00    +0.000 A 
ATOM     10  C   UNL     1       3.153   5.293  18.028  0.00  0.00    +0.000 A 
ATOM     11  N   UNL     1       4.220   5.535  17.240  0.00  0.00    +0.000 NA
BRANCH  10  12
ATOM     12  N   UNL     1       2.762   3.983  18.293  0.00  0.00    +0.000 N 
ATOM     13  C   UNL     1       3.828   3.065  18.694  0.00  0.00    +0.000 C 
ATOM     14  C   UNL     1       3.368   1.652  18.329  0.00  0.00    +0.000 C 
ATOM     15  C   UNL     1       2.021   1.318  18.973  0.00  0.00    +0.000 C 
ATOM     16  C   UNL     1       0.974   2.405  18.713  0.00  0.00    +0.000 C 
ATOM     17  C   UNL     1       1.514   3.800  19.037  0.00  0.00    +0.000 C 
ENDBRANCH  10  12
ENDBRANCH   1   8
BRANCH   4  18
ATOM     18  C   UNL     1       0.086  10.395  21.278  0.00  0.00    +0.000 A 
ATOM     19  C   UNL     1      -1.012  11.284  21.321  0.00  0.00    +0.000 A 
ATOM     20  C   UNL     1      -1.251  11.459  22.659  0.00  0.00    +0.000 A 
ATOM     21  O   UNL     1      -0.351  10.728  23.374  0.00  0.00    +0.000 OA
ATOM     22  N   UNL     1       0.486  10.044  22.505  0.00  0.00    +0.000 NA
BRANCH  20  23
ATOM     23  C   UNL     1      -2.345  12.325  23.247  0.00  0.00    +0.000 C 
ATOM     24  C   UNL     1      -2.017  13.775  23.531  0.00  0.00    +0.000 C 
ATOM     25  C   UNL     1      -2.924  13.435  22.398  0.00  0.00    +0.000 C 
ENDBRANCH  20  23
ENDBRANCH   4  18
TORSDOF 4
ENDMDL
