MODEL 1
REMARK VINA RESULT:      -8.1      0.000      0.000
REMARK  Name = 
REMARK  7 active torsions:
REMARK  status: ('A' for Active; 'I' for Inactive)
REMARK    1  A    between atoms: C_1  and  C_2
REMARK    2  A    between atoms: C_2  and  C_3
REMARK    3  A    between atoms: C_2  and  N_4
REMARK    4  A    between atoms: C_15  and  C_16
REMARK    5  A    between atoms: C_16  and  O_17
REMARK    6  A    between atoms: C_16  and  C_18
REMARK    7  A    between atoms: C_16  and  C_22
REMARK                            x       y       z     vdW  Elec       q    Type
REMARK                         _______ _______ _______ _____ _____    ______ ____
ROOT
ATOM      1  N   UNL     1       4.306   5.834  17.579  0.00  0.00    +0.000 N 
ATOM      2  C   UNL     1       4.289   4.548  18.145  0.00  0.00    +0.000 A 
ATOM      3  O   UNL     1       4.967   3.610  17.722  0.00  0.00    +0.000 OA
ATOM      4  C   UNL     1       3.411   4.288  19.310  0.00  0.00    +0.000 A 
ATOM      5  C   UNL     1       3.470   3.022  19.926  0.00  0.00    +0.000 A 
ATOM      6  C   UNL     1       2.655   2.721  21.010  0.00  0.00    +0.000 A 
ATOM      7  C   UNL     1       1.774   3.681  21.483  0.00  0.00    +0.000 A 
ATOM      8  C   UNL     1       1.722   4.940  20.874  0.00  0.00    +0.000 A 
ATOM      9  C   UNL     1       2.538   5.279  19.775  0.00  0.00    +0.000 A 
ATOM     10  C   UNL     1       2.531   6.603  19.120  0.00  0.00    +0.000 A 
ATOM     11  C   UNL     1       1.642   7.633  19.521  0.00  0.00    +0.000 A 
ATOM     12  C   UNL     1       1.632   8.915  18.938  0.00  0.00    +0.000 A 
ATOM     13  C   UNL     1       2.576   9.164  17.943  0.00  0.00    +0.000 A 
ATOM     14  C   UNL     1       3.450   8.165  17.518  0.00  0.00    +0.000 A 
ATOM     15  C   UNL     1       3.436   6.872  18.065  0.00  0.00    +0.000 A 
ENDROOT
BRANCH   1  17
ATOM     16  C   UNL     1       6.625   6.334  16.731  0.00  0.00    +0.000 C 
ATOM     17  C   UNL     1       5.161   6.047  16.384  0.00  0.00    +0.000 C 
ATOM     18  C   UNL     1       4.998   4.924  15.355  0.00  0.00    +0.000 C 
ENDBRANCH   1  17
BRANCH  12  19
ATOM     19  C   UNL     1       0.619   9.992  19.381  0.00  0.00    +0.000 C 
BRANCH  19  20
ATOM     20  C   UNL     1      -0.596  10.070  18.414  0.00  0.00    +0.000 C 
ATOM     21  F   UNL     1      -0.392   9.363  17.272  0.00  0.00    +0.000 F 
ATOM     22  F   UNL     1      -1.780   9.665  18.896  0.00  0.00    +0.000 F 
ATOM     23  F   UNL     1      -0.763  11.358  17.999  0.00  0.00    +0.000 F 
ENDBRANCH  19  20
BRANCH  19  24
ATOM     24  C   UNL     1       0.140   9.768  20.843  0.00  0.00    +0.000 C 
ATOM     25  F   UNL     1       1.171   9.785  21.729  0.00  0.00    +0.000 F 
ATOM     26  F   UNL     1      -0.701  10.757  21.247  0.00  0.00    +0.000 F 
ATOM     27  F   UNL     1      -0.513   8.612  21.067  0.00  0.00    +0.000 F 
ENDBRANCH  19  24
BRANCH  19  28
ATOM     28  O   UNL     1       1.347  11.276  19.317  0.00  0.00    +0.000 OA
ATOM     29  H   UNL     1       0.969  11.857  20.006  0.00  0.00    +0.000 HD
ENDBRANCH  19  28
ENDBRANCH  12  19
TORSDOF 5
ENDMDL
MODEL 2
REMARK VINA RESULT:      -7.9      0.996      2.081
REMARK  Name = 
REMARK  7 active torsions:
REMARK  status: ('A' for Active; 'I' for Inactive)
REMARK    1  A    between atoms: C_1  and  C_2
REMARK    2  A    between atoms: C_2  and  C_3
REMARK    3  A    between atoms: C_2  and  N_4
REMARK    4  A    between atoms: C_15  and  C_16
REMARK    5  A    between atoms: C_16  and  O_17
REMARK    6  A    between atoms: C_16  and  C_18
REMARK    7  A    between atoms: C_16  and  C_22
REMARK                            x       y       z     vdW  Elec       q    Type
REMARK                         _______ _______ _______ _____ _____    ______ ____
ROOT
ATOM      1  N   UNL     1       4.343   6.167  17.682  0.00  0.00    +0.000 N 
ATOM      2  C   UNL     1       4.418   4.862  18.198  0.00  0.00    +0.000 A 
ATOM      3  O   UNL     1       5.188   4.003  17.765  0.00  0.00    +0.000 OA
ATOM      4  C   UNL     1       3.527   4.480  19.318  0.00  0.00    +0.000 A 
ATOM      5  C   UNL     1       3.674   3.200  19.888  0.00  0.00    +0.000 A 
ATOM      6  C   UNL     1       2.852   2.786  20.928  0.00  0.00    +0.000 A 
ATOM      7  C   UNL     1       1.875   3.648  21.403  0.00  0.00    +0.000 A 
ATOM      8  C   UNL     1       1.735   4.922  20.841  0.00  0.00    +0.000 A 
ATOM      9  C   UNL     1       2.555   5.373  19.787  0.00  0.00    +0.000 A 
ATOM     10  C   UNL     1       2.456   6.718  19.183  0.00  0.00    +0.000 A 
ATOM     11  C   UNL     1       1.467   7.651  19.588  0.00  0.00    +0.000 A 
ATOM     12  C   UNL     1       1.367   8.950  19.054  0.00  0.00    +0.000 A 
ATOM     13  C   UNL     1       2.319   9.319  18.106  0.00  0.00    +0.000 A 
ATOM     14  C   UNL     1       3.291   8.417  17.677  0.00  0.00    +0.000 A 
ATOM     15  C   UNL     1       3.370   7.106  18.173  0.00  0.00    +0.000 A 
ENDROOT
BRANCH   1  17
ATOM     16  C   UNL     1       6.653   6.840  16.936  0.00  0.00    +0.000 C 
ATOM     17  C   UNL     1       5.216   6.501  16.528  0.00  0.00    +0.000 C 
ATOM     18  C   UNL     1       5.141   5.440  15.426  0.00  0.00    +0.000 C 
ENDBRANCH   1  17
BRANCH  12  19
ATOM     19  C   UNL     1       0.249   9.918  19.499  0.00  0.00    +0.000 C 
BRANCH  19  20
ATOM     20  C   UNL     1       0.830  11.227  20.103  0.00  0.00    +0.000 C 
ATOM     21  F   UNL     1       1.535  11.001  21.241  0.00  0.00    +0.000 F 
ATOM     22  F   UNL     1       1.628  11.957  19.309  0.00  0.00    +0.000 F 
ATOM     23  F   UNL     1      -0.193  12.044  20.485  0.00  0.00    +0.000 F 
ENDBRANCH  19  20
BRANCH  19  24
ATOM     24  C   UNL     1      -0.732  10.240  18.337  0.00  0.00    +0.000 C 
ATOM     25  F   UNL     1      -0.547   9.423  17.267  0.00  0.00    +0.000 F 
ATOM     26  F   UNL     1      -2.026  10.055  18.714  0.00  0.00    +0.000 F 
ATOM     27  F   UNL     1      -0.663  11.495  17.853  0.00  0.00    +0.000 F 
ENDBRANCH  19  24
BRANCH  19  28
ATOM     28  O   UNL     1      -0.496   9.207  20.559  0.00  0.00    +0.000 OA
ATOM     29  H   UNL     1      -0.184   8.280  20.559  0.00  0.00    +0.000 HD
ENDBRANCH  19  28
ENDBRANCH  12  19
TORSDOF 5
ENDMDL
MODEL 3
REMARK VINA RESULT:      -7.8      0.193      1.018
REMARK  Name = 
REMARK  7 active torsions:
REMARK  status: ('A' for Active; 'I' for Inactive)
REMARK    1  A    between atoms: C_1  and  C_2
REMARK    2  A    between atoms: C_2  and  C_3
REMARK    3  A    between atoms: C_2  and  N_4
REMARK    4  A    between atoms: C_15  and  C_16
REMARK    5  A    between atoms: C_16  and  O_17
REMARK    6  A    between atoms: C_16  and  C_18
REMARK    7  A    between atoms: C_16  and  C_22
REMARK                            x       y       z     vdW  Elec       q    Type
REMARK                         _______ _______ _______ _____ _____    ______ ____
ROOT
ATOM      1  N   UNL     1       4.267   5.807  17.522  0.00  0.00    +0.000 N 
ATOM      2  C   UNL     1       4.171   4.505  18.044  0.00  0.00    +0.000 A 
ATOM      3  O   UNL     1       4.831   3.554  17.623  0.00  0.00    +0.000 OA
ATOM      4  C   UNL     1       3.227   4.245  19.155  0.00  0.00    +0.000 A 
ATOM      5  C   UNL     1       3.204   2.959  19.731  0.00  0.00    +0.000 A 
ATOM      6  C   UNL     1       2.325   2.658  20.764  0.00  0.00    +0.000 A 
ATOM      7  C   UNL     1       1.461   3.639  21.225  0.00  0.00    +0.000 A 
ATOM      8  C   UNL     1       1.489   4.918  20.657  0.00  0.00    +0.000 A 
ATOM      9  C   UNL     1       2.371   5.257  19.610  0.00  0.00    +0.000 A 
ATOM     10  C   UNL     1       2.449   6.600  19.000  0.00  0.00    +0.000 A 
ATOM     11  C   UNL     1       1.583   7.653  19.392  0.00  0.00    +0.000 A 
ATOM     12  C   UNL     1       1.654   8.952  18.852  0.00  0.00    +0.000 A 
ATOM     13  C   UNL     1       2.655   9.192  17.913  0.00  0.00    +0.000 A 
ATOM     14  C   UNL     1       3.509   8.172  17.498  0.00  0.00    +0.000 A 
ATOM     15  C   UNL     1       3.416   6.864  18.000  0.00  0.00    +0.000 A 
ENDROOT
BRANCH   1  17
ATOM     16  C   UNL     1       6.642   6.244  16.805  0.00  0.00    +0.000 C 
ATOM     17  C   UNL     1       5.188   6.021  16.377  0.00  0.00    +0.000 C 
ATOM     18  C   UNL     1       5.037   4.935  15.309  0.00  0.00    +0.000 C 
ENDBRANCH   1  17
BRANCH  12  19
ATOM     19  C   UNL     1       0.663  10.055  19.281  0.00  0.00    +0.000 C 
BRANCH  19  20
ATOM     20  C   UNL     1      -0.574  10.113  18.341  0.00  0.00    +0.000 C 
ATOM     21  F   UNL     1      -0.878  11.382  17.966  0.00  0.00    +0.000 F 
ATOM     22  F   UNL     1      -0.509   9.395  17.210  0.00  0.00    +0.000 F 
ATOM     23  F   UNL     1      -1.677   9.677  19.016  0.00  0.00    +0.000 F 
ENDBRANCH  19  20
BRANCH  19  24
ATOM     24  C   UNL     1       0.219   9.888  20.761  0.00  0.00    +0.000 C 
ATOM     25  F   UNL     1      -0.418   8.707  20.976  0.00  0.00    +0.000 F 
ATOM     26  F   UNL     1       1.286   9.882  21.603  0.00  0.00    +0.000 F 
ATOM     27  F   UNL     1      -0.614  10.839  21.226  0.00  0.00    +0.000 F 
ENDBRANCH  19  24
BRANCH  19  28
ATOM     28  O   UNL     1       1.404  11.327  19.154  0.00  0.00    +0.000 OA
ATOM     29  H   UNL     1       2.340  11.138  19.360  0.00  0.00    +0.000 HD
ENDBRANCH  19  28
ENDBRANCH  12  19
TORSDOF 5
ENDMDL
MODEL 4
REMARK VINA RESULT:      -7.7      3.967      6.321
REMARK  Name = 
REMARK  7 active torsions:
REMARK  status: ('A' for Active; 'I' for Inactive)
REMARK    1  A    between atoms: C_1  and  C_2
REMARK    2  A    between atoms: C_2  and  C_3
REMARK    3  A    between atoms: C_2  and  N_4
REMARK    4  A    between atoms: C_15  and  C_16
REMARK    5  A    between atoms: C_16  and  O_17
REMARK    6  A    between atoms: C_16  and  C_18
REMARK    7  A    between atoms: C_16  and  C_22
REMARK                            x       y       z     vdW  Elec       q    Type
REMARK                         _______ _______ _______ _____ _____    ______ ____
ROOT
ATOM      1  N   UNL     1       7.050   5.812  16.691  0.00  0.00    +0.000 N 
ATOM      2  C   UNL     1       7.486   5.634  15.367  0.00  0.00    +0.000 A 
ATOM      3  O   UNL     1       8.511   6.146  14.914  0.00  0.00    +0.000 OA
ATOM      4  C   UNL     1       6.679   4.793  14.452  0.00  0.00    +0.000 A 
ATOM      5  C   UNL     1       7.172   4.547  13.155  0.00  0.00    +0.000 A 
ATOM      6  C   UNL     1       6.446   3.781  12.252  0.00  0.00    +0.000 A 
ATOM      7  C   UNL     1       5.221   3.259  12.638  0.00  0.00    +0.000 A 
ATOM      8  C   UNL     1       4.736   3.499  13.929  0.00  0.00    +0.000 A 
ATOM      9  C   UNL     1       5.450   4.269  14.870  0.00  0.00    +0.000 A 
ATOM     10  C   UNL     1       4.984   4.525  16.248  0.00  0.00    +0.000 A 
ATOM     11  C   UNL     1       3.731   4.054  16.716  0.00  0.00    +0.000 A 
ATOM     12  C   UNL     1       3.273   4.255  18.033  0.00  0.00    +0.000 A 
ATOM     13  C   UNL     1       4.130   4.924  18.905  0.00  0.00    +0.000 A 
ATOM     14  C   UNL     1       5.360   5.413  18.467  0.00  0.00    +0.000 A 
ATOM     15  C   UNL     1       5.804   5.254  17.144  0.00  0.00    +0.000 A 
ENDROOT
BRANCH   1  17
ATOM     16  C   UNL     1       7.390   8.157  17.543  0.00  0.00    +0.000 C 
ATOM     17  C   UNL     1       7.857   6.699  17.566  0.00  0.00    +0.000 C 
ATOM     18  C   UNL     1       7.994   6.136  18.983  0.00  0.00    +0.000 C 
ENDBRANCH   1  17
BRANCH  12  19
ATOM     19  C   UNL     1       1.884   3.757  18.486  0.00  0.00    +0.000 C 
BRANCH  19  20
ATOM     20  C   UNL     1       1.814   2.204  18.519  0.00  0.00    +0.000 C 
ATOM     21  F   UNL     1       2.330   1.640  17.396  0.00  0.00    +0.000 F 
ATOM     22  F   UNL     1       2.414   1.593  19.552  0.00  0.00    +0.000 F 
ATOM     23  F   UNL     1       0.509   1.810  18.537  0.00  0.00    +0.000 F 
ENDBRANCH  19  20
BRANCH  19  24
ATOM     24  C   UNL     1       1.479   4.352  19.864  0.00  0.00    +0.000 C 
ATOM     25  F   UNL     1       0.225   3.981  20.235  0.00  0.00    +0.000 F 
ATOM     26  F   UNL     1       2.295   3.908  20.857  0.00  0.00    +0.000 F 
ATOM     27  F   UNL     1       1.498   5.696  19.941  0.00  0.00    +0.000 F 
ENDBRANCH  19  24
BRANCH  19  28
ATOM     28  O   UNL     1       0.934   4.244  17.466  0.00  0.00    +0.000 OA
ATOM     29  H   UNL     1       0.519   5.055  17.821  0.00  0.00    +0.000 HD
ENDBRANCH  19  28
ENDBRANCH  12  19
TORSDOF 5
ENDMDL
MODEL 5
REMARK VINA RESULT:      -7.7      1.068      2.016
REMARK  Name = 
REMARK  7 active torsions:
REMARK  status: ('A' for Active; 'I' for Inactive)
REMARK    1  A    between atoms: C_1  and  C_2
REMARK    2  A    between atoms: C_2  and  C_3
REMARK    3  A    between atoms: C_2  and  N_4
REMARK    4  A    between atoms: C_15  and  C_16
REMARK    5  A    between atoms: C_16  and  O_17
REMARK    6  A    between atoms: C_16  and  C_18
REMARK    7  A    between atoms: C_16  and  C_22
REMARK                            x       y       z     vdW  Elec       q    Type
REMARK                         _______ _______ _______ _____ _____    ______ ____
ROOT
ATOM      1  N   UNL     1       4.340   6.272  17.673  0.00  0.00    +0.000 N 
ATOM      2  C   UNL     1       4.400   4.968  18.193  0.00  0.00    +0.000 A 
ATOM      3  O   UNL     1       5.187   4.110  17.789  0.00  0.00    +0.000 OA
ATOM      4  C   UNL     1       3.470   4.586  19.281  0.00  0.00    +0.000 A 
ATOM      5  C   UNL     1       3.599   3.306  19.857  0.00  0.00    +0.000 A 
ATOM      6  C   UNL     1       2.741   2.892  20.868  0.00  0.00    +0.000 A 
ATOM      7  C   UNL     1       1.746   3.752  21.306  0.00  0.00    +0.000 A 
ATOM      8  C   UNL     1       1.623   5.025  20.738  0.00  0.00    +0.000 A 
ATOM      9  C   UNL     1       2.479   5.477  19.713  0.00  0.00    +0.000 A 
ATOM     10  C   UNL     1       2.399   6.821  19.104  0.00  0.00    +0.000 A 
ATOM     11  C   UNL     1       1.394   7.751  19.472  0.00  0.00    +0.000 A 
ATOM     12  C   UNL     1       1.309   9.050  18.933  0.00  0.00    +0.000 A 
ATOM     13  C   UNL     1       2.294   9.420  18.019  0.00  0.00    +0.000 A 
ATOM     14  C   UNL     1       3.283   8.519  17.627  0.00  0.00    +0.000 A 
ATOM     15  C   UNL     1       3.348   7.209  18.127  0.00  0.00    +0.000 A 
ENDROOT
BRANCH   1  17
ATOM     16  C   UNL     1       6.680   6.924  17.008  0.00  0.00    +0.000 C 
ATOM     17  C   UNL     1       5.253   6.606  16.551  0.00  0.00    +0.000 C 
ATOM     18  C   UNL     1       5.201   5.557  15.436  0.00  0.00    +0.000 C 
ENDBRANCH   1  17
BRANCH  12  19
ATOM     19  C   UNL     1       0.174  10.015  19.336  0.00  0.00    +0.000 C 
BRANCH  19  20
ATOM     20  C   UNL     1       0.724  11.415  19.731  0.00  0.00    +0.000 C 
ATOM     21  F   UNL     1       1.442  11.988  18.731  0.00  0.00    +0.000 F 
ATOM     22  F   UNL     1      -0.176  12.332  20.116  0.00  0.00    +0.000 F 
ATOM     23  F   UNL     1       1.609  11.280  20.760  0.00  0.00    +0.000 F 
ENDBRANCH  19  20
BRANCH  19  24
ATOM     24  C   UNL     1      -0.898  10.144  18.218  0.00  0.00    +0.000 C 
ATOM     25  F   UNL     1      -1.020  11.421  17.768  0.00  0.00    +0.000 F 
ATOM     26  F   UNL     1      -0.568   9.406  17.126  0.00  0.00    +0.000 F 
ATOM     27  F   UNL     1      -2.142   9.760  18.563  0.00  0.00    +0.000 F 
ENDBRANCH  19  24
BRANCH  19  28
ATOM     28  O   UNL     1      -0.459   9.411  20.526  0.00  0.00    +0.000 OA
ATOM     29  H   UNL     1      -0.117   8.499  20.604  0.00  0.00    +0.000 HD
ENDBRANCH  19  28
ENDBRANCH  12  19
TORSDOF 5
ENDMDL
MODEL 6
REMARK VINA RESULT:      -7.6      1.557      3.875
REMARK  Name = 
REMARK  7 active torsions:
REMARK  status: ('A' for Active; 'I' for Inactive)
REMARK    1  A    between atoms: C_1  and  C_2
REMARK    2  A    between atoms: C_2  and  C_3
REMARK    3  A    between atoms: C_2  and  N_4
REMARK    4  A    between atoms: C_15  and  C_16
REMARK    5  A    between atoms: C_16  and  O_17
REMARK    6  A    between atoms: C_16  and  C_18
REMARK    7  A    between atoms: C_16  and  C_22
REMARK                            x       y       z     vdW  Elec       q    Type
REMARK                         _______ _______ _______ _____ _____    ______ ____
ROOT
ATOM      1  N   UNL     1       2.675   3.743  19.212  0.00  0.00    +0.000 N 
ATOM      2  C   UNL     1       3.601   3.570  18.169  0.00  0.00    +0.000 A 
ATOM      3  O   UNL     1       4.042   2.471  17.829  0.00  0.00    +0.000 OA
ATOM      4  C   UNL     1       4.085   4.761  17.434  0.00  0.00    +0.000 A 
ATOM      5  C   UNL     1       4.942   4.567  16.331  0.00  0.00    +0.000 A 
ATOM      6  C   UNL     1       5.439   5.651  15.619  0.00  0.00    +0.000 A 
ATOM      7  C   UNL     1       5.087   6.935  16.005  0.00  0.00    +0.000 A 
ATOM      8  C   UNL     1       4.230   7.125  17.096  0.00  0.00    +0.000 A 
ATOM      9  C   UNL     1       3.706   6.047  17.838  0.00  0.00    +0.000 A 
ATOM     10  C   UNL     1       2.781   6.204  18.979  0.00  0.00    +0.000 A 
ATOM     11  C   UNL     1       2.392   7.481  19.458  0.00  0.00    +0.000 A 
ATOM     12  C   UNL     1       1.488   7.663  20.523  0.00  0.00    +0.000 A 
ATOM     13  C   UNL     1       0.941   6.514  21.092  0.00  0.00    +0.000 A 
ATOM     14  C   UNL     1       1.319   5.247  20.652  0.00  0.00    +0.000 A 
ATOM     15  C   UNL     1       2.252   5.057  19.620  0.00  0.00    +0.000 A 
ENDROOT
BRANCH   1  17
ATOM     16  C   UNL     1       2.492   2.638  21.468  0.00  0.00    +0.000 C 
ATOM     17  C   UNL     1       2.247   2.534  19.960  0.00  0.00    +0.000 C 
ATOM     18  C   UNL     1       0.814   2.122  19.612  0.00  0.00    +0.000 C 
ENDBRANCH   1  17
BRANCH  12  19
ATOM     19  C   UNL     1       1.124   9.073  21.036  0.00  0.00    +0.000 C 
BRANCH  19  20
ATOM     20  C   UNL     1       0.960  10.084  19.867  0.00  0.00    +0.000 C 
ATOM     21  F   UNL     1       0.905  11.370  20.300  0.00  0.00    +0.000 F 
ATOM     22  F   UNL     1       1.895  10.054  18.905  0.00  0.00    +0.000 F 
ATOM     23  F   UNL     1      -0.240   9.874  19.252  0.00  0.00    +0.000 F 
ENDBRANCH  19  20
BRANCH  19  24
ATOM     24  C   UNL     1      -0.152   9.053  21.925  0.00  0.00    +0.000 C 
ATOM     25  F   UNL     1      -0.997   8.043  21.588  0.00  0.00    +0.000 F 
ATOM     26  F   UNL     1       0.157   8.844  23.232  0.00  0.00    +0.000 F 
ATOM     27  F   UNL     1      -0.895  10.175  21.895  0.00  0.00    +0.000 F 
ENDBRANCH  19  24
BRANCH  19  28
ATOM     28  O   UNL     1       2.267   9.503  21.867  0.00  0.00    +0.000 OA
ATOM     29  H   UNL     1       2.259   8.955  22.676  0.00  0.00    +0.000 HD
ENDBRANCH  19  28
ENDBRANCH  12  19
TORSDOF 5
ENDMDL
MODEL 7
REMARK VINA RESULT:      -7.6      1.553      3.751
REMARK  Name = 
REMARK  7 active torsions:
REMARK  status: ('A' for Active; 'I' for Inactive)
REMARK    1  A    between atoms: C_1  and  C_2
REMARK    2  A    between atoms: C_2  and  C_3
REMARK    3  A    between atoms: C_2  and  N_4
REMARK    4  A    between atoms: C_15  and  C_16
REMARK    5  A    between atoms: C_16  and  O_17
REMARK    6  A    between atoms: C_16  and  C_18
REMARK    7  A    between atoms: C_16  and  C_22
REMARK                            x       y       z     vdW  Elec       q    Type
REMARK                         _______ _______ _______ _____ _____    ______ ____
ROOT
ATOM      1  N   UNL     1       2.683   3.726  19.201  0.00  0.00    +0.000 N 
ATOM      2  C   UNL     1       3.608   3.553  18.157  0.00  0.00    +0.000 A 
ATOM      3  O   UNL     1       4.049   2.454  17.816  0.00  0.00    +0.000 OA
ATOM      4  C   UNL     1       4.092   4.744  17.422  0.00  0.00    +0.000 A 
ATOM      5  C   UNL     1       4.949   4.551  16.320  0.00  0.00    +0.000 A 
ATOM      6  C   UNL     1       5.446   5.635  15.608  0.00  0.00    +0.000 A 
ATOM      7  C   UNL     1       5.094   6.918  15.995  0.00  0.00    +0.000 A 
ATOM      8  C   UNL     1       4.238   7.108  17.086  0.00  0.00    +0.000 A 
ATOM      9  C   UNL     1       3.714   6.030  17.828  0.00  0.00    +0.000 A 
ATOM     10  C   UNL     1       2.789   6.186  18.969  0.00  0.00    +0.000 A 
ATOM     11  C   UNL     1       2.400   7.463  19.450  0.00  0.00    +0.000 A 
ATOM     12  C   UNL     1       1.497   7.645  20.515  0.00  0.00    +0.000 A 
ATOM     13  C   UNL     1       0.950   6.496  21.083  0.00  0.00    +0.000 A 
ATOM     14  C   UNL     1       1.327   5.229  20.642  0.00  0.00    +0.000 A 
ATOM     15  C   UNL     1       2.260   5.039  19.610  0.00  0.00    +0.000 A 
ENDROOT
BRANCH   1  17
ATOM     16  C   UNL     1       2.478   2.629  21.459  0.00  0.00    +0.000 C 
ATOM     17  C   UNL     1       2.255   2.516  19.948  0.00  0.00    +0.000 C 
ATOM     18  C   UNL     1       0.830   2.090  19.583  0.00  0.00    +0.000 C 
ENDBRANCH   1  17
BRANCH  12  19
ATOM     19  C   UNL     1       1.134   9.055  21.029  0.00  0.00    +0.000 C 
BRANCH  19  20
ATOM     20  C   UNL     1       0.941  10.059  19.859  0.00  0.00    +0.000 C 
ATOM     21  F   UNL     1       1.892   9.923  18.899  0.00  0.00    +0.000 F 
ATOM     22  F   UNL     1      -0.239  10.026  19.221  0.00  0.00    +0.000 F 
ATOM     23  F   UNL     1       1.097  11.332  20.324  0.00  0.00    +0.000 F 
ENDBRANCH  19  20
BRANCH  19  24
ATOM     24  C   UNL     1      -0.124   9.030  21.942  0.00  0.00    +0.000 C 
ATOM     25  F   UNL     1       0.196   8.880  23.254  0.00  0.00    +0.000 F 
ATOM     26  F   UNL     1      -0.814  10.199  21.869  0.00  0.00    +0.000 F 
ATOM     27  F   UNL     1      -1.015   8.057  21.672  0.00  0.00    +0.000 F 
ENDBRANCH  19  24
BRANCH  19  28
ATOM     28  O   UNL     1       2.290   9.495  21.836  0.00  0.00    +0.000 OA
ATOM     29  H   UNL     1       2.629   8.710  22.309  0.00  0.00    +0.000 HD
ENDBRANCH  19  28
ENDBRANCH  12  19
TORSDOF 5
ENDMDL
MODEL 8
REMARK VINA RESULT:      -7.5      0.490      1.064
REMARK  Name = 
REMARK  7 active torsions:
REMARK  status: ('A' for Active; 'I' for Inactive)
REMARK    1  A    between atoms: C_1  and  C_2
REMARK    2  A    between atoms: C_2  and  C_3
REMARK    3  A    between atoms: C_2  and  N_4
REMARK    4  A    between atoms: C_15  and  C_16
REMARK    5  A    between atoms: C_16  and  O_17
REMARK    6  A    between atoms: C_16  and  C_18
REMARK    7  A    between atoms: C_16  and  C_22
REMARK                            x       y       z     vdW  Elec       q    Type
REMARK                         _______ _______ _______ _____ _____    ______ ____
ROOT
ATOM      1  N   UNL     1       4.333   5.752  17.671  0.00  0.00    +0.000 N 
ATOM      2  C   UNL     1       4.157   4.430  18.116  0.00  0.00    +0.000 A 
ATOM      3  O   UNL     1       4.841   3.484  17.722  0.00  0.00    +0.000 OA
ATOM      4  C   UNL     1       3.095   4.142  19.107  0.00  0.00    +0.000 A 
ATOM      5  C   UNL     1       2.987   2.832  19.615  0.00  0.00    +0.000 A 
ATOM      6  C   UNL     1       1.996   2.504  20.533  0.00  0.00    +0.000 A 
ATOM      7  C   UNL     1       1.106   3.483  20.946  0.00  0.00    +0.000 A 
ATOM      8  C   UNL     1       1.219   4.786  20.446  0.00  0.00    +0.000 A 
ATOM      9  C   UNL     1       2.214   5.151  19.516  0.00  0.00    +0.000 A 
ATOM     10  C   UNL     1       2.382   6.519  18.984  0.00  0.00    +0.000 A 
ATOM     11  C   UNL     1       1.498   7.572  19.331  0.00  0.00    +0.000 A 
ATOM     12  C   UNL     1       1.650   8.893  18.864  0.00  0.00    +0.000 A 
ATOM     13  C   UNL     1       2.750   9.153  18.050  0.00  0.00    +0.000 A 
ATOM     14  C   UNL     1       3.625   8.133  17.680  0.00  0.00    +0.000 A 
ATOM     15  C   UNL     1       3.455   6.806  18.105  0.00  0.00    +0.000 A 
ENDROOT
BRANCH   1  17
ATOM     16  C   UNL     1       4.832   6.683  15.385  0.00  0.00    +0.000 C 
ATOM     17  C   UNL     1       5.375   5.997  16.642  0.00  0.00    +0.000 C 
ATOM     18  C   UNL     1       6.603   6.700  17.225  0.00  0.00    +0.000 C 
ENDBRANCH   1  17
BRANCH  12  19
ATOM     19  C   UNL     1       0.640   9.999  19.238  0.00  0.00    +0.000 C 
BRANCH  19  20
ATOM     20  C   UNL     1      -0.585  10.004  18.281  0.00  0.00    +0.000 C 
ATOM     21  F   UNL     1      -0.367   9.269  17.160  0.00  0.00    +0.000 F 
ATOM     22  F   UNL     1      -1.751   9.574  18.788  0.00  0.00    +0.000 F 
ATOM     23  F   UNL     1      -0.801  11.273  17.828  0.00  0.00    +0.000 F 
ENDBRANCH  19  20
BRANCH  19  24
ATOM     24  C   UNL     1       0.177   9.882  20.718  0.00  0.00    +0.000 C 
ATOM     25  F   UNL     1      -0.671  10.883  21.072  0.00  0.00    +0.000 F 
ATOM     26  F   UNL     1      -0.513   8.730  20.933  0.00  0.00    +0.000 F 
ATOM     27  F   UNL     1       1.163   9.899  21.635  0.00  0.00    +0.000 F 
ENDBRANCH  19  24
BRANCH  19  28
ATOM     28  O   UNL     1       1.366  11.275  19.073  0.00  0.00    +0.000 OA
ATOM     29  H   UNL     1       1.455  11.435  18.113  0.00  0.00    +0.000 HD
ENDBRANCH  19  28
ENDBRANCH  12  19
TORSDOF 5
ENDMDL
MODEL 9
REMARK VINA RESULT:      -7.4      4.587      6.666
REMARK  Name = 
REMARK  7 active torsions:
REMARK  status: ('A' for Active; 'I' for Inactive)
REMARK    1  A    between atoms: C_1  and  C_2
REMARK    2  A    between atoms: C_2  and  C_3
REMARK    3  A    between atoms: C_2  and  N_4
REMARK    4  A    between atoms: C_15  and  C_16
REMARK    5  A    between atoms: C_16  and  O_17
REMARK    6  A    between atoms: C_16  and  C_18
REMARK    7  A    between atoms: C_16  and  C_22
REMARK                            x       y       z     vdW  Elec       q    Type
REMARK                         _______ _______ _______ _____ _____    ______ ____
ROOT
ATOM      1  N   UNL     1       7.114   5.782  16.874  0.00  0.00    +0.000 N 
ATOM      2  C   UNL     1       7.434   5.725  15.507  0.00  0.00    +0.000 A 
ATOM      3  O   UNL     1       8.313   6.412  14.985  0.00  0.00    +0.000 OA
ATOM      4  C   UNL     1       6.679   4.798  14.631  0.00  0.00    +0.000 A 
ATOM      5  C   UNL     1       7.068   4.682  13.281  0.00  0.00    +0.000 A 
ATOM      6  C   UNL     1       6.383   3.842  12.414  0.00  0.00    +0.000 A 
ATOM      7  C   UNL     1       5.302   3.115  12.888  0.00  0.00    +0.000 A 
ATOM      8  C   UNL     1       4.921   3.226  14.230  0.00  0.00    +0.000 A 
ATOM      9  C   UNL     1       5.597   4.067  15.137  0.00  0.00    +0.000 A 
ATOM     10  C   UNL     1       5.242   4.194  16.566  0.00  0.00    +0.000 A 
ATOM     11  C   UNL     1       4.134   3.510  17.127  0.00  0.00    +0.000 A 
ATOM     12  C   UNL     1       3.789   3.586  18.490  0.00  0.00    +0.000 A 
ATOM     13  C   UNL     1       4.615   4.354  19.309  0.00  0.00    +0.000 A 
ATOM     14  C   UNL     1       5.701   5.050  18.781  0.00  0.00    +0.000 A 
ATOM     15  C   UNL     1       6.025   5.014  17.415  0.00  0.00    +0.000 A 
ENDROOT
BRANCH   1  17
ATOM     16  C   UNL     1       7.262   8.166  17.672  0.00  0.00    +0.000 C 
ATOM     17  C   UNL     1       7.857   6.756  17.713  0.00  0.00    +0.000 C 
ATOM     18  C   UNL     1       8.073   6.238  19.137  0.00  0.00    +0.000 C 
ENDBRANCH   1  17
BRANCH  12  19
ATOM     19  C   UNL     1       2.550   2.853  19.048  0.00  0.00    +0.000 C 
BRANCH  19  20
ATOM     20  C   UNL     1       2.602   2.736  20.597  0.00  0.00    +0.000 C 
ATOM     21  F   UNL     1       3.701   2.063  21.027  0.00  0.00    +0.000 F 
ATOM     22  F   UNL     1       2.572   3.883  21.292  0.00  0.00    +0.000 F 
ATOM     23  F   UNL     1       1.546   1.989  21.031  0.00  0.00    +0.000 F 
ENDBRANCH  19  20
BRANCH  19  24
ATOM     24  C   UNL     1       1.226   3.531  18.595  0.00  0.00    +0.000 C 
ATOM     25  F   UNL     1       0.223   2.632  18.419  0.00  0.00    +0.000 F 
ATOM     26  F   UNL     1       0.769   4.404  19.532  0.00  0.00    +0.000 F 
ATOM     27  F   UNL     1       1.297   4.226  17.444  0.00  0.00    +0.000 F 
ENDBRANCH  19  24
BRANCH  19  28
ATOM     28  O   UNL     1       2.600   1.492  18.476  0.00  0.00    +0.000 OA
ATOM     29  H   UNL     1       2.246   0.881  19.151  0.00  0.00    +0.000 HD
ENDBRANCH  19  28
ENDBRANCH  12  19
TORSDOF 5
ENDMDL
