MODEL 1
REMARK VINA RESULT:      -7.9      0.000      0.000
REMARK  Name = 
REMARK  8 active torsions:
REMARK  status: ('A' for Active; 'I' for Inactive)
REMARK    1  A    between atoms: C_2  and  C_3
REMARK    2  A    between atoms: C_3  and  C_4
REMARK    3  A    between atoms: C_5  and  O_6
REMARK    4  A    between atoms: O_6  and  C_7
REMARK    5  A    between atoms: C_11  and  C_12
REMARK    6  A    between atoms: C_12  and  C_14
REMARK    7  A    between atoms: C_22  and  C_23
REMARK    8  A    between atoms: C_23  and  C_24
REMARK                            x       y       z     vdW  Elec       q    Type
REMARK                         _______ _______ _______ _____ _____    ______ ____
ROOT
ATOM      1  C   UNL     1       2.873   5.236  18.741  0.00  0.00    +0.000 A 
ATOM      2  C   UNL     1       3.113   6.675  18.381  0.00  0.00    +0.000 A 
ATOM      3  N   UNL     1       3.939   7.139  17.499  0.00  0.00    +0.000 NA
ATOM      4  C   UNL     1       4.648   6.213  16.805  0.00  0.00    +0.000 A 
ATOM      5  N   UNL     1       5.530   6.417  15.848  0.00  0.00    +0.000 NA
ATOM      6  C   UNL     1       5.917   5.172  15.405  0.00  0.00    +0.000 A 
ATOM      7  C   UNL     1       5.294   4.195  16.156  0.00  0.00    +0.000 A 
ATOM      8  N   UNL     1       4.498   4.850  17.061  0.00  0.00    +0.000 N 
ATOM      9  C   UNL     1       3.641   4.349  18.055  0.00  0.00    +0.000 A 
ENDROOT
BRANCH   2  10
ATOM     10  O   UNL     1       2.345   7.503  19.135  0.00  0.00    +0.000 OA
ATOM     11  C   UNL     1       1.845   8.679  18.481  0.00  0.00    +0.000 C 
ENDBRANCH   2  10
BRANCH   6  12
ATOM     12  C   UNL     1       6.801   4.930  14.272  0.00  0.00    +0.000 C 
ATOM     13  O   UNL     1       7.924   5.432  14.208  0.00  0.00    +0.000 OA
BRANCH  12  14
ATOM     14  C   UNL     1       6.340   4.070  13.150  0.00  0.00    +0.000 A 
ATOM     15  C   UNL     1       4.970   4.021  12.858  0.00  0.00    +0.000 A 
ATOM     16  C   UNL     1       4.495   3.166  11.863  0.00  0.00    +0.000 A 
ATOM     17  C   UNL     1       5.381   2.344  11.169  0.00  0.00    +0.000 A 
ATOM     18  C   UNL     1       6.744   2.382  11.461  0.00  0.00    +0.000 A 
ATOM     19  C   UNL     1       7.226   3.244  12.447  0.00  0.00    +0.000 A 
ENDBRANCH  12  14
ENDBRANCH   6  12
BRANCH   9  20
ATOM     20  C   UNL     1       3.685   2.864  18.368  0.00  0.00    +0.000 C 
ATOM     21  C   UNL     1       2.550   2.040  17.781  0.00  0.00    +0.000 C 
ENDBRANCH   9  20
BRANCH   1  22
ATOM     22  C   UNL     1       1.803   4.884  19.741  0.00  0.00    +0.000 C 
BRANCH  22  24
ATOM     23  C   UNL     1       2.078   3.369  21.724  0.00  0.00    +0.000 C 
ATOM     24  C   UNL     1       2.347   4.519  21.093  0.00  0.00    +0.000 C 
ENDBRANCH  22  24
ENDBRANCH   1  22
TORSDOF 6
ENDMDL
MODEL 2
REMARK VINA RESULT:      -7.8      0.613      1.200
REMARK  Name = 
REMARK  8 active torsions:
REMARK  status: ('A' for Active; 'I' for Inactive)
REMARK    1  A    between atoms: C_2  and  C_3
REMARK    2  A    between atoms: C_3  and  C_4
REMARK    3  A    between atoms: C_5  and  O_6
REMARK    4  A    between atoms: O_6  and  C_7
REMARK    5  A    between atoms: C_11  and  C_12
REMARK    6  A    between atoms: C_12  and  C_14
REMARK    7  A    between atoms: C_22  and  C_23
REMARK    8  A    between atoms: C_23  and  C_24
REMARK                            x       y       z     vdW  Elec       q    Type
REMARK                         _______ _______ _______ _____ _____    ______ ____
ROOT
ATOM      1  C   UNL     1       3.354   5.289  19.071  0.00  0.00    +0.000 A 
ATOM      2  C   UNL     1       3.320   6.675  18.493  0.00  0.00    +0.000 A 
ATOM      3  N   UNL     1       3.962   7.114  17.458  0.00  0.00    +0.000 NA
ATOM      4  C   UNL     1       4.731   6.203  16.807  0.00  0.00    +0.000 A 
ATOM      5  N   UNL     1       5.461   6.383  15.726  0.00  0.00    +0.000 NA
ATOM      6  C   UNL     1       5.993   5.153  15.407  0.00  0.00    +0.000 A 
ATOM      7  C   UNL     1       5.619   4.223  16.357  0.00  0.00    +0.000 A 
ATOM      8  N   UNL     1       4.830   4.888  17.261  0.00  0.00    +0.000 N 
ATOM      9  C   UNL     1       4.175   4.426  18.416  0.00  0.00    +0.000 A 
ENDROOT
BRANCH   2  10
ATOM     10  O   UNL     1       2.515   7.490  19.222  0.00  0.00    +0.000 OA
ATOM     11  C   UNL     1       1.904   8.580  18.515  0.00  0.00    +0.000 C 
ENDBRANCH   2  10
BRANCH   6  12
ATOM     12  C   UNL     1       6.776   4.871  14.212  0.00  0.00    +0.000 C 
ATOM     13  O   UNL     1       7.878   5.389  14.022  0.00  0.00    +0.000 OA
BRANCH  12  14
ATOM     14  C   UNL     1       6.237   3.946  13.180  0.00  0.00    +0.000 A 
ATOM     15  C   UNL     1       7.131   3.121  12.483  0.00  0.00    +0.000 A 
ATOM     16  C   UNL     1       6.669   2.299  11.454  0.00  0.00    +0.000 A 
ATOM     17  C   UNL     1       5.319   2.310  11.106  0.00  0.00    +0.000 A 
ATOM     18  C   UNL     1       4.427   3.134  11.791  0.00  0.00    +0.000 A 
ATOM     19  C   UNL     1       4.881   3.951  12.828  0.00  0.00    +0.000 A 
ENDBRANCH  12  14
ENDBRANCH   6  12
BRANCH   9  20
ATOM     20  C   UNL     1       4.490   3.028  18.916  0.00  0.00    +0.000 C 
ATOM     21  C   UNL     1       3.619   1.920  18.346  0.00  0.00    +0.000 C 
ENDBRANCH   9  20
BRANCH   1  22
ATOM     22  C   UNL     1       2.467   4.944  20.238  0.00  0.00    +0.000 C 
BRANCH  22  24
ATOM     23  C   UNL     1       0.763   3.103  20.356  0.00  0.00    +0.000 C 
ATOM     24  C   UNL     1       1.190   4.261  19.836  0.00  0.00    +0.000 C 
ENDBRANCH  22  24
ENDBRANCH   1  22
TORSDOF 6
ENDMDL
MODEL 3
REMARK VINA RESULT:      -7.8      1.360      1.835
REMARK  Name = 
REMARK  8 active torsions:
REMARK  status: ('A' for Active; 'I' for Inactive)
REMARK    1  A    between atoms: C_2  and  C_3
REMARK    2  A    between atoms: C_3  and  C_4
REMARK    3  A    between atoms: C_5  and  O_6
REMARK    4  A    between atoms: O_6  and  C_7
REMARK    5  A    between atoms: C_11  and  C_12
REMARK    6  A    between atoms: C_12  and  C_14
REMARK    7  A    between atoms: C_22  and  C_23
REMARK    8  A    between atoms: C_23  and  C_24
REMARK                            x       y       z     vdW  Elec       q    Type
REMARK                         _______ _______ _______ _____ _____    ______ ____
ROOT
ATOM      1  C   UNL     1       2.074   4.260  19.222  0.00  0.00    +0.000 A 
ATOM      2  C   UNL     1       2.467   5.654  19.622  0.00  0.00    +0.000 A 
ATOM      3  N   UNL     1       3.465   6.350  19.179  0.00  0.00    +0.000 NA
ATOM      4  C   UNL     1       4.224   5.756  18.224  0.00  0.00    +0.000 A 
ATOM      5  N   UNL     1       5.273   6.249  17.599  0.00  0.00    +0.000 NA
ATOM      6  C   UNL     1       5.652   5.305  16.671  0.00  0.00    +0.000 A 
ATOM      7  C   UNL     1       4.844   4.191  16.782  0.00  0.00    +0.000 A 
ATOM      8  N   UNL     1       3.943   4.463  17.781  0.00  0.00    +0.000 N 
ATOM      9  C   UNL     1       2.892   3.689  18.300  0.00  0.00    +0.000 A 
ENDROOT
BRANCH   2  10
ATOM     10  O   UNL     1       1.632   6.144  20.575  0.00  0.00    +0.000 OA
ATOM     11  C   UNL     1       1.586   7.573  20.708  0.00  0.00    +0.000 C 
ENDBRANCH   2  10
BRANCH   6  12
ATOM     12  C   UNL     1       6.705   5.488  15.681  0.00  0.00    +0.000 C 
ATOM     13  O   UNL     1       7.675   6.217  15.894  0.00  0.00    +0.000 OA
BRANCH  12  14
ATOM     14  C   UNL     1       6.611   4.793  14.369  0.00  0.00    +0.000 A 
ATOM     15  C   UNL     1       7.553   5.099  13.377  0.00  0.00    +0.000 A 
ATOM     16  C   UNL     1       7.448   4.524  12.110  0.00  0.00    +0.000 A 
ATOM     17  C   UNL     1       6.394   3.658  11.822  0.00  0.00    +0.000 A 
ATOM     18  C   UNL     1       5.450   3.356  12.804  0.00  0.00    +0.000 A 
ATOM     19  C   UNL     1       5.556   3.919  14.076  0.00  0.00    +0.000 A 
ENDBRANCH  12  14
ENDBRANCH   6  12
BRANCH   9  20
ATOM     20  C   UNL     1       2.784   2.236  17.872  0.00  0.00    +0.000 C 
ATOM     21  C   UNL     1       3.689   1.268  18.617  0.00  0.00    +0.000 C 
ENDBRANCH   9  20
BRANCH   1  22
ATOM     22  C   UNL     1       0.822   3.644  19.790  0.00  0.00    +0.000 C 
BRANCH  22  24
ATOM     23  C   UNL     1       2.089   2.883  21.819  0.00  0.00    +0.000 C 
ATOM     24  C   UNL     1       1.084   2.724  20.949  0.00  0.00    +0.000 C 
ENDBRANCH  22  24
ENDBRANCH   1  22
TORSDOF 6
ENDMDL
MODEL 4
REMARK VINA RESULT:      -7.6      1.499      1.852
REMARK  Name = 
REMARK  8 active torsions:
REMARK  status: ('A' for Active; 'I' for Inactive)
REMARK    1  A    between atoms: C_2  and  C_3
REMARK    2  A    between atoms: C_3  and  C_4
REMARK    3  A    between atoms: C_5  and  O_6
REMARK    4  A    between atoms: O_6  and  C_7
REMARK    5  A    between atoms: C_11  and  C_12
REMARK    6  A    between atoms: C_12  and  C_14
REMARK    7  A    between atoms: C_22  and  C_23
REMARK    8  A    between atoms: C_23  and  C_24
REMARK                            x       y       z     vdW  Elec       q    Type
REMARK                         _______ _______ _______ _____ _____    ______ ____
ROOT
ATOM      1  C   UNL     1       2.783   4.442  20.105  0.00  0.00    +0.000 A 
ATOM      2  C   UNL     1       2.526   5.886  19.780  0.00  0.00    +0.000 A 
ATOM      3  N   UNL     1       3.180   6.636  18.951  0.00  0.00    +0.000 NA
ATOM      4  C   UNL     1       4.196   6.034  18.283  0.00  0.00    +0.000 A 
ATOM      5  N   UNL     1       4.997   6.561  17.379  0.00  0.00    +0.000 NA
ATOM      6  C   UNL     1       5.811   5.541  16.940  0.00  0.00    +0.000 A 
ATOM      7  C   UNL     1       5.531   4.385  17.642  0.00  0.00    +0.000 A 
ATOM      8  N   UNL     1       4.517   4.696  18.511  0.00  0.00    +0.000 N 
ATOM      9  C   UNL     1       3.841   3.898  19.449  0.00  0.00    +0.000 A 
ENDROOT
BRANCH   2  10
ATOM     10  O   UNL     1       1.484   6.374  20.502  0.00  0.00    +0.000 OA
ATOM     11  C   UNL     1       1.520   7.776  20.806  0.00  0.00    +0.000 C 
ENDBRANCH   2  10
BRANCH   6  12
ATOM     12  C   UNL     1       6.775   5.656  15.854  0.00  0.00    +0.000 C 
ATOM     13  O   UNL     1       7.806   6.322  15.969  0.00  0.00    +0.000 OA
BRANCH  12  14
ATOM     14  C   UNL     1       6.513   4.970  14.561  0.00  0.00    +0.000 A 
ATOM     15  C   UNL     1       5.313   4.261  14.407  0.00  0.00    +0.000 A 
ATOM     16  C   UNL     1       5.069   3.541  13.236  0.00  0.00    +0.000 A 
ATOM     17  C   UNL     1       6.027   3.511  12.224  0.00  0.00    +0.000 A 
ATOM     18  C   UNL     1       7.226   4.209  12.375  0.00  0.00    +0.000 A 
ATOM     19  C   UNL     1       7.470   4.939  13.539  0.00  0.00    +0.000 A 
ENDBRANCH  12  14
ENDBRANCH   6  12
BRANCH   9  20
ATOM     20  C   UNL     1       4.382   2.510  19.743  0.00  0.00    +0.000 C 
ATOM     21  C   UNL     1       3.875   1.406  18.828  0.00  0.00    +0.000 C 
ENDBRANCH   9  20
BRANCH   1  22
ATOM     22  C   UNL     1       1.855   3.710  21.040  0.00  0.00    +0.000 C 
BRANCH  22  24
ATOM     23  C   UNL     1       0.602   2.635  19.148  0.00  0.00    +0.000 C 
ATOM     24  C   UNL     1       0.615   3.194  20.365  0.00  0.00    +0.000 C 
ENDBRANCH  22  24
ENDBRANCH   1  22
TORSDOF 6
ENDMDL
MODEL 5
REMARK VINA RESULT:      -7.3      1.738      3.469
REMARK  Name = 
REMARK  8 active torsions:
REMARK  status: ('A' for Active; 'I' for Inactive)
REMARK    1  A    between atoms: C_2  and  C_3
REMARK    2  A    between atoms: C_3  and  C_4
REMARK    3  A    between atoms: C_5  and  O_6
REMARK    4  A    between atoms: O_6  and  C_7
REMARK    5  A    between atoms: C_11  and  C_12
REMARK    6  A    between atoms: C_12  and  C_14
REMARK    7  A    between atoms: C_22  and  C_23
REMARK    8  A    between atoms: C_23  and  C_24
REMARK                            x       y       z     vdW  Elec       q    Type
REMARK                         _______ _______ _______ _____ _____    ______ ____
ROOT
ATOM      1  C   UNL     1       2.143   6.273  19.779  0.00  0.00    +0.000 A 
ATOM      2  C   UNL     1       2.869   5.058  20.285  0.00  0.00    +0.000 A 
ATOM      3  N   UNL     1       3.897   4.477  19.755  0.00  0.00    +0.000 NA
ATOM      4  C   UNL     1       4.388   5.053  18.627  0.00  0.00    +0.000 A 
ATOM      5  N   UNL     1       5.428   4.676  17.911  0.00  0.00    +0.000 NA
ATOM      6  C   UNL     1       5.571   5.614  16.913  0.00  0.00    +0.000 A 
ATOM      7  C   UNL     1       4.555   6.545  16.998  0.00  0.00    +0.000 A 
ATOM      8  N   UNL     1       3.788   6.184  18.076  0.00  0.00    +0.000 N 
ATOM      9  C   UNL     1       2.640   6.783  18.622  0.00  0.00    +0.000 A 
ENDROOT
BRANCH   2  10
ATOM     10  O   UNL     1       2.293   4.579  21.418  0.00  0.00    +0.000 OA
ATOM     11  C   UNL     1       2.346   3.157  21.607  0.00  0.00    +0.000 C 
ENDBRANCH   2  10
BRANCH   6  12
ATOM     12  C   UNL     1       6.669   5.648  15.956  0.00  0.00    +0.000 C 
ATOM     13  O   UNL     1       7.698   6.291  16.171  0.00  0.00    +0.000 OA
BRANCH  12  14
ATOM     14  C   UNL     1       6.550   4.904  14.673  0.00  0.00    +0.000 A 
ATOM     15  C   UNL     1       7.513   5.121  13.678  0.00  0.00    +0.000 A 
ATOM     16  C   UNL     1       7.389   4.499  12.435  0.00  0.00    +0.000 A 
ATOM     17  C   UNL     1       6.296   3.674  12.174  0.00  0.00    +0.000 A 
ATOM     18  C   UNL     1       5.331   3.461  13.158  0.00  0.00    +0.000 A 
ATOM     19  C   UNL     1       5.456   4.071  14.407  0.00  0.00    +0.000 A 
ENDBRANCH  12  14
ENDBRANCH   6  12
BRANCH   9  20
ATOM     20  C   UNL     1       1.968   7.903  17.846  0.00  0.00    +0.000 C 
ATOM     21  C   UNL     1       2.470   9.304  18.158  0.00  0.00    +0.000 C 
ENDBRANCH   9  20
BRANCH   1  22
ATOM     22  C   UNL     1       1.012   6.856  20.584  0.00  0.00    +0.000 C 
BRANCH  22  24
ATOM     23  C   UNL     1       0.529   8.968  21.854  0.00  0.00    +0.000 C 
ATOM     24  C   UNL     1       1.404   8.079  21.364  0.00  0.00    +0.000 C 
ENDBRANCH  22  24
ENDBRANCH   1  22
TORSDOF 6
ENDMDL
MODEL 6
REMARK VINA RESULT:      -7.2      1.534      2.111
REMARK  Name = 
REMARK  8 active torsions:
REMARK  status: ('A' for Active; 'I' for Inactive)
REMARK    1  A    between atoms: C_2  and  C_3
REMARK    2  A    between atoms: C_3  and  C_4
REMARK    3  A    between atoms: C_5  and  O_6
REMARK    4  A    between atoms: O_6  and  C_7
REMARK    5  A    between atoms: C_11  and  C_12
REMARK    6  A    between atoms: C_12  and  C_14
REMARK    7  A    between atoms: C_22  and  C_23
REMARK    8  A    between atoms: C_23  and  C_24
REMARK                            x       y       z     vdW  Elec       q    Type
REMARK                         _______ _______ _______ _____ _____    ______ ____
ROOT
ATOM      1  C   UNL     1       2.619   4.328  19.877  0.00  0.00    +0.000 A 
ATOM      2  C   UNL     1       2.494   5.810  19.664  0.00  0.00    +0.000 A 
ATOM      3  N   UNL     1       3.219   6.561  18.899  0.00  0.00    +0.000 NA
ATOM      4  C   UNL     1       4.186   5.924  18.188  0.00  0.00    +0.000 A 
ATOM      5  N   UNL     1       5.038   6.447  17.330  0.00  0.00    +0.000 NA
ATOM      6  C   UNL     1       5.764   5.396  16.816  0.00  0.00    +0.000 A 
ATOM      7  C   UNL     1       5.377   4.218  17.425  0.00  0.00    +0.000 A 
ATOM      8  N   UNL     1       4.384   4.550  18.313  0.00  0.00    +0.000 N 
ATOM      9  C   UNL     1       3.632   3.744  19.184  0.00  0.00    +0.000 A 
ENDROOT
BRANCH   2  10
ATOM     10  O   UNL     1       1.492   6.330  20.419  0.00  0.00    +0.000 OA
ATOM     11  C   UNL     1       1.660   7.689  20.851  0.00  0.00    +0.000 C 
ENDBRANCH   2  10
BRANCH   6  12
ATOM     12  C   UNL     1       6.745   5.508  15.745  0.00  0.00    +0.000 C 
ATOM     13  O   UNL     1       7.759   6.199  15.864  0.00  0.00    +0.000 OA
BRANCH  12  14
ATOM     14  C   UNL     1       6.522   4.788  14.463  0.00  0.00    +0.000 A 
ATOM     15  C   UNL     1       7.489   4.895  13.454  0.00  0.00    +0.000 A 
ATOM     16  C   UNL     1       7.275   4.296  12.212  0.00  0.00    +0.000 A 
ATOM     17  C   UNL     1       6.089   3.605  11.966  0.00  0.00    +0.000 A 
ATOM     18  C   UNL     1       5.120   3.503  12.964  0.00  0.00    +0.000 A 
ATOM     19  C   UNL     1       5.334   4.090  14.212  0.00  0.00    +0.000 A 
ENDBRANCH  12  14
ENDBRANCH   6  12
BRANCH   9  20
ATOM     20  C   UNL     1       4.045   2.295  19.370  0.00  0.00    +0.000 C 
ATOM     21  C   UNL     1       4.776   1.987  20.667  0.00  0.00    +0.000 C 
ENDBRANCH   9  20
BRANCH   1  22
ATOM     22  C   UNL     1       1.621   3.611  20.748  0.00  0.00    +0.000 C 
BRANCH  22  24
ATOM     23  C   UNL     1       0.587   2.457  18.773  0.00  0.00    +0.000 C 
ATOM     24  C   UNL     1       0.470   3.026  19.980  0.00  0.00    +0.000 C 
ENDBRANCH  22  24
ENDBRANCH   1  22
TORSDOF 6
ENDMDL
MODEL 7
REMARK VINA RESULT:      -7.2      3.883      7.777
REMARK  Name = 
REMARK  8 active torsions:
REMARK  status: ('A' for Active; 'I' for Inactive)
REMARK    1  A    between atoms: C_2  and  C_3
REMARK    2  A    between atoms: C_3  and  C_4
REMARK    3  A    between atoms: C_5  and  O_6
REMARK    4  A    between atoms: O_6  and  C_7
REMARK    5  A    between atoms: C_11  and  C_12
REMARK    6  A    between atoms: C_12  and  C_14
REMARK    7  A    between atoms: C_22  and  C_23
REMARK    8  A    between atoms: C_23  and  C_24
REMARK                            x       y       z     vdW  Elec       q    Type
REMARK                         _______ _______ _______ _____ _____    ______ ____
ROOT
ATOM      1  C   UNL     1       3.418   5.271  18.813  0.00  0.00    +0.000 A 
ATOM      2  C   UNL     1       2.612   5.312  20.081  0.00  0.00    +0.000 A 
ATOM      3  N   UNL     1       1.924   6.304  20.545  0.00  0.00    +0.000 NA
ATOM      4  C   UNL     1       1.910   7.426  19.781  0.00  0.00    +0.000 A 
ATOM      5  N   UNL     1       1.276   8.558  20.013  0.00  0.00    +0.000 NA
ATOM      6  C   UNL     1       1.507   9.362  18.919  0.00  0.00    +0.000 A 
ATOM      7  C   UNL     1       2.349   8.718  18.034  0.00  0.00    +0.000 A 
ATOM      8  N   UNL     1       2.624   7.491  18.585  0.00  0.00    +0.000 N 
ATOM      9  C   UNL     1       3.415   6.432  18.107  0.00  0.00    +0.000 A 
ENDROOT
BRANCH   2  10
ATOM     10  O   UNL     1       2.697   4.134  20.753  0.00  0.00    +0.000 OA
ATOM     11  C   UNL     1       1.454   3.485  21.059  0.00  0.00    +0.000 C 
ENDBRANCH   2  10
BRANCH   6  12
ATOM     12  C   UNL     1       0.898  10.668  18.705  0.00  0.00    +0.000 C 
ATOM     13  O   UNL     1       1.553  11.710  18.787  0.00  0.00    +0.000 OA
BRANCH  12  14
ATOM     14  C   UNL     1      -0.553  10.762  18.395  0.00  0.00    +0.000 A 
ATOM     15  C   UNL     1      -1.321  11.729  19.059  0.00  0.00    +0.000 A 
ATOM     16  C   UNL     1      -2.699  11.794  18.850  0.00  0.00    +0.000 A 
ATOM     17  C   UNL     1      -3.318  10.884  17.994  0.00  0.00    +0.000 A 
ATOM     18  C   UNL     1      -2.560   9.915  17.337  0.00  0.00    +0.000 A 
ATOM     19  C   UNL     1      -1.180   9.853  17.534  0.00  0.00    +0.000 A 
ENDBRANCH  12  14
ENDBRANCH   6  12
BRANCH   9  20
ATOM     20  C   UNL     1       4.286   6.672  16.887  0.00  0.00    +0.000 C 
ATOM     21  C   UNL     1       5.758   6.919  17.176  0.00  0.00    +0.000 C 
ENDBRANCH   9  20
BRANCH   1  22
ATOM     22  C   UNL     1       4.088   3.989  18.394  0.00  0.00    +0.000 C 
BRANCH  22  24
ATOM     23  C   UNL     1       2.496   2.168  17.720  0.00  0.00    +0.000 C 
ATOM     24  C   UNL     1       3.290   3.198  17.397  0.00  0.00    +0.000 C 
ENDBRANCH  22  24
ENDBRANCH   1  22
TORSDOF 6
ENDMDL
MODEL 8
REMARK VINA RESULT:      -7.2      3.218      7.615
REMARK  Name = 
REMARK  8 active torsions:
REMARK  status: ('A' for Active; 'I' for Inactive)
REMARK    1  A    between atoms: C_2  and  C_3
REMARK    2  A    between atoms: C_3  and  C_4
REMARK    3  A    between atoms: C_5  and  O_6
REMARK    4  A    between atoms: O_6  and  C_7
REMARK    5  A    between atoms: C_11  and  C_12
REMARK    6  A    between atoms: C_12  and  C_14
REMARK    7  A    between atoms: C_22  and  C_23
REMARK    8  A    between atoms: C_23  and  C_24
REMARK                            x       y       z     vdW  Elec       q    Type
REMARK                         _______ _______ _______ _____ _____    ______ ____
ROOT
ATOM      1  C   UNL     1       3.821   5.058  18.893  0.00  0.00    +0.000 A 
ATOM      2  C   UNL     1       4.199   5.900  17.707  0.00  0.00    +0.000 A 
ATOM      3  N   UNL     1       3.739   7.068  17.391  0.00  0.00    +0.000 NA
ATOM      4  C   UNL     1       2.833   7.600  18.250  0.00  0.00    +0.000 A 
ATOM      5  N   UNL     1       2.233   8.771  18.174  0.00  0.00    +0.000 NA
ATOM      6  C   UNL     1       1.465   8.888  19.311  0.00  0.00    +0.000 A 
ATOM      7  C   UNL     1       1.560   7.732  20.060  0.00  0.00    +0.000 A 
ATOM      8  N   UNL     1       2.416   6.901  19.382  0.00  0.00    +0.000 N 
ATOM      9  C   UNL     1       2.875   5.610  19.696  0.00  0.00    +0.000 A 
ENDROOT
BRANCH   2  10
ATOM     10  O   UNL     1       5.115   5.267  16.928  0.00  0.00    +0.000 OA
ATOM     11  C   UNL     1       6.342   5.973  16.688  0.00  0.00    +0.000 C 
ENDBRANCH   2  10
BRANCH   6  12
ATOM     12  C   UNL     1       0.718  10.080  19.690  0.00  0.00    +0.000 C 
ATOM     13  O   UNL     1       1.085  10.809  20.613  0.00  0.00    +0.000 OA
BRANCH  12  14
ATOM     14  C   UNL     1      -0.532  10.428  18.962  0.00  0.00    +0.000 A 
ATOM     15  C   UNL     1      -0.832   9.745  17.776  0.00  0.00    +0.000 A 
ATOM     16  C   UNL     1      -1.956  10.099  17.028  0.00  0.00    +0.000 A 
ATOM     17  C   UNL     1      -2.773  11.146  17.450  0.00  0.00    +0.000 A 
ATOM     18  C   UNL     1      -2.475  11.834  18.627  0.00  0.00    +0.000 A 
ATOM     19  C   UNL     1      -1.359  11.477  19.385  0.00  0.00    +0.000 A 
ENDBRANCH  12  14
ENDBRANCH   6  12
BRANCH   9  20
ATOM     20  C   UNL     1       2.227   4.872  20.854  0.00  0.00    +0.000 C 
ATOM     21  C   UNL     1       0.967   4.095  20.508  0.00  0.00    +0.000 C 
ENDBRANCH   9  20
BRANCH   1  22
ATOM     22  C   UNL     1       4.532   3.752  19.139  0.00  0.00    +0.000 C 
BRANCH  22  24
ATOM     23  C   UNL     1       2.933   2.510  17.654  0.00  0.00    +0.000 C 
ATOM     24  C   UNL     1       3.726   2.550  18.733  0.00  0.00    +0.000 C 
ENDBRANCH  22  24
ENDBRANCH   1  22
TORSDOF 6
ENDMDL
MODEL 9
REMARK VINA RESULT:      -7.1      3.760      7.415
REMARK  Name = 
REMARK  8 active torsions:
REMARK  status: ('A' for Active; 'I' for Inactive)
REMARK    1  A    between atoms: C_2  and  C_3
REMARK    2  A    between atoms: C_3  and  C_4
REMARK    3  A    between atoms: C_5  and  O_6
REMARK    4  A    between atoms: O_6  and  C_7
REMARK    5  A    between atoms: C_11  and  C_12
REMARK    6  A    between atoms: C_12  and  C_14
REMARK    7  A    between atoms: C_22  and  C_23
REMARK    8  A    between atoms: C_23  and  C_24
REMARK                            x       y       z     vdW  Elec       q    Type
REMARK                         _______ _______ _______ _____ _____    ______ ____
ROOT
ATOM      1  C   UNL     1       3.674   4.427  19.151  0.00  0.00    +0.000 A 
ATOM      2  C   UNL     1       2.748   4.662  20.310  0.00  0.00    +0.000 A 
ATOM      3  N   UNL     1       2.094   5.744  20.590  0.00  0.00    +0.000 NA
ATOM      4  C   UNL     1       2.246   6.771  19.715  0.00  0.00    +0.000 A 
ATOM      5  N   UNL     1       1.682   7.961  19.756  0.00  0.00    +0.000 NA
ATOM      6  C   UNL     1       2.085   8.621  18.616  0.00  0.00    +0.000 A 
ATOM      7  C   UNL     1       2.961   7.827  17.903  0.00  0.00    +0.000 A 
ATOM      8  N   UNL     1       3.082   6.655  18.605  0.00  0.00    +0.000 N 
ATOM      9  C   UNL     1       3.833   5.499  18.332  0.00  0.00    +0.000 A 
ENDROOT
BRANCH   2  10
ATOM     10  O   UNL     1       2.671   3.565  21.107  0.00  0.00    +0.000 OA
ATOM     11  C   UNL     1       1.358   3.028  21.327  0.00  0.00    +0.000 C 
ENDBRANCH   2  10
BRANCH   6  12
ATOM     12  C   UNL     1       1.605   9.932  18.201  0.00  0.00    +0.000 C 
ATOM     13  O   UNL     1       2.355  10.763  17.685  0.00  0.00    +0.000 OA
BRANCH  12  14
ATOM     14  C   UNL     1       0.179  10.295  18.415  0.00  0.00    +0.000 A 
ATOM     15  C   UNL     1      -0.787   9.768  17.546  0.00  0.00    +0.000 A 
ATOM     16  C   UNL     1      -2.124  10.149  17.670  0.00  0.00    +0.000 A 
ATOM     17  C   UNL     1      -2.499  11.070  18.647  0.00  0.00    +0.000 A 
ATOM     18  C   UNL     1      -1.540  11.604  19.508  0.00  0.00    +0.000 A 
ATOM     19  C   UNL     1      -0.204  11.218  19.396  0.00  0.00    +0.000 A 
ENDBRANCH  12  14
ENDBRANCH   6  12
BRANCH   9  20
ATOM     20  C   UNL     1       4.841   5.542  17.197  0.00  0.00    +0.000 C 
ATOM     21  C   UNL     1       6.197   6.131  17.552  0.00  0.00    +0.000 C 
ENDBRANCH   9  20
BRANCH   1  22
ATOM     22  C   UNL     1       4.282   3.064  18.945  0.00  0.00    +0.000 C 
BRANCH  22  24
ATOM     23  C   UNL     1       2.191   2.355  17.749  0.00  0.00    +0.000 C 
ATOM     24  C   UNL     1       3.498   2.198  17.999  0.00  0.00    +0.000 C 
ENDBRANCH  22  24
ENDBRANCH   1  22
TORSDOF 6
ENDMDL
