MODEL 1
REMARK VINA RESULT:      -7.7      0.000      0.000
REMARK  Name = 
REMARK  4 active torsions:
REMARK  status: ('A' for Active; 'I' for Inactive)
REMARK    1  A    between atoms: C_5  and  C_6
REMARK    2  A    between atoms: C_11  and  S_12
REMARK    3  A    between atoms: S_12  and  C_13
REMARK    4  A    between atoms: C_13  and  C_14
REMARK                            x       y       z     vdW  Elec       q    Type
REMARK                         _______ _______ _______ _____ _____    ______ ____
ROOT
ATOM      1  C   UNL     1       6.581   5.759  16.778  0.00  0.00    +0.000 A 
ATOM      2  C   UNL     1       7.203   5.126  15.688  0.00  0.00    +0.000 A 
ATOM      3  C   UNL     1       6.501   4.208  14.917  0.00  0.00    +0.000 A 
ATOM      4  C   UNL     1       5.188   3.956  15.257  0.00  0.00    +0.000 A 
ATOM      5  N   UNL     1       4.556   4.557  16.287  0.00  0.00    +0.000 NA
ATOM      6  C   UNL     1       5.243   5.455  17.045  0.00  0.00    +0.000 A 
ENDROOT
BRANCH   1  11
ATOM      7  S   UNL     1       8.663  10.132  18.077  0.00  0.00    +0.000 S 
ATOM      8  C   UNL     1       8.275   8.539  18.109  0.00  0.00    +0.000 A 
ATOM      9  N   UNL     1       8.556   7.590  19.046  0.00  0.00    +0.000 N 
ATOM     10  N   UNL     1       7.998   6.399  18.699  0.00  0.00    +0.000 NA
ATOM     11  C   UNL     1       7.426   6.666  17.559  0.00  0.00    +0.000 A 
ATOM     12  O   UNL     1       7.539   7.949  17.138  0.00  0.00    +0.000 OA
ATOM     13  H   UNL     1       9.053   7.725  19.917  0.00  0.00    +0.000 HD
ENDBRANCH   1  11
BRANCH   6  14
ATOM     14  S   UNL     1       4.260   6.266  18.300  0.00  0.00    +0.000 S 
BRANCH  14  15
ATOM     15  C   UNL     1       2.612   5.574  17.923  0.00  0.00    +0.000 C 
BRANCH  15  16
ATOM     16  C   UNL     1       2.148   4.619  18.998  0.00  0.00    +0.000 A 
ATOM     17  C   UNL     1       1.343   3.517  18.666  0.00  0.00    +0.000 A 
ATOM     18  C   UNL     1       0.896   2.641  19.657  0.00  0.00    +0.000 A 
ATOM     19  C   UNL     1       1.244   2.856  20.989  0.00  0.00    +0.000 A 
ATOM     20  C   UNL     1       2.046   3.945  21.330  0.00  0.00    +0.000 A 
ATOM     21  C   UNL     1       2.496   4.822  20.341  0.00  0.00    +0.000 A 
ENDBRANCH  15  16
ENDBRANCH  14  15
ENDBRANCH   6  14
TORSDOF 4
ENDMDL
MODEL 2
REMARK VINA RESULT:      -7.6      0.138      1.083
REMARK  Name = 
REMARK  4 active torsions:
REMARK  status: ('A' for Active; 'I' for Inactive)
REMARK    1  A    between atoms: C_5  and  C_6
REMARK    2  A    between atoms: C_11  and  S_12
REMARK    3  A    between atoms: S_12  and  C_13
REMARK    4  A    between atoms: C_13  and  C_14
REMARK                            x       y       z     vdW  Elec       q    Type
REMARK                         _______ _______ _______ _____ _____    ______ ____
ROOT
ATOM      1  C   UNL     1       6.542   5.730  16.777  0.00  0.00    +0.000 A 
ATOM      2  C   UNL     1       7.162   5.079  15.696  0.00  0.00    +0.000 A 
ATOM      3  C   UNL     1       6.449   4.172  14.922  0.00  0.00    +0.000 A 
ATOM      4  C   UNL     1       5.129   3.947  15.249  0.00  0.00    +0.000 A 
ATOM      5  N   UNL     1       4.498   4.565  16.271  0.00  0.00    +0.000 NA
ATOM      6  C   UNL     1       5.196   5.453  17.031  0.00  0.00    +0.000 A 
ENDROOT
BRANCH   1  11
ATOM      7  S   UNL     1       8.670  10.073  18.099  0.00  0.00    +0.000 S 
ATOM      8  C   UNL     1       8.265   8.484  18.122  0.00  0.00    +0.000 A 
ATOM      9  N   UNL     1       8.537   7.527  19.053  0.00  0.00    +0.000 N 
ATOM     10  N   UNL     1       7.966   6.344  18.701  0.00  0.00    +0.000 NA
ATOM     11  C   UNL     1       7.396   6.623  17.563  0.00  0.00    +0.000 A 
ATOM     12  O   UNL     1       7.522   7.908  17.148  0.00  0.00    +0.000 OA
ATOM     13  H   UNL     1       9.036   7.652  19.925  0.00  0.00    +0.000 HD
ENDBRANCH   1  11
BRANCH   6  14
ATOM     14  S   UNL     1       4.216   6.288  18.273  0.00  0.00    +0.000 S 
BRANCH  14  15
ATOM     15  C   UNL     1       2.555   5.650  17.864  0.00  0.00    +0.000 C 
BRANCH  15  16
ATOM     16  C   UNL     1       2.079   4.636  18.880  0.00  0.00    +0.000 A 
ATOM     17  C   UNL     1       2.281   4.861  20.251  0.00  0.00    +0.000 A 
ATOM     18  C   UNL     1       1.861   3.921  21.194  0.00  0.00    +0.000 A 
ATOM     19  C   UNL     1       1.237   2.746  20.778  0.00  0.00    +0.000 A 
ATOM     20  C   UNL     1       1.027   2.514  19.420  0.00  0.00    +0.000 A 
ATOM     21  C   UNL     1       1.445   3.453  18.475  0.00  0.00    +0.000 A 
ENDBRANCH  15  16
ENDBRANCH  14  15
ENDBRANCH   6  14
TORSDOF 4
ENDMDL
MODEL 3
REMARK VINA RESULT:      -7.4      2.847      3.955
REMARK  Name = 
REMARK  4 active torsions:
REMARK  status: ('A' for Active; 'I' for Inactive)
REMARK    1  A    between atoms: C_5  and  C_6
REMARK    2  A    between atoms: C_11  and  S_12
REMARK    3  A    between atoms: S_12  and  C_13
REMARK    4  A    between atoms: C_13  and  C_14
REMARK                            x       y       z     vdW  Elec       q    Type
REMARK                         _______ _______ _______ _____ _____    ______ ____
ROOT
ATOM      1  C   UNL     1       6.651   4.950  16.874  0.00  0.00    +0.000 A 
ATOM      2  C   UNL     1       7.759   5.420  17.598  0.00  0.00    +0.000 A 
ATOM      3  C   UNL     1       7.655   5.655  18.964  0.00  0.00    +0.000 A 
ATOM      4  C   UNL     1       6.441   5.405  19.567  0.00  0.00    +0.000 A 
ATOM      5  N   UNL     1       5.360   4.940  18.904  0.00  0.00    +0.000 NA
ATOM      6  C   UNL     1       5.461   4.710  17.566  0.00  0.00    +0.000 A 
ENDROOT
BRANCH   1  11
ATOM      7  S   UNL     1       5.768   3.135  12.284  0.00  0.00    +0.000 S 
ATOM      8  C   UNL     1       6.438   4.025  13.487  0.00  0.00    +0.000 A 
ATOM      9  N   UNL     1       7.342   5.042  13.423  0.00  0.00    +0.000 N 
ATOM     10  N   UNL     1       7.590   5.538  14.665  0.00  0.00    +0.000 NA
ATOM     11  C   UNL     1       6.850   4.788  15.431  0.00  0.00    +0.000 A 
ATOM     12  O   UNL     1       6.109   3.852  14.790  0.00  0.00    +0.000 OA
ATOM     13  H   UNL     1       7.749   5.441  12.586  0.00  0.00    +0.000 HD
ENDBRANCH   1  11
BRANCH   6  14
ATOM     14  S   UNL     1       4.000   3.984  16.831  0.00  0.00    +0.000 S 
BRANCH  14  15
ATOM     15  C   UNL     1       3.841   2.472  17.844  0.00  0.00    +0.000 C 
BRANCH  15  16
ATOM     16  C   UNL     1       2.923   2.685  19.026  0.00  0.00    +0.000 A 
ATOM     17  C   UNL     1       1.603   3.121  18.827  0.00  0.00    +0.000 A 
ATOM     18  C   UNL     1       0.755   3.336  19.915  0.00  0.00    +0.000 A 
ATOM     19  C   UNL     1       1.216   3.122  21.212  0.00  0.00    +0.000 A 
ATOM     20  C   UNL     1       2.523   2.685  21.422  0.00  0.00    +0.000 A 
ATOM     21  C   UNL     1       3.373   2.467  20.336  0.00  0.00    +0.000 A 
ENDBRANCH  15  16
ENDBRANCH  14  15
ENDBRANCH   6  14
TORSDOF 4
ENDMDL
MODEL 4
REMARK VINA RESULT:      -7.4      2.839      4.041
REMARK  Name = 
REMARK  4 active torsions:
REMARK  status: ('A' for Active; 'I' for Inactive)
REMARK    1  A    between atoms: C_5  and  C_6
REMARK    2  A    between atoms: C_11  and  S_12
REMARK    3  A    between atoms: S_12  and  C_13
REMARK    4  A    between atoms: C_13  and  C_14
REMARK                            x       y       z     vdW  Elec       q    Type
REMARK                         _______ _______ _______ _____ _____    ______ ____
ROOT
ATOM      1  C   UNL     1       6.623   4.939  16.855  0.00  0.00    +0.000 A 
ATOM      2  C   UNL     1       7.729   5.403  17.588  0.00  0.00    +0.000 A 
ATOM      3  C   UNL     1       7.614   5.642  18.952  0.00  0.00    +0.000 A 
ATOM      4  C   UNL     1       6.392   5.404  19.545  0.00  0.00    +0.000 A 
ATOM      5  N   UNL     1       5.314   4.945  18.874  0.00  0.00    +0.000 NA
ATOM      6  C   UNL     1       5.425   4.711  17.538  0.00  0.00    +0.000 A 
ENDROOT
BRANCH   1  11
ATOM      7  S   UNL     1       5.754   3.135  12.259  0.00  0.00    +0.000 S 
ATOM      8  C   UNL     1       6.427   4.014  13.468  0.00  0.00    +0.000 A 
ATOM      9  N   UNL     1       7.351   5.014  13.411  0.00  0.00    +0.000 N 
ATOM     10  N   UNL     1       7.595   5.507  14.655  0.00  0.00    +0.000 NA
ATOM     11  C   UNL     1       6.834   4.773  15.415  0.00  0.00    +0.000 A 
ATOM     12  O   UNL     1       6.082   3.849  14.767  0.00  0.00    +0.000 OA
ATOM     13  H   UNL     1       7.773   5.404  12.579  0.00  0.00    +0.000 HD
ENDBRANCH   1  11
BRANCH   6  14
ATOM     14  S   UNL     1       3.965   3.995  16.792  0.00  0.00    +0.000 S 
BRANCH  14  15
ATOM     15  C   UNL     1       3.771   2.499  17.822  0.00  0.00    +0.000 C 
BRANCH  15  16
ATOM     16  C   UNL     1       2.900   2.761  19.030  0.00  0.00    +0.000 A 
ATOM     17  C   UNL     1       3.369   2.463  20.319  0.00  0.00    +0.000 A 
ATOM     18  C   UNL     1       2.563   2.685  21.437  0.00  0.00    +0.000 A 
ATOM     19  C   UNL     1       1.280   3.205  21.280  0.00  0.00    +0.000 A 
ATOM     20  C   UNL     1       0.804   3.508  20.005  0.00  0.00    +0.000 A 
ATOM     21  C   UNL     1       1.609   3.288  18.885  0.00  0.00    +0.000 A 
ENDBRANCH  15  16
ENDBRANCH  14  15
ENDBRANCH   6  14
TORSDOF 4
ENDMDL
MODEL 5
REMARK VINA RESULT:      -7.3      2.634      3.777
REMARK  Name = 
REMARK  4 active torsions:
REMARK  status: ('A' for Active; 'I' for Inactive)
REMARK    1  A    between atoms: C_5  and  C_6
REMARK    2  A    between atoms: C_11  and  S_12
REMARK    3  A    between atoms: S_12  and  C_13
REMARK    4  A    between atoms: C_13  and  C_14
REMARK                            x       y       z     vdW  Elec       q    Type
REMARK                         _______ _______ _______ _____ _____    ______ ____
ROOT
ATOM      1  C   UNL     1       4.575   6.291  17.390  0.00  0.00    +0.000 A 
ATOM      2  C   UNL     1       3.757   7.357  16.977  0.00  0.00    +0.000 A 
ATOM      3  C   UNL     1       2.748   7.828  17.807  0.00  0.00    +0.000 A 
ATOM      4  C   UNL     1       2.590   7.220  19.035  0.00  0.00    +0.000 A 
ATOM      5  N   UNL     1       3.367   6.204  19.469  0.00  0.00    +0.000 NA
ATOM      6  C   UNL     1       4.356   5.741  18.656  0.00  0.00    +0.000 A 
ENDROOT
BRANCH   1  11
ATOM      7  S   UNL     1       6.290   3.829  13.374  0.00  0.00    +0.000 S 
ATOM      8  C   UNL     1       6.271   4.803  14.693  0.00  0.00    +0.000 A 
ATOM      9  N   UNL     1       7.238   5.625  15.187  0.00  0.00    +0.000 N 
ATOM     10  N   UNL     1       6.782   6.295  16.279  0.00  0.00    +0.000 NA
ATOM     11  C   UNL     1       5.572   5.834  16.419  0.00  0.00    +0.000 A 
ATOM     12  O   UNL     1       5.181   4.931  15.486  0.00  0.00    +0.000 OA
ATOM     13  H   UNL     1       8.156   5.788  14.792  0.00  0.00    +0.000 HD
ENDBRANCH   1  11
BRANCH   6  14
ATOM     14  S   UNL     1       5.386   4.479  19.395  0.00  0.00    +0.000 S 
BRANCH  14  15
ATOM     15  C   UNL     1       4.546   2.974  18.789  0.00  0.00    +0.000 C 
BRANCH  15  16
ATOM     16  C   UNL     1       3.117   2.896  19.276  0.00  0.00    +0.000 A 
ATOM     17  C   UNL     1       2.060   2.799  18.358  0.00  0.00    +0.000 A 
ATOM     18  C   UNL     1       0.738   2.744  18.801  0.00  0.00    +0.000 A 
ATOM     19  C   UNL     1       0.456   2.788  20.165  0.00  0.00    +0.000 A 
ATOM     20  C   UNL     1       1.497   2.881  21.087  0.00  0.00    +0.000 A 
ATOM     21  C   UNL     1       2.821   2.934  20.647  0.00  0.00    +0.000 A 
ENDBRANCH  15  16
ENDBRANCH  14  15
ENDBRANCH   6  14
TORSDOF 4
ENDMDL
MODEL 6
REMARK VINA RESULT:      -7.2      2.625      3.906
REMARK  Name = 
REMARK  4 active torsions:
REMARK  status: ('A' for Active; 'I' for Inactive)
REMARK    1  A    between atoms: C_5  and  C_6
REMARK    2  A    between atoms: C_11  and  S_12
REMARK    3  A    between atoms: S_12  and  C_13
REMARK    4  A    between atoms: C_13  and  C_14
REMARK                            x       y       z     vdW  Elec       q    Type
REMARK                         _______ _______ _______ _____ _____    ______ ____
ROOT
ATOM      1  C   UNL     1       4.548   6.324  17.401  0.00  0.00    +0.000 A 
ATOM      2  C   UNL     1       3.718   7.379  16.985  0.00  0.00    +0.000 A 
ATOM      3  C   UNL     1       2.706   7.843  17.815  0.00  0.00    +0.000 A 
ATOM      4  C   UNL     1       2.556   7.239  19.045  0.00  0.00    +0.000 A 
ATOM      5  N   UNL     1       3.344   6.233  19.482  0.00  0.00    +0.000 NA
ATOM      6  C   UNL     1       4.336   5.776  18.669  0.00  0.00    +0.000 A 
ENDROOT
BRANCH   1  11
ATOM      7  S   UNL     1       6.281   3.860  13.393  0.00  0.00    +0.000 S 
ATOM      8  C   UNL     1       6.254   4.840  14.707  0.00  0.00    +0.000 A 
ATOM      9  N   UNL     1       7.214   5.675  15.195  0.00  0.00    +0.000 N 
ATOM     10  N   UNL     1       6.753   6.346  16.285  0.00  0.00    +0.000 NA
ATOM     11  C   UNL     1       5.547   5.873  16.430  0.00  0.00    +0.000 A 
ATOM     12  O   UNL     1       5.164   4.961  15.502  0.00  0.00    +0.000 OA
ATOM     13  H   UNL     1       8.128   5.847  14.797  0.00  0.00    +0.000 HD
ENDBRANCH   1  11
BRANCH   6  14
ATOM     14  S   UNL     1       5.381   4.528  19.411  0.00  0.00    +0.000 S 
BRANCH  14  15
ATOM     15  C   UNL     1       4.563   3.013  18.802  0.00  0.00    +0.000 C 
BRANCH  15  16
ATOM     16  C   UNL     1       3.124   2.931  19.258  0.00  0.00    +0.000 A 
ATOM     17  C   UNL     1       2.813   2.964  20.627  0.00  0.00    +0.000 A 
ATOM     18  C   UNL     1       1.487   2.872  21.056  0.00  0.00    +0.000 A 
ATOM     19  C   UNL     1       0.459   2.742  20.124  0.00  0.00    +0.000 A 
ATOM     20  C   UNL     1       0.756   2.712  18.762  0.00  0.00    +0.000 A 
ATOM     21  C   UNL     1       2.080   2.806  18.330  0.00  0.00    +0.000 A 
ENDBRANCH  15  16
ENDBRANCH  14  15
ENDBRANCH   6  14
TORSDOF 4
ENDMDL
MODEL 7
REMARK VINA RESULT:      -7.1      2.819      3.482
REMARK  Name = 
REMARK  4 active torsions:
REMARK  status: ('A' for Active; 'I' for Inactive)
REMARK    1  A    between atoms: C_5  and  C_6
REMARK    2  A    between atoms: C_11  and  S_12
REMARK    3  A    between atoms: S_12  and  C_13
REMARK    4  A    between atoms: C_13  and  C_14
REMARK                            x       y       z     vdW  Elec       q    Type
REMARK                         _______ _______ _______ _____ _____    ______ ____
ROOT
ATOM      1  C   UNL     1       4.926   5.905  17.408  0.00  0.00    +0.000 A 
ATOM      2  C   UNL     1       6.164   6.569  17.347  0.00  0.00    +0.000 A 
ATOM      3  C   UNL     1       7.256   5.959  16.743  0.00  0.00    +0.000 A 
ATOM      4  C   UNL     1       7.076   4.700  16.209  0.00  0.00    +0.000 A 
ATOM      5  N   UNL     1       5.898   4.041  16.237  0.00  0.00    +0.000 NA
ATOM      6  C   UNL     1       4.827   4.636  16.830  0.00  0.00    +0.000 A 
ENDROOT
BRANCH   1  11
ATOM      7  S   UNL     1       1.348   9.354  18.073  0.00  0.00    +0.000 S 
ATOM      8  C   UNL     1       2.322   8.067  18.363  0.00  0.00    +0.000 A 
ATOM      9  N   UNL     1       2.284   7.153  19.372  0.00  0.00    +0.000 N 
ATOM     10  N   UNL     1       3.254   6.214  19.201  0.00  0.00    +0.000 NA
ATOM     11  C   UNL     1       3.855   6.611  18.115  0.00  0.00    +0.000 A 
ATOM     12  O   UNL     1       3.340   7.724  17.538  0.00  0.00    +0.000 OA
ATOM     13  H   UNL     1       1.610   7.107  20.125  0.00  0.00    +0.000 HD
ENDBRANCH   1  11
BRANCH   6  14
ATOM     14  S   UNL     1       3.301   3.712  16.695  0.00  0.00    +0.000 S 
BRANCH  14  15
ATOM     15  C   UNL     1       3.602   2.400  17.930  0.00  0.00    +0.000 C 
BRANCH  15  16
ATOM     16  C   UNL     1       2.798   2.623  19.190  0.00  0.00    +0.000 A 
ATOM     17  C   UNL     1       1.448   2.999  19.111  0.00  0.00    +0.000 A 
ATOM     18  C   UNL     1       0.704   3.223  20.271  0.00  0.00    +0.000 A 
ATOM     19  C   UNL     1       1.300   3.078  21.522  0.00  0.00    +0.000 A 
ATOM     20  C   UNL     1       2.640   2.701  21.613  0.00  0.00    +0.000 A 
ATOM     21  C   UNL     1       3.386   2.474  20.455  0.00  0.00    +0.000 A 
ENDBRANCH  15  16
ENDBRANCH  14  15
ENDBRANCH   6  14
TORSDOF 4
ENDMDL
MODEL 8
REMARK VINA RESULT:      -7.1      2.559      3.804
REMARK  Name = 
REMARK  4 active torsions:
REMARK  status: ('A' for Active; 'I' for Inactive)
REMARK    1  A    between atoms: C_5  and  C_6
REMARK    2  A    between atoms: C_11  and  S_12
REMARK    3  A    between atoms: S_12  and  C_13
REMARK    4  A    between atoms: C_13  and  C_14
REMARK                            x       y       z     vdW  Elec       q    Type
REMARK                         _______ _______ _______ _____ _____    ______ ____
ROOT
ATOM      1  C   UNL     1       6.824   5.013  16.916  0.00  0.00    +0.000 A 
ATOM      2  C   UNL     1       7.969   4.732  17.682  0.00  0.00    +0.000 A 
ATOM      3  C   UNL     1       7.957   4.928  19.057  0.00  0.00    +0.000 A 
ATOM      4  C   UNL     1       6.793   5.395  19.629  0.00  0.00    +0.000 A 
ATOM      5  N   UNL     1       5.671   5.661  18.926  0.00  0.00    +0.000 NA
ATOM      6  C   UNL     1       5.681   5.470  17.578  0.00  0.00    +0.000 A 
ENDROOT
BRANCH   1  11
ATOM      7  S   UNL     1       5.679   3.189  12.388  0.00  0.00    +0.000 S 
ATOM      8  C   UNL     1       6.436   4.060  13.553  0.00  0.00    +0.000 A 
ATOM      9  N   UNL     1       7.383   5.033  13.441  0.00  0.00    +0.000 N 
ATOM     10  N   UNL     1       7.702   5.532  14.666  0.00  0.00    +0.000 NA
ATOM     11  C   UNL     1       6.958   4.826  15.470  0.00  0.00    +0.000 A 
ATOM     12  O   UNL     1       6.150   3.917  14.869  0.00  0.00    +0.000 OA
ATOM     13  H   UNL     1       7.774   5.403  12.584  0.00  0.00    +0.000 HD
ENDBRANCH   1  11
BRANCH   6  14
ATOM     14  S   UNL     1       4.102   5.743  16.784  0.00  0.00    +0.000 S 
BRANCH  14  15
ATOM     15  C   UNL     1       3.098   6.260  18.219  0.00  0.00    +0.000 C 
BRANCH  15  16
ATOM     16  C   UNL     1       2.309   5.107  18.795  0.00  0.00    +0.000 A 
ATOM     17  C   UNL     1       1.852   4.075  17.960  0.00  0.00    +0.000 A 
ATOM     18  C   UNL     1       1.109   3.015  18.483  0.00  0.00    +0.000 A 
ATOM     19  C   UNL     1       0.811   2.976  19.844  0.00  0.00    +0.000 A 
ATOM     20  C   UNL     1       1.262   3.993  20.684  0.00  0.00    +0.000 A 
ATOM     21  C   UNL     1       2.008   5.053  20.164  0.00  0.00    +0.000 A 
ENDBRANCH  15  16
ENDBRANCH  14  15
ENDBRANCH   6  14
TORSDOF 4
ENDMDL
MODEL 9
REMARK VINA RESULT:      -7.1      2.812      3.597
REMARK  Name = 
REMARK  4 active torsions:
REMARK  status: ('A' for Active; 'I' for Inactive)
REMARK    1  A    between atoms: C_5  and  C_6
REMARK    2  A    between atoms: C_11  and  S_12
REMARK    3  A    between atoms: S_12  and  C_13
REMARK    4  A    between atoms: C_13  and  C_14
REMARK                            x       y       z     vdW  Elec       q    Type
REMARK                         _______ _______ _______ _____ _____    ______ ____
ROOT
ATOM      1  C   UNL     1       4.967   5.830  17.572  0.00  0.00    +0.000 A 
ATOM      2  C   UNL     1       6.235   6.435  17.628  0.00  0.00    +0.000 A 
ATOM      3  C   UNL     1       7.340   5.797  17.079  0.00  0.00    +0.000 A 
ATOM      4  C   UNL     1       7.143   4.570  16.482  0.00  0.00    +0.000 A 
ATOM      5  N   UNL     1       5.938   3.967  16.398  0.00  0.00    +0.000 NA
ATOM      6  C   UNL     1       4.854   4.590  16.936  0.00  0.00    +0.000 A 
ENDROOT
BRANCH   1  11
ATOM      7  S   UNL     1       1.408   9.328  18.053  0.00  0.00    +0.000 S 
ATOM      8  C   UNL     1       2.356   8.035  18.398  0.00  0.00    +0.000 A 
ATOM      9  N   UNL     1       2.271   7.137  19.419  0.00  0.00    +0.000 N 
ATOM     10  N   UNL     1       3.236   6.186  19.298  0.00  0.00    +0.000 NA
ATOM     11  C   UNL     1       3.880   6.558  18.229  0.00  0.00    +0.000 A 
ATOM     12  O   UNL     1       3.398   7.668  17.616  0.00  0.00    +0.000 OA
ATOM     13  H   UNL     1       1.569   7.111  20.148  0.00  0.00    +0.000 HD
ENDBRANCH   1  11
BRANCH   6  14
ATOM     14  S   UNL     1       3.302   3.746  16.653  0.00  0.00    +0.000 S 
BRANCH  14  15
ATOM     15  C   UNL     1       3.465   2.358  17.828  0.00  0.00    +0.000 C 
BRANCH  15  16
ATOM     16  C   UNL     1       2.719   2.624  19.116  0.00  0.00    +0.000 A 
ATOM     17  C   UNL     1       3.377   2.510  20.351  0.00  0.00    +0.000 A 
ATOM     18  C   UNL     1       2.689   2.738  21.545  0.00  0.00    +0.000 A 
ATOM     19  C   UNL     1       1.338   3.078  21.518  0.00  0.00    +0.000 A 
ATOM     20  C   UNL     1       0.676   3.197  20.298  0.00  0.00    +0.000 A 
ATOM     21  C   UNL     1       1.361   2.972  19.102  0.00  0.00    +0.000 A 
ENDBRANCH  15  16
ENDBRANCH  14  15
ENDBRANCH   6  14
TORSDOF 4
ENDMDL
