MODEL 1
REMARK VINA RESULT:      -8.5      0.000      0.000
REMARK  Name = 
REMARK  8 active torsions:
REMARK  status: ('A' for Active; 'I' for Inactive)
REMARK    1  A    between atoms: C_1  and  O_2
REMARK    2  A    between atoms: O_2  and  C_3
REMARK    3  A    between atoms: C_6  and  C_7
REMARK    4  A    between atoms: C_7  and  C_8
REMARK    5  A    between atoms: C_8  and  N_9
REMARK    6  A    between atoms: C_10  and  C_11
REMARK    7  A    between atoms: C_28  and  O_29
REMARK    8  A    between atoms: O_29  and  C_30
REMARK                            x       y       z     vdW  Elec       q    Type
REMARK                         _______ _______ _______ _____ _____    ______ ____
ROOT
ATOM      1  N   UNL     1       5.260   4.604  17.431  0.00  0.00    +0.000 N 
ATOM      2  C   UNL     1       5.283   4.056  16.156  0.00  0.00    +0.000 A 
ATOM      3  N   UNL     1       4.319   3.161  16.013  0.00  0.00    +0.000 NA
ATOM      4  C   UNL     1       3.837   3.029  17.272  0.00  0.00    +0.000 A 
ATOM      5  N   UNL     1       2.618   2.587  17.634  0.00  0.00    +0.000 NA
ATOM      6  C   UNL     1       2.392   2.781  18.942  0.00  0.00    +0.000 A 
ATOM      7  C   UNL     1       1.128   3.161  19.346  0.00  0.00    +0.000 A 
ATOM      8  C   UNL     1       0.868   3.446  20.683  0.00  0.00    +0.000 A 
ATOM      9  C   UNL     1       1.810   3.092  21.639  0.00  0.00    +0.000 A 
ATOM     10  C   UNL     1       3.097   2.760  21.230  0.00  0.00    +0.000 A 
ATOM     11  C   UNL     1       3.421   2.923  19.895  0.00  0.00    +0.000 A 
ATOM     12  N   UNL     1       4.615   3.451  19.541  0.00  0.00    +0.000 NA
ATOM     13  C   UNL     1       4.677   3.629  18.205  0.00  0.00    +0.000 A 
ENDROOT
BRANCH   2  14
ATOM     14  C   UNL     1       6.157   4.464  15.107  0.00  0.00    +0.000 A 
ATOM     15  C   UNL     1       6.102   4.097  13.776  0.00  0.00    +0.000 A 
ATOM     16  C   UNL     1       7.196   4.712  13.130  0.00  0.00    +0.000 A 
ATOM     17  C   UNL     1       7.849   5.437  14.099  0.00  0.00    +0.000 A 
ATOM     18  O   UNL     1       7.239   5.280  15.299  0.00  0.00    +0.000 OA
ENDBRANCH   2  14
BRANCH   1  19
ATOM     19  C   UNL     1       5.237   6.055  17.645  0.00  0.00    +0.000 C 
BRANCH  19  20
ATOM     20  C   UNL     1       4.066   6.875  17.055  0.00  0.00    +0.000 C 
BRANCH  20  24
ATOM     21  C   UNL     1       1.335   8.288  20.183  0.00  0.00    +0.000 A 
ATOM     22  C   UNL     1       1.963   7.039  20.268  0.00  0.00    +0.000 A 
ATOM     23  C   UNL     1       2.836   6.578  19.266  0.00  0.00    +0.000 A 
ATOM     24  C   UNL     1       3.078   7.352  18.124  0.00  0.00    +0.000 A 
ATOM     25  C   UNL     1       2.373   8.546  18.005  0.00  0.00    +0.000 A 
ATOM     26  C   UNL     1       1.505   9.036  19.007  0.00  0.00    +0.000 A 
BRANCH  21  28
ATOM     27  C   UNL     1       1.200   9.196  22.357  0.00  0.00    +0.000 C 
ATOM     28  O   UNL     1       0.525   8.750  21.183  0.00  0.00    +0.000 OA
ENDBRANCH  21  28
BRANCH  26  29
ATOM     29  O   UNL     1       0.934  10.238  18.674  0.00  0.00    +0.000 OA
ATOM     30  C   UNL     1      -0.428  10.279  18.268  0.00  0.00    +0.000 C 
ENDBRANCH  26  29
ENDBRANCH  20  24
ENDBRANCH  19  20
ENDBRANCH   1  19
TORSDOF 6
ENDMDL
MODEL 2
REMARK VINA RESULT:      -7.2      1.801      6.754
REMARK  Name = 
REMARK  8 active torsions:
REMARK  status: ('A' for Active; 'I' for Inactive)
REMARK    1  A    between atoms: C_1  and  O_2
REMARK    2  A    between atoms: O_2  and  C_3
REMARK    3  A    between atoms: C_6  and  C_7
REMARK    4  A    between atoms: C_7  and  C_8
REMARK    5  A    between atoms: C_8  and  N_9
REMARK    6  A    between atoms: C_10  and  C_11
REMARK    7  A    between atoms: C_28  and  O_29
REMARK    8  A    between atoms: O_29  and  C_30
REMARK                            x       y       z     vdW  Elec       q    Type
REMARK                         _______ _______ _______ _____ _____    ______ ____
ROOT
ATOM      1  N   UNL     1       2.484   6.813  18.216  0.00  0.00    +0.000 N 
ATOM      2  C   UNL     1       1.964   7.605  19.230  0.00  0.00    +0.000 A 
ATOM      3  N   UNL     1       1.826   6.908  20.346  0.00  0.00    +0.000 NA
ATOM      4  C   UNL     1       2.081   5.639  19.946  0.00  0.00    +0.000 A 
ATOM      5  N   UNL     1       2.485   4.610  20.713  0.00  0.00    +0.000 NA
ATOM      6  C   UNL     1       2.849   3.553  19.970  0.00  0.00    +0.000 A 
ATOM      7  C   UNL     1       3.935   2.804  20.371  0.00  0.00    +0.000 A 
ATOM      8  C   UNL     1       4.393   1.747  19.591  0.00  0.00    +0.000 A 
ATOM      9  C   UNL     1       3.595   1.286  18.553  0.00  0.00    +0.000 A 
ATOM     10  C   UNL     1       2.532   2.069  18.119  0.00  0.00    +0.000 A 
ATOM     11  C   UNL     1       2.392   3.337  18.653  0.00  0.00    +0.000 A 
ATOM     12  N   UNL     1       2.072   4.384  17.859  0.00  0.00    +0.000 NA
ATOM     13  C   UNL     1       2.102   5.537  18.558  0.00  0.00    +0.000 A 
ENDROOT
BRANCH   2  14
ATOM     14  C   UNL     1       1.703   9.002  19.122  0.00  0.00    +0.000 A 
ATOM     15  C   UNL     1       2.019   9.837  18.068  0.00  0.00    +0.000 A 
ATOM     16  C   UNL     1       1.609  11.139  18.431  0.00  0.00    +0.000 A 
ATOM     17  C   UNL     1       1.046  11.022  19.680  0.00  0.00    +0.000 A 
ATOM     18  O   UNL     1       1.114   9.740  20.114  0.00  0.00    +0.000 OA
ENDBRANCH   2  14
BRANCH   1  19
ATOM     19  C   UNL     1       3.663   7.223  17.446  0.00  0.00    +0.000 C 
BRANCH  19  20
ATOM     20  C   UNL     1       5.011   6.516  17.720  0.00  0.00    +0.000 C 
BRANCH  20  24
ATOM     21  C   UNL     1       6.224   4.039  14.310  0.00  0.00    +0.000 A 
ATOM     22  C   UNL     1       5.116   3.706  15.101  0.00  0.00    +0.000 A 
ATOM     23  C   UNL     1       4.725   4.494  16.198  0.00  0.00    +0.000 A 
ATOM     24  C   UNL     1       5.463   5.629  16.556  0.00  0.00    +0.000 A 
ATOM     25  C   UNL     1       6.617   5.894  15.823  0.00  0.00    +0.000 A 
ATOM     26  C   UNL     1       7.018   5.126  14.707  0.00  0.00    +0.000 A 
BRANCH  21  28
ATOM     27  C   UNL     1       5.611   3.279  12.162  0.00  0.00    +0.000 C 
ATOM     28  O   UNL     1       6.571   3.295  13.216  0.00  0.00    +0.000 OA
ENDBRANCH  21  28
BRANCH  26  29
ATOM     29  O   UNL     1       8.179   5.585  14.136  0.00  0.00    +0.000 OA
ATOM     30  C   UNL     1       8.241   5.771  12.728  0.00  0.00    +0.000 C 
ENDBRANCH  26  29
ENDBRANCH  20  24
ENDBRANCH  19  20
ENDBRANCH   1  19
TORSDOF 6
ENDMDL
MODEL 3
REMARK VINA RESULT:      -7.2      2.455      5.312
REMARK  Name = 
REMARK  8 active torsions:
REMARK  status: ('A' for Active; 'I' for Inactive)
REMARK    1  A    between atoms: C_1  and  O_2
REMARK    2  A    between atoms: O_2  and  C_3
REMARK    3  A    between atoms: C_6  and  C_7
REMARK    4  A    between atoms: C_7  and  C_8
REMARK    5  A    between atoms: C_8  and  N_9
REMARK    6  A    between atoms: C_10  and  C_11
REMARK    7  A    between atoms: C_28  and  O_29
REMARK    8  A    between atoms: O_29  and  C_30
REMARK                            x       y       z     vdW  Elec       q    Type
REMARK                         _______ _______ _______ _____ _____    ______ ____
ROOT
ATOM      1  N   UNL     1       3.571   5.460  18.564  0.00  0.00    +0.000 N 
ATOM      2  C   UNL     1       3.511   4.089  18.771  0.00  0.00    +0.000 A 
ATOM      3  N   UNL     1       4.725   3.567  18.813  0.00  0.00    +0.000 NA
ATOM      4  C   UNL     1       5.514   4.600  18.434  0.00  0.00    +0.000 A 
ATOM      5  N   UNL     1       6.825   4.762  18.695  0.00  0.00    +0.000 NA
ATOM      6  C   UNL     1       7.247   5.991  18.359  0.00  0.00    +0.000 A 
ATOM      7  C   UNL     1       8.165   6.621  19.173  0.00  0.00    +0.000 A 
ATOM      8  C   UNL     1       8.573   7.923  18.903  0.00  0.00    +0.000 A 
ATOM      9  C   UNL     1       8.258   8.484  17.673  0.00  0.00    +0.000 A 
ATOM     10  C   UNL     1       7.294   7.872  16.879  0.00  0.00    +0.000 A 
ATOM     11  C   UNL     1       6.595   6.801  17.407  0.00  0.00    +0.000 A 
ATOM     12  N   UNL     1       5.261   6.692  17.214  0.00  0.00    +0.000 NA
ATOM     13  C   UNL     1       4.765   5.647  17.907  0.00  0.00    +0.000 A 
ENDROOT
BRANCH   2  14
ATOM     14  C   UNL     1       2.315   3.351  19.006  0.00  0.00    +0.000 A 
ATOM     15  C   UNL     1       1.799   2.951  20.224  0.00  0.00    +0.000 A 
ATOM     16  C   UNL     1       0.627   2.209  19.956  0.00  0.00    +0.000 A 
ATOM     17  C   UNL     1       0.481   2.215  18.589  0.00  0.00    +0.000 A 
ATOM     18  O   UNL     1       1.504   2.887  18.005  0.00  0.00    +0.000 OA
ENDBRANCH   2  14
BRANCH   1  19
ATOM     19  C   UNL     1       2.870   6.403  19.442  0.00  0.00    +0.000 C 
BRANCH  19  20
ATOM     20  C   UNL     1       2.168   7.627  18.808  0.00  0.00    +0.000 C 
BRANCH  20  24
ATOM     21  C   UNL     1       0.453  10.313  21.821  0.00  0.00    +0.000 A 
ATOM     22  C   UNL     1       0.904   9.029  22.155  0.00  0.00    +0.000 A 
ATOM     23  C   UNL     1       1.451   8.162  21.193  0.00  0.00    +0.000 A 
ATOM     24  C   UNL     1       1.528   8.549  19.849  0.00  0.00    +0.000 A 
ATOM     25  C   UNL     1       0.988   9.788  19.514  0.00  0.00    +0.000 A 
ATOM     26  C   UNL     1       0.450  10.682  20.466  0.00  0.00    +0.000 A 
BRANCH  21  28
ATOM     27  C   UNL     1      -1.435  11.073  23.016  0.00  0.00    +0.000 C 
ATOM     28  O   UNL     1      -0.034  11.169  22.770  0.00  0.00    +0.000 OA
ENDBRANCH  21  28
BRANCH  26  29
ATOM     29  O   UNL     1      -0.011  11.845  19.904  0.00  0.00    +0.000 OA
ATOM     30  C   UNL     1       0.866  12.957  19.776  0.00  0.00    +0.000 C 
ENDBRANCH  26  29
ENDBRANCH  20  24
ENDBRANCH  19  20
ENDBRANCH   1  19
TORSDOF 6
ENDMDL
MODEL 4
REMARK VINA RESULT:      -7.2      4.820      8.516
REMARK  Name = 
REMARK  8 active torsions:
REMARK  status: ('A' for Active; 'I' for Inactive)
REMARK    1  A    between atoms: C_1  and  O_2
REMARK    2  A    between atoms: O_2  and  C_3
REMARK    3  A    between atoms: C_6  and  C_7
REMARK    4  A    between atoms: C_7  and  C_8
REMARK    5  A    between atoms: C_8  and  N_9
REMARK    6  A    between atoms: C_10  and  C_11
REMARK    7  A    between atoms: C_28  and  O_29
REMARK    8  A    between atoms: O_29  and  C_30
REMARK                            x       y       z     vdW  Elec       q    Type
REMARK                         _______ _______ _______ _____ _____    ______ ____
ROOT
ATOM      1  N   UNL     1       0.683  10.102  20.223  0.00  0.00    +0.000 N 
ATOM      2  C   UNL     1       1.004   8.856  20.741  0.00  0.00    +0.000 A 
ATOM      3  N   UNL     1       0.489   8.703  21.950  0.00  0.00    +0.000 NA
ATOM      4  C   UNL     1       0.020   9.941  22.240  0.00  0.00    +0.000 A 
ATOM      5  N   UNL     1      -0.940  10.260  23.126  0.00  0.00    +0.000 NA
ATOM      6  C   UNL     1      -1.309  11.545  23.013  0.00  0.00    +0.000 A 
ATOM      7  C   UNL     1      -2.642  11.868  23.164  0.00  0.00    +0.000 A 
ATOM      8  C   UNL     1      -3.079  13.175  22.981  0.00  0.00    +0.000 A 
ATOM      9  C   UNL     1      -2.137  14.193  22.908  0.00  0.00    +0.000 A 
ATOM     10  C   UNL     1      -0.802  13.864  22.704  0.00  0.00    +0.000 A 
ATOM     11  C   UNL     1      -0.485  12.542  22.451  0.00  0.00    +0.000 A 
ATOM     12  N   UNL     1       0.419  12.225  21.496  0.00  0.00    +0.000 NA
ATOM     13  C   UNL     1       0.490  10.888  21.335  0.00  0.00    +0.000 A 
ENDROOT
BRANCH   2  14
ATOM     14  C   UNL     1       1.707   7.836  20.037  0.00  0.00    +0.000 A 
ATOM     15  C   UNL     1       2.260   7.915  18.773  0.00  0.00    +0.000 A 
ATOM     16  C   UNL     1       2.811   6.648  18.481  0.00  0.00    +0.000 A 
ATOM     17  C   UNL     1       2.582   5.871  19.591  0.00  0.00    +0.000 A 
ATOM     18  O   UNL     1       1.901   6.573  20.530  0.00  0.00    +0.000 OA
ENDBRANCH   2  14
BRANCH   1  19
ATOM     19  C   UNL     1       0.069  10.251  18.899  0.00  0.00    +0.000 C 
BRANCH  19  20
ATOM     20  C   UNL     1      -0.503  11.631  18.497  0.00  0.00    +0.000 C 
BRANCH  20  24
ATOM     21  C   UNL     1      -4.809  11.640  17.664  0.00  0.00    +0.000 A 
ATOM     22  C   UNL     1      -4.306  11.977  18.928  0.00  0.00    +0.000 A 
ATOM     23  C   UNL     1      -2.927  11.971  19.202  0.00  0.00    +0.000 A 
ATOM     24  C   UNL     1      -2.008  11.590  18.216  0.00  0.00    +0.000 A 
ATOM     25  C   UNL     1      -2.526  11.165  16.996  0.00  0.00    +0.000 A 
ATOM     26  C   UNL     1      -3.906  11.179  16.694  0.00  0.00    +0.000 A 
BRANCH  21  28
ATOM     27  C   UNL     1      -6.933  12.421  18.333  0.00  0.00    +0.000 C 
ATOM     28  O   UNL     1      -6.148  11.694  17.391  0.00  0.00    +0.000 OA
ENDBRANCH  21  28
BRANCH  26  29
ATOM     29  O   UNL     1      -4.177  10.728  15.426  0.00  0.00    +0.000 OA
ATOM     30  C   UNL     1      -3.138  10.146  14.652  0.00  0.00    +0.000 C 
ENDBRANCH  26  29
ENDBRANCH  20  24
ENDBRANCH  19  20
ENDBRANCH   1  19
TORSDOF 6
ENDMDL
MODEL 5
REMARK VINA RESULT:      -7.1      2.544      5.259
REMARK  Name = 
REMARK  8 active torsions:
REMARK  status: ('A' for Active; 'I' for Inactive)
REMARK    1  A    between atoms: C_1  and  O_2
REMARK    2  A    between atoms: O_2  and  C_3
REMARK    3  A    between atoms: C_6  and  C_7
REMARK    4  A    between atoms: C_7  and  C_8
REMARK    5  A    between atoms: C_8  and  N_9
REMARK    6  A    between atoms: C_10  and  C_11
REMARK    7  A    between atoms: C_28  and  O_29
REMARK    8  A    between atoms: O_29  and  C_30
REMARK                            x       y       z     vdW  Elec       q    Type
REMARK                         _______ _______ _______ _____ _____    ______ ____
ROOT
ATOM      1  N   UNL     1       3.807   5.419  18.567  0.00  0.00    +0.000 N 
ATOM      2  C   UNL     1       3.801   4.074  18.908  0.00  0.00    +0.000 A 
ATOM      3  N   UNL     1       5.035   3.624  19.064  0.00  0.00    +0.000 NA
ATOM      4  C   UNL     1       5.794   4.655  18.623  0.00  0.00    +0.000 A 
ATOM      5  N   UNL     1       7.078   4.911  18.933  0.00  0.00    +0.000 NA
ATOM      6  C   UNL     1       7.459   6.122  18.495  0.00  0.00    +0.000 A 
ATOM      7  C   UNL     1       8.299   6.877  19.287  0.00  0.00    +0.000 A 
ATOM      8  C   UNL     1       8.659   8.166  18.908  0.00  0.00    +0.000 A 
ATOM      9  C   UNL     1       8.386   8.585  17.613  0.00  0.00    +0.000 A 
ATOM     10  C   UNL     1       7.499   7.848  16.838  0.00  0.00    +0.000 A 
ATOM     11  C   UNL     1       6.824   6.799  17.435  0.00  0.00    +0.000 A 
ATOM     12  N   UNL     1       5.509   6.601  17.186  0.00  0.00    +0.000 NA
ATOM     13  C   UNL     1       5.025   5.604  17.955  0.00  0.00    +0.000 A 
ENDROOT
BRANCH   2  14
ATOM     14  C   UNL     1       2.630   3.301  19.155  0.00  0.00    +0.000 A 
ATOM     15  C   UNL     1       1.693   2.876  18.233  0.00  0.00    +0.000 A 
ATOM     16  C   UNL     1       0.691   2.183  18.947  0.00  0.00    +0.000 A 
ATOM     17  C   UNL     1       1.083   2.205  20.264  0.00  0.00    +0.000 A 
ATOM     18  O   UNL     1       2.243   2.892  20.403  0.00  0.00    +0.000 OA
ENDBRANCH   2  14
BRANCH   1  19
ATOM     19  C   UNL     1       3.015   6.406  19.307  0.00  0.00    +0.000 C 
BRANCH  19  20
ATOM     20  C   UNL     1       2.553   7.688  18.577  0.00  0.00    +0.000 C 
BRANCH  20  24
ATOM     21  C   UNL     1      -0.107  10.179  21.017  0.00  0.00    +0.000 A 
ATOM     22  C   UNL     1       0.509   9.035  21.540  0.00  0.00    +0.000 A 
ATOM     23  C   UNL     1       1.359   8.229  20.761  0.00  0.00    +0.000 A 
ATOM     24  C   UNL     1       1.589   8.534  19.414  0.00  0.00    +0.000 A 
ATOM     25  C   UNL     1       0.895   9.617  18.881  0.00  0.00    +0.000 A 
ATOM     26  C   UNL     1       0.050  10.449  19.649  0.00  0.00    +0.000 A 
BRANCH  21  28
ATOM     27  C   UNL     1      -1.042  10.567  23.149  0.00  0.00    +0.000 C 
ATOM     28  O   UNL     1      -0.894  10.984  21.794  0.00  0.00    +0.000 OA
ENDBRANCH  21  28
BRANCH  26  29
ATOM     29  O   UNL     1      -0.515  11.460  18.912  0.00  0.00    +0.000 OA
ATOM     30  C   UNL     1      -1.908  11.430  18.634  0.00  0.00    +0.000 C 
ENDBRANCH  26  29
ENDBRANCH  20  24
ENDBRANCH  19  20
ENDBRANCH   1  19
TORSDOF 6
ENDMDL
MODEL 6
REMARK VINA RESULT:      -7.0      2.569      5.473
REMARK  Name = 
REMARK  8 active torsions:
REMARK  status: ('A' for Active; 'I' for Inactive)
REMARK    1  A    between atoms: C_1  and  O_2
REMARK    2  A    between atoms: O_2  and  C_3
REMARK    3  A    between atoms: C_6  and  C_7
REMARK    4  A    between atoms: C_7  and  C_8
REMARK    5  A    between atoms: C_8  and  N_9
REMARK    6  A    between atoms: C_10  and  C_11
REMARK    7  A    between atoms: C_28  and  O_29
REMARK    8  A    between atoms: O_29  and  C_30
REMARK                            x       y       z     vdW  Elec       q    Type
REMARK                         _______ _______ _______ _____ _____    ______ ____
ROOT
ATOM      1  N   UNL     1       3.813   5.448  18.512  0.00  0.00    +0.000 N 
ATOM      2  C   UNL     1       3.804   4.115  18.898  0.00  0.00    +0.000 A 
ATOM      3  N   UNL     1       5.036   3.678  19.104  0.00  0.00    +0.000 NA
ATOM      4  C   UNL     1       5.801   4.699  18.650  0.00  0.00    +0.000 A 
ATOM      5  N   UNL     1       7.075   4.973  18.987  0.00  0.00    +0.000 NA
ATOM      6  C   UNL     1       7.462   6.171  18.520  0.00  0.00    +0.000 A 
ATOM      7  C   UNL     1       8.275   6.958  19.309  0.00  0.00    +0.000 A 
ATOM      8  C   UNL     1       8.638   8.236  18.898  0.00  0.00    +0.000 A 
ATOM      9  C   UNL     1       8.400   8.610  17.582  0.00  0.00    +0.000 A 
ATOM     10  C   UNL     1       7.538   7.841  16.807  0.00  0.00    +0.000 A 
ATOM     11  C   UNL     1       6.852   6.808  17.420  0.00  0.00    +0.000 A 
ATOM     12  N   UNL     1       5.546   6.594  17.141  0.00  0.00    +0.000 NA
ATOM     13  C   UNL     1       5.046   5.620  17.929  0.00  0.00    +0.000 A 
ENDROOT
BRANCH   2  14
ATOM     14  C   UNL     1       2.631   3.343  19.138  0.00  0.00    +0.000 A 
ATOM     15  C   UNL     1       1.681   2.948  18.215  0.00  0.00    +0.000 A 
ATOM     16  C   UNL     1       0.683   2.243  18.922  0.00  0.00    +0.000 A 
ATOM     17  C   UNL     1       1.089   2.228  20.236  0.00  0.00    +0.000 A 
ATOM     18  O   UNL     1       2.255   2.904  20.379  0.00  0.00    +0.000 OA
ENDBRANCH   2  14
BRANCH   1  19
ATOM     19  C   UNL     1       2.994   6.454  19.197  0.00  0.00    +0.000 C 
BRANCH  19  20
ATOM     20  C   UNL     1       2.059   7.351  18.353  0.00  0.00    +0.000 C 
BRANCH  20  24
ATOM     21  C   UNL     1       0.784  11.012  20.404  0.00  0.00    +0.000 A 
ATOM     22  C   UNL     1       1.038  10.994  19.027  0.00  0.00    +0.000 A 
ATOM     23  C   UNL     1       1.451   9.825  18.364  0.00  0.00    +0.000 A 
ATOM     24  C   UNL     1       1.657   8.638  19.079  0.00  0.00    +0.000 A 
ATOM     25  C   UNL     1       1.495   8.694  20.461  0.00  0.00    +0.000 A 
ATOM     26  C   UNL     1       1.064   9.852  21.144  0.00  0.00    +0.000 A 
BRANCH  21  28
ATOM     27  C   UNL     1      -1.039  12.452  20.821  0.00  0.00    +0.000 C 
ATOM     28  O   UNL     1       0.336  12.140  21.034  0.00  0.00    +0.000 OA
ENDBRANCH  21  28
BRANCH  26  29
ATOM     29  O   UNL     1       0.965   9.664  22.500  0.00  0.00    +0.000 OA
ATOM     30  C   UNL     1      -0.319   9.606  23.107  0.00  0.00    +0.000 C 
ENDBRANCH  26  29
ENDBRANCH  20  24
ENDBRANCH  19  20
ENDBRANCH   1  19
TORSDOF 6
ENDMDL
MODEL 7
REMARK VINA RESULT:      -6.9      4.993      8.657
REMARK  Name = 
REMARK  8 active torsions:
REMARK  status: ('A' for Active; 'I' for Inactive)
REMARK    1  A    between atoms: C_1  and  O_2
REMARK    2  A    between atoms: O_2  and  C_3
REMARK    3  A    between atoms: C_6  and  C_7
REMARK    4  A    between atoms: C_7  and  C_8
REMARK    5  A    between atoms: C_8  and  N_9
REMARK    6  A    between atoms: C_10  and  C_11
REMARK    7  A    between atoms: C_28  and  O_29
REMARK    8  A    between atoms: O_29  and  C_30
REMARK                            x       y       z     vdW  Elec       q    Type
REMARK                         _______ _______ _______ _____ _____    ______ ____
ROOT
ATOM      1  N   UNL     1       0.611  10.256  20.138  0.00  0.00    +0.000 N 
ATOM      2  C   UNL     1       1.036   9.030  20.631  0.00  0.00    +0.000 A 
ATOM      3  N   UNL     1       0.622   8.856  21.876  0.00  0.00    +0.000 NA
ATOM      4  C   UNL     1       0.113  10.069  22.200  0.00  0.00    +0.000 A 
ATOM      5  N   UNL     1      -0.793  10.341  23.157  0.00  0.00    +0.000 NA
ATOM      6  C   UNL     1      -1.236  11.605  23.072  0.00  0.00    +0.000 A 
ATOM      7  C   UNL     1      -2.568  11.859  23.324  0.00  0.00    +0.000 A 
ATOM      8  C   UNL     1      -3.085  13.141  23.174  0.00  0.00    +0.000 A 
ATOM      9  C   UNL     1      -2.206  14.206  23.030  0.00  0.00    +0.000 A 
ATOM     10  C   UNL     1      -0.875  13.946  22.725  0.00  0.00    +0.000 A 
ATOM     11  C   UNL     1      -0.509  12.641  22.449  0.00  0.00    +0.000 A 
ATOM     12  N   UNL     1       0.334  12.368  21.428  0.00  0.00    +0.000 NA
ATOM     13  C   UNL     1       0.463  11.035  21.262  0.00  0.00    +0.000 A 
ENDROOT
BRANCH   2  14
ATOM     14  C   UNL     1       1.735   8.045  19.877  0.00  0.00    +0.000 A 
ATOM     15  C   UNL     1       2.252   8.173  18.601  0.00  0.00    +0.000 A 
ATOM     16  C   UNL     1       2.815   6.926  18.253  0.00  0.00    +0.000 A 
ATOM     17  C   UNL     1       2.629   6.110  19.344  0.00  0.00    +0.000 A 
ATOM     18  O   UNL     1       1.962   6.770  20.322  0.00  0.00    +0.000 OA
ENDBRANCH   2  14
BRANCH   1  19
ATOM     19  C   UNL     1      -0.108  10.367  18.866  0.00  0.00    +0.000 C 
BRANCH  19  20
ATOM     20  C   UNL     1      -0.701  11.738  18.464  0.00  0.00    +0.000 C 
BRANCH  20  24
ATOM     21  C   UNL     1      -5.067  11.529  18.107  0.00  0.00    +0.000 A 
ATOM     22  C   UNL     1      -4.226  11.129  17.060  0.00  0.00    +0.000 A 
ATOM     23  C   UNL     1      -2.826  11.198  17.167  0.00  0.00    +0.000 A 
ATOM     24  C   UNL     1      -2.225  11.708  18.325  0.00  0.00    +0.000 A 
ATOM     25  C   UNL     1      -3.073  12.192  19.318  0.00  0.00    +0.000 A 
ATOM     26  C   UNL     1      -4.481  12.117  19.239  0.00  0.00    +0.000 A 
BRANCH  21  28
ATOM     27  C   UNL     1      -7.102  12.567  17.516  0.00  0.00    +0.000 C 
ATOM     28  O   UNL     1      -6.426  11.415  18.014  0.00  0.00    +0.000 OA
ENDBRANCH  21  28
BRANCH  26  29
ATOM     29  O   UNL     1      -5.105  12.644  20.341  0.00  0.00    +0.000 OA
ATOM     30  C   UNL     1      -5.291  14.050  20.436  0.00  0.00    +0.000 C 
ENDBRANCH  26  29
ENDBRANCH  20  24
ENDBRANCH  19  20
ENDBRANCH   1  19
TORSDOF 6
ENDMDL
MODEL 8
REMARK VINA RESULT:      -6.9      0.819      1.747
REMARK  Name = 
REMARK  8 active torsions:
REMARK  status: ('A' for Active; 'I' for Inactive)
REMARK    1  A    between atoms: C_1  and  O_2
REMARK    2  A    between atoms: O_2  and  C_3
REMARK    3  A    between atoms: C_6  and  C_7
REMARK    4  A    between atoms: C_7  and  C_8
REMARK    5  A    between atoms: C_8  and  N_9
REMARK    6  A    between atoms: C_10  and  C_11
REMARK    7  A    between atoms: C_28  and  O_29
REMARK    8  A    between atoms: O_29  and  C_30
REMARK                            x       y       z     vdW  Elec       q    Type
REMARK                         _______ _______ _______ _____ _____    ______ ____
ROOT
ATOM      1  N   UNL     1       5.133   4.538  17.681  0.00  0.00    +0.000 N 
ATOM      2  C   UNL     1       5.243   4.012  16.402  0.00  0.00    +0.000 A 
ATOM      3  N   UNL     1       4.355   3.050  16.212  0.00  0.00    +0.000 NA
ATOM      4  C   UNL     1       3.840   2.862  17.451  0.00  0.00    +0.000 A 
ATOM      5  N   UNL     1       2.647   2.324  17.762  0.00  0.00    +0.000 NA
ATOM      6  C   UNL     1       2.359   2.481  19.064  0.00  0.00    +0.000 A 
ATOM      7  C   UNL     1       1.057   2.758  19.425  0.00  0.00    +0.000 A 
ATOM      8  C   UNL     1       0.728   3.002  20.755  0.00  0.00    +0.000 A 
ATOM      9  C   UNL     1       1.660   2.706  21.741  0.00  0.00    +0.000 A 
ATOM     10  C   UNL     1       2.981   2.478  21.375  0.00  0.00    +0.000 A 
ATOM     11  C   UNL     1       3.340   2.685  20.055  0.00  0.00    +0.000 A 
ATOM     12  N   UNL     1       4.502   3.307  19.752  0.00  0.00    +0.000 NA
ATOM     13  C   UNL     1       4.598   3.509  18.422  0.00  0.00    +0.000 A 
ENDROOT
BRANCH   2  14
ATOM     14  C   UNL     1       6.120   4.502  15.391  0.00  0.00    +0.000 A 
ATOM     15  C   UNL     1       6.077   4.230  14.037  0.00  0.00    +0.000 A 
ATOM     16  C   UNL     1       7.171   4.898  13.444  0.00  0.00    +0.000 A 
ATOM     17  C   UNL     1       7.810   5.557  14.467  0.00  0.00    +0.000 A 
ATOM     18  O   UNL     1       7.194   5.310  15.649  0.00  0.00    +0.000 OA
ENDBRANCH   2  14
BRANCH   1  19
ATOM     19  C   UNL     1       4.992   5.979  17.913  0.00  0.00    +0.000 C 
BRANCH  19  20
ATOM     20  C   UNL     1       4.032   6.787  17.009  0.00  0.00    +0.000 C 
BRANCH  20  24
ATOM     21  C   UNL     1       1.232   9.338  19.220  0.00  0.00    +0.000 A 
ATOM     22  C   UNL     1       1.811   9.758  18.016  0.00  0.00    +0.000 A 
ATOM     23  C   UNL     1       2.713   8.947  17.304  0.00  0.00    +0.000 A 
ATOM     24  C   UNL     1       3.089   7.694  17.805  0.00  0.00    +0.000 A 
ATOM     25  C   UNL     1       2.582   7.330  19.050  0.00  0.00    +0.000 A 
ATOM     26  C   UNL     1       1.662   8.121  19.772  0.00  0.00    +0.000 A 
BRANCH  21  28
ATOM     27  C   UNL     1       0.013  11.358  19.260  0.00  0.00    +0.000 C 
ATOM     28  O   UNL     1       0.319  10.112  19.882  0.00  0.00    +0.000 OA
ENDBRANCH  21  28
BRANCH  26  29
ATOM     29  O   UNL     1       1.293   7.552  20.965  0.00  0.00    +0.000 OA
ATOM     30  C   UNL     1       1.546   6.172  21.192  0.00  0.00    +0.000 C 
ENDBRANCH  26  29
ENDBRANCH  20  24
ENDBRANCH  19  20
ENDBRANCH   1  19
TORSDOF 6
ENDMDL
MODEL 9
REMARK VINA RESULT:      -6.8      6.997     11.260
REMARK  Name = 
REMARK  8 active torsions:
REMARK  status: ('A' for Active; 'I' for Inactive)
REMARK    1  A    between atoms: C_1  and  O_2
REMARK    2  A    between atoms: O_2  and  C_3
REMARK    3  A    between atoms: C_6  and  C_7
REMARK    4  A    between atoms: C_7  and  C_8
REMARK    5  A    between atoms: C_8  and  N_9
REMARK    6  A    between atoms: C_10  and  C_11
REMARK    7  A    between atoms: C_28  and  O_29
REMARK    8  A    between atoms: O_29  and  C_30
REMARK                            x       y       z     vdW  Elec       q    Type
REMARK                         _______ _______ _______ _____ _____    ______ ____
ROOT
ATOM      1  N   UNL     1      -4.490  12.140  19.725  0.00  0.00    +0.000 N 
ATOM      2  C   UNL     1      -5.033  11.658  18.542  0.00  0.00    +0.000 A 
ATOM      3  N   UNL     1      -6.333  11.896  18.493  0.00  0.00    +0.000 NA
ATOM      4  C   UNL     1      -6.608  12.349  19.739  0.00  0.00    +0.000 A 
ATOM      5  N   UNL     1      -7.651  13.112  20.115  0.00  0.00    +0.000 NA
ATOM      6  C   UNL     1      -7.508  13.556  21.374  0.00  0.00    +0.000 A 
ATOM      7  C   UNL     1      -7.916  14.839  21.674  0.00  0.00    +0.000 A 
ATOM      8  C   UNL     1      -7.718  15.365  22.947  0.00  0.00    +0.000 A 
ATOM      9  C   UNL     1      -7.355  14.509  23.977  0.00  0.00    +0.000 A 
ATOM     10  C   UNL     1      -6.896  13.234  23.666  0.00  0.00    +0.000 A 
ATOM     11  C   UNL     1      -6.697  12.917  22.334  0.00  0.00    +0.000 A 
ATOM     12  N   UNL     1      -5.600  12.225  21.952  0.00  0.00    +0.000 NA
ATOM     13  C   UNL     1      -5.544  12.128  20.608  0.00  0.00    +0.000 A 
ENDROOT
BRANCH   2  14
ATOM     14  C   UNL     1      -4.285  11.075  17.479  0.00  0.00    +0.000 A 
ATOM     15  C   UNL     1      -3.541   9.911  17.514  0.00  0.00    +0.000 A 
ATOM     16  C   UNL     1      -2.944   9.761  16.244  0.00  0.00    +0.000 A 
ATOM     17  C   UNL     1      -3.373  10.832  15.496  0.00  0.00    +0.000 A 
ATOM     18  O   UNL     1      -4.169  11.640  16.238  0.00  0.00    +0.000 OA
ENDBRANCH   2  14
BRANCH   1  19
ATOM     19  C   UNL     1      -3.323  13.028  19.732  0.00  0.00    +0.000 C 
BRANCH  19  20
ATOM     20  C   UNL     1      -2.216  12.794  20.786  0.00  0.00    +0.000 C 
BRANCH  20  24
ATOM     21  C   UNL     1       0.710   9.744  19.614  0.00  0.00    +0.000 A 
ATOM     22  C   UNL     1       0.072  10.551  18.663  0.00  0.00    +0.000 A 
ATOM     23  C   UNL     1      -0.871  11.527  19.032  0.00  0.00    +0.000 A 
ATOM     24  C   UNL     1      -1.227  11.698  20.376  0.00  0.00    +0.000 A 
ATOM     25  C   UNL     1      -0.658  10.826  21.299  0.00  0.00    +0.000 A 
ATOM     26  C   UNL     1       0.303   9.850  20.953  0.00  0.00    +0.000 A 
BRANCH  21  28
ATOM     27  C   UNL     1       2.095   8.907  17.896  0.00  0.00    +0.000 C 
ATOM     28  O   UNL     1       1.660   8.830  19.252  0.00  0.00    +0.000 OA
ENDBRANCH  21  28
BRANCH  26  29
ATOM     29  O   UNL     1       0.730   9.117  22.031  0.00  0.00    +0.000 OA
ATOM     30  C   UNL     1       0.167   9.363  23.313  0.00  0.00    +0.000 C 
ENDBRANCH  26  29
ENDBRANCH  20  24
ENDBRANCH  19  20
ENDBRANCH   1  19
TORSDOF 6
ENDMDL
