MODEL 1
REMARK VINA RESULT:      -7.3      0.000      0.000
REMARK  Name = 
REMARK  2 active torsions:
REMARK  status: ('A' for Active; 'I' for Inactive)
REMARK    1  A    between atoms: C_1  and  C_2
REMARK    2  A    between atoms: C_8  and  C_9
REMARK                            x       y       z     vdW  Elec       q    Type
REMARK                         _______ _______ _______ _____ _____    ______ ____
ROOT
ATOM      1  C   UNL     1       7.555   6.681  18.060  0.00  0.00    +0.000 C 
ATOM      2  C   UNL     1       6.902   5.709  17.111  0.00  0.00    +0.000 A 
ATOM      3  C   UNL     1       7.402   5.534  15.863  0.00  0.00    +0.000 A 
ATOM      4  C   UNL     1       6.820   4.603  14.907  0.00  0.00    +0.000 A 
ATOM      5  C   UNL     1       5.753   3.878  15.272  0.00  0.00    +0.000 A 
ATOM      6  N   UNL     1       5.234   4.043  16.551  0.00  0.00    +0.000 N 
ATOM      7  C   UNL     1       4.171   3.412  17.142  0.00  0.00    +0.000 A 
ATOM      8  C   UNL     1       4.081   3.947  18.409  0.00  0.00    +0.000 A 
ATOM      9  N   UNL     1       5.052   4.903  18.604  0.00  0.00    +0.000 NA
ATOM     10  C   UNL     1       5.749   4.932  17.486  0.00  0.00    +0.000 A 
ENDROOT
BRANCH   8  11
ATOM     11  C   UNL     1       3.088   3.592  19.407  0.00  0.00    +0.000 A 
ATOM     12  C   UNL     1       1.738   3.939  19.248  0.00  0.00    +0.000 A 
ATOM     13  C   UNL     1       0.800   3.608  20.229  0.00  0.00    +0.000 A 
ATOM     14  C   UNL     1       1.202   2.928  21.377  0.00  0.00    +0.000 A 
ATOM     15  C   UNL     1       2.538   2.566  21.538  0.00  0.00    +0.000 A 
ATOM     16  C   UNL     1       3.476   2.890  20.555  0.00  0.00    +0.000 A 
ENDBRANCH   8  11
TORSDOF 1
ENDMDL
MODEL 2
REMARK VINA RESULT:      -7.1      0.222      1.226
REMARK  Name = 
REMARK  2 active torsions:
REMARK  status: ('A' for Active; 'I' for Inactive)
REMARK    1  A    between atoms: C_1  and  C_2
REMARK    2  A    between atoms: C_8  and  C_9
REMARK                            x       y       z     vdW  Elec       q    Type
REMARK                         _______ _______ _______ _____ _____    ______ ____
ROOT
ATOM      1  C   UNL     1       7.743   6.310  18.259  0.00  0.00    +0.000 C 
ATOM      2  C   UNL     1       6.932   5.550  17.241  0.00  0.00    +0.000 A 
ATOM      3  C   UNL     1       7.338   5.492  15.950  0.00  0.00    +0.000 A 
ATOM      4  C   UNL     1       6.600   4.766  14.926  0.00  0.00    +0.000 A 
ATOM      5  C   UNL     1       5.479   4.116  15.270  0.00  0.00    +0.000 A 
ATOM      6  N   UNL     1       5.054   4.161  16.592  0.00  0.00    +0.000 N 
ATOM      7  C   UNL     1       3.961   3.573  17.170  0.00  0.00    +0.000 A 
ATOM      8  C   UNL     1       4.003   3.939  18.499  0.00  0.00    +0.000 A 
ATOM      9  N   UNL     1       5.087   4.751  18.746  0.00  0.00    +0.000 NA
ATOM     10  C   UNL     1       5.720   4.857  17.594  0.00  0.00    +0.000 A 
ENDROOT
BRANCH   8  11
ATOM     11  C   UNL     1       3.033   3.560  19.510  0.00  0.00    +0.000 A 
ATOM     12  C   UNL     1       3.424   2.893  20.681  0.00  0.00    +0.000 A 
ATOM     13  C   UNL     1       2.474   2.516  21.633  0.00  0.00    +0.000 A 
ATOM     14  C   UNL     1       1.126   2.800  21.425  0.00  0.00    +0.000 A 
ATOM     15  C   UNL     1       0.728   3.475  20.271  0.00  0.00    +0.000 A 
ATOM     16  C   UNL     1       1.678   3.859  19.322  0.00  0.00    +0.000 A 
ENDBRANCH   8  11
TORSDOF 1
ENDMDL
MODEL 3
REMARK VINA RESULT:      -6.9      1.422      5.853
REMARK  Name = 
REMARK  2 active torsions:
REMARK  status: ('A' for Active; 'I' for Inactive)
REMARK    1  A    between atoms: C_1  and  C_2
REMARK    2  A    between atoms: C_8  and  C_9
REMARK                            x       y       z     vdW  Elec       q    Type
REMARK                         _______ _______ _______ _____ _____    ______ ____
ROOT
ATOM      1  C   UNL     1       1.870   6.377  20.451  0.00  0.00    +0.000 C 
ATOM      2  C   UNL     1       1.932   4.916  20.092  0.00  0.00    +0.000 A 
ATOM      3  C   UNL     1       1.149   4.019  20.740  0.00  0.00    +0.000 A 
ATOM      4  C   UNL     1       1.159   2.597  20.430  0.00  0.00    +0.000 A 
ATOM      5  C   UNL     1       1.965   2.150  19.457  0.00  0.00    +0.000 A 
ATOM      6  N   UNL     1       2.769   3.058  18.779  0.00  0.00    +0.000 N 
ATOM      7  C   UNL     1       3.652   2.837  17.755  0.00  0.00    +0.000 A 
ATOM      8  C   UNL     1       4.188   4.071  17.456  0.00  0.00    +0.000 A 
ATOM      9  N   UNL     1       3.668   5.042  18.282  0.00  0.00    +0.000 NA
ATOM     10  C   UNL     1       2.801   4.419  19.057  0.00  0.00    +0.000 A 
ENDROOT
BRANCH   8  11
ATOM     11  C   UNL     1       5.188   4.333  16.436  0.00  0.00    +0.000 A 
ATOM     12  C   UNL     1       4.966   3.991  15.094  0.00  0.00    +0.000 A 
ATOM     13  C   UNL     1       5.948   4.229  14.129  0.00  0.00    +0.000 A 
ATOM     14  C   UNL     1       7.160   4.810  14.497  0.00  0.00    +0.000 A 
ATOM     15  C   UNL     1       7.386   5.167  15.825  0.00  0.00    +0.000 A 
ATOM     16  C   UNL     1       6.402   4.935  16.789  0.00  0.00    +0.000 A 
ENDBRANCH   8  11
TORSDOF 1
ENDMDL
MODEL 4
REMARK VINA RESULT:      -6.9      1.415      5.918
REMARK  Name = 
REMARK  2 active torsions:
REMARK  status: ('A' for Active; 'I' for Inactive)
REMARK    1  A    between atoms: C_1  and  C_2
REMARK    2  A    between atoms: C_8  and  C_9
REMARK                            x       y       z     vdW  Elec       q    Type
REMARK                         _______ _______ _______ _____ _____    ______ ____
ROOT
ATOM      1  C   UNL     1       1.966   6.581  20.387  0.00  0.00    +0.000 C 
ATOM      2  C   UNL     1       1.967   5.120  20.020  0.00  0.00    +0.000 A 
ATOM      3  C   UNL     1       1.138   4.256  20.655  0.00  0.00    +0.000 A 
ATOM      4  C   UNL     1       1.088   2.837  20.336  0.00  0.00    +0.000 A 
ATOM      5  C   UNL     1       1.883   2.359  19.368  0.00  0.00    +0.000 A 
ATOM      6  N   UNL     1       2.733   3.235  18.703  0.00  0.00    +0.000 N 
ATOM      7  C   UNL     1       3.615   2.981  17.686  0.00  0.00    +0.000 A 
ATOM      8  C   UNL     1       4.208   4.191  17.400  0.00  0.00    +0.000 A 
ATOM      9  N   UNL     1       3.724   5.179  18.227  0.00  0.00    +0.000 NA
ATOM     10  C   UNL     1       2.823   4.592  18.990  0.00  0.00    +0.000 A 
ENDROOT
BRANCH   8  11
ATOM     11  C   UNL     1       5.229   4.414  16.391  0.00  0.00    +0.000 A 
ATOM     12  C   UNL     1       6.356   5.205  16.656  0.00  0.00    +0.000 A 
ATOM     13  C   UNL     1       7.316   5.427  15.667  0.00  0.00    +0.000 A 
ATOM     14  C   UNL     1       7.159   4.860  14.403  0.00  0.00    +0.000 A 
ATOM     15  C   UNL     1       6.050   4.061  14.133  0.00  0.00    +0.000 A 
ATOM     16  C   UNL     1       5.093   3.833  15.124  0.00  0.00    +0.000 A 
ENDBRANCH   8  11
TORSDOF 1
ENDMDL
MODEL 5
REMARK VINA RESULT:      -6.7      1.880      5.712
REMARK  Name = 
REMARK  2 active torsions:
REMARK  status: ('A' for Active; 'I' for Inactive)
REMARK    1  A    between atoms: C_1  and  C_2
REMARK    2  A    between atoms: C_8  and  C_9
REMARK                            x       y       z     vdW  Elec       q    Type
REMARK                         _______ _______ _______ _____ _____    ______ ____
ROOT
ATOM      1  C   UNL     1       2.217   3.185  22.034  0.00  0.00    +0.000 C 
ATOM      2  C   UNL     1       1.987   3.202  20.545  0.00  0.00    +0.000 A 
ATOM      3  C   UNL     1       0.898   2.592  20.016  0.00  0.00    +0.000 A 
ATOM      4  C   UNL     1       0.619   2.583  18.587  0.00  0.00    +0.000 A 
ATOM      5  C   UNL     1       1.461   3.213  17.756  0.00  0.00    +0.000 A 
ATOM      6  N   UNL     1       2.578   3.849  18.285  0.00  0.00    +0.000 N 
ATOM      7  C   UNL     1       3.558   4.556  17.640  0.00  0.00    +0.000 A 
ATOM      8  C   UNL     1       4.428   4.967  18.627  0.00  0.00    +0.000 A 
ATOM      9  N   UNL     1       4.013   4.517  19.860  0.00  0.00    +0.000 NA
ATOM     10  C   UNL     1       2.889   3.865  19.639  0.00  0.00    +0.000 A 
ENDROOT
BRANCH   8  11
ATOM     11  C   UNL     1       5.637   5.743  18.418  0.00  0.00    +0.000 A 
ATOM     12  C   UNL     1       5.702   6.739  17.432  0.00  0.00    +0.000 A 
ATOM     13  C   UNL     1       6.881   7.460  17.228  0.00  0.00    +0.000 A 
ATOM     14  C   UNL     1       8.005   7.193  18.008  0.00  0.00    +0.000 A 
ATOM     15  C   UNL     1       7.947   6.216  19.000  0.00  0.00    +0.000 A 
ATOM     16  C   UNL     1       6.766   5.499  19.209  0.00  0.00    +0.000 A 
ENDBRANCH   8  11
TORSDOF 1
ENDMDL
MODEL 6
REMARK VINA RESULT:      -6.7      1.882      5.753
REMARK  Name = 
REMARK  2 active torsions:
REMARK  status: ('A' for Active; 'I' for Inactive)
REMARK    1  A    between atoms: C_1  and  C_2
REMARK    2  A    between atoms: C_8  and  C_9
REMARK                            x       y       z     vdW  Elec       q    Type
REMARK                         _______ _______ _______ _____ _____    ______ ____
ROOT
ATOM      1  C   UNL     1       0.923   4.914  20.652  0.00  0.00    +0.000 C 
ATOM      2  C   UNL     1       1.571   3.945  19.697  0.00  0.00    +0.000 A 
ATOM      3  C   UNL     1       0.936   2.799  19.351  0.00  0.00    +0.000 A 
ATOM      4  C   UNL     1       1.509   1.831  18.427  0.00  0.00    +0.000 A 
ATOM      5  C   UNL     1       2.709   2.082  17.883  0.00  0.00    +0.000 A 
ATOM      6  N   UNL     1       3.369   3.256  18.224  0.00  0.00    +0.000 N 
ATOM      7  C   UNL     1       4.582   3.724  17.792  0.00  0.00    +0.000 A 
ATOM      8  C   UNL     1       4.767   4.926  18.441  0.00  0.00    +0.000 A 
ATOM      9  N   UNL     1       3.705   5.200  19.273  0.00  0.00    +0.000 NA
ATOM     10  C   UNL     1       2.864   4.196  19.114  0.00  0.00    +0.000 A 
ENDROOT
BRANCH   8  11
ATOM     11  C   UNL     1       5.928   5.788  18.307  0.00  0.00    +0.000 A 
ATOM     12  C   UNL     1       7.054   5.628  19.127  0.00  0.00    +0.000 A 
ATOM     13  C   UNL     1       8.152   6.480  18.999  0.00  0.00    +0.000 A 
ATOM     14  C   UNL     1       8.136   7.501  18.051  0.00  0.00    +0.000 A 
ATOM     15  C   UNL     1       7.028   7.661  17.221  0.00  0.00    +0.000 A 
ATOM     16  C   UNL     1       5.932   6.805  17.344  0.00  0.00    +0.000 A 
ENDBRANCH   8  11
TORSDOF 1
ENDMDL
MODEL 7
REMARK VINA RESULT:      -6.7      1.954      2.372
REMARK  Name = 
REMARK  2 active torsions:
REMARK  status: ('A' for Active; 'I' for Inactive)
REMARK    1  A    between atoms: C_1  and  C_2
REMARK    2  A    between atoms: C_8  and  C_9
REMARK                            x       y       z     vdW  Elec       q    Type
REMARK                         _______ _______ _______ _____ _____    ______ ____
ROOT
ATOM      1  C   UNL     1       8.277   5.269  20.273  0.00  0.00    +0.000 C 
ATOM      2  C   UNL     1       7.528   5.958  19.162  0.00  0.00    +0.000 A 
ATOM      3  C   UNL     1       8.143   6.897  18.403  0.00  0.00    +0.000 A 
ATOM      4  C   UNL     1       7.473   7.588  17.311  0.00  0.00    +0.000 A 
ATOM      5  C   UNL     1       6.199   7.280  17.031  0.00  0.00    +0.000 A 
ATOM      6  N   UNL     1       5.557   6.314  17.796  0.00  0.00    +0.000 N 
ATOM      7  C   UNL     1       4.279   5.833  17.690  0.00  0.00    +0.000 A 
ATOM      8  C   UNL     1       4.151   4.896  18.692  0.00  0.00    +0.000 A 
ATOM      9  N   UNL     1       5.314   4.801  19.422  0.00  0.00    +0.000 NA
ATOM     10  C   UNL     1       6.156   5.645  18.857  0.00  0.00    +0.000 A 
ENDROOT
BRANCH   8  11
ATOM     11  C   UNL     1       2.955   4.124  18.979  0.00  0.00    +0.000 A 
ATOM     12  C   UNL     1       2.579   3.037  18.177  0.00  0.00    +0.000 A 
ATOM     13  C   UNL     1       1.413   2.320  18.454  0.00  0.00    +0.000 A 
ATOM     14  C   UNL     1       0.612   2.682  19.535  0.00  0.00    +0.000 A 
ATOM     15  C   UNL     1       0.983   3.752  20.347  0.00  0.00    +0.000 A 
ATOM     16  C   UNL     1       2.152   4.466  20.075  0.00  0.00    +0.000 A 
ENDBRANCH   8  11
TORSDOF 1
ENDMDL
MODEL 8
REMARK VINA RESULT:      -6.7      1.599      6.235
REMARK  Name = 
REMARK  2 active torsions:
REMARK  status: ('A' for Active; 'I' for Inactive)
REMARK    1  A    between atoms: C_1  and  C_2
REMARK    2  A    between atoms: C_8  and  C_9
REMARK                            x       y       z     vdW  Elec       q    Type
REMARK                         _______ _______ _______ _____ _____    ______ ____
ROOT
ATOM      1  C   UNL     1       0.842   2.208  18.615  0.00  0.00    +0.000 C 
ATOM      2  C   UNL     1       1.431   3.501  19.117  0.00  0.00    +0.000 A 
ATOM      3  C   UNL     1       0.906   4.114  20.206  0.00  0.00    +0.000 A 
ATOM      4  C   UNL     1       1.438   5.358  20.741  0.00  0.00    +0.000 A 
ATOM      5  C   UNL     1       2.499   5.921  20.146  0.00  0.00    +0.000 A 
ATOM      6  N   UNL     1       3.053   5.301  19.032  0.00  0.00    +0.000 N 
ATOM      7  C   UNL     1       4.130   5.680  18.276  0.00  0.00    +0.000 A 
ATOM      8  C   UNL     1       4.249   4.721  17.293  0.00  0.00    +0.000 A 
ATOM      9  N   UNL     1       3.260   3.771  17.418  0.00  0.00    +0.000 NA
ATOM     10  C   UNL     1       2.564   4.123  18.480  0.00  0.00    +0.000 A 
ENDROOT
BRANCH   8  11
ATOM     11  C   UNL     1       5.250   4.709  16.241  0.00  0.00    +0.000 A 
ATOM     12  C   UNL     1       6.493   5.336  16.411  0.00  0.00    +0.000 A 
ATOM     13  C   UNL     1       7.435   5.334  15.381  0.00  0.00    +0.000 A 
ATOM     14  C   UNL     1       7.145   4.705  14.171  0.00  0.00    +0.000 A 
ATOM     15  C   UNL     1       5.919   4.067  13.997  0.00  0.00    +0.000 A 
ATOM     16  C   UNL     1       4.978   4.062  15.029  0.00  0.00    +0.000 A 
ENDBRANCH   8  11
TORSDOF 1
ENDMDL
MODEL 9
REMARK VINA RESULT:      -6.6      1.594      6.176
REMARK  Name = 
REMARK  2 active torsions:
REMARK  status: ('A' for Active; 'I' for Inactive)
REMARK    1  A    between atoms: C_1  and  C_2
REMARK    2  A    between atoms: C_8  and  C_9
REMARK                            x       y       z     vdW  Elec       q    Type
REMARK                         _______ _______ _______ _____ _____    ______ ____
ROOT
ATOM      1  C   UNL     1       0.899   2.191  18.658  0.00  0.00    +0.000 C 
ATOM      2  C   UNL     1       1.490   3.490  19.141  0.00  0.00    +0.000 A 
ATOM      3  C   UNL     1       0.988   4.099  20.243  0.00  0.00    +0.000 A 
ATOM      4  C   UNL     1       1.524   5.349  20.762  0.00  0.00    +0.000 A 
ATOM      5  C   UNL     1       2.564   5.921  20.137  0.00  0.00    +0.000 A 
ATOM      6  N   UNL     1       3.092   5.303  19.010  0.00  0.00    +0.000 N 
ATOM      7  C   UNL     1       4.146   5.690  18.225  0.00  0.00    +0.000 A 
ATOM      8  C   UNL     1       4.247   4.730  17.241  0.00  0.00    +0.000 A 
ATOM      9  N   UNL     1       3.270   3.772  17.394  0.00  0.00    +0.000 NA
ATOM     10  C   UNL     1       2.599   4.120  18.474  0.00  0.00    +0.000 A 
ENDROOT
BRANCH   8  11
ATOM     11  C   UNL     1       5.220   4.724  16.163  0.00  0.00    +0.000 A 
ATOM     12  C   UNL     1       4.975   4.039  14.964  0.00  0.00    +0.000 A 
ATOM     13  C   UNL     1       5.932   4.025  13.947  0.00  0.00    +0.000 A 
ATOM     14  C   UNL     1       7.141   4.697  14.117  0.00  0.00    +0.000 A 
ATOM     15  C   UNL     1       7.389   5.393  15.299  0.00  0.00    +0.000 A 
ATOM     16  C   UNL     1       6.430   5.412  16.315  0.00  0.00    +0.000 A 
ENDBRANCH   8  11
TORSDOF 1
ENDMDL
