MODEL 1
REMARK VINA RESULT:      -8.9      0.000      0.000
REMARK  Name = 
REMARK  3 active torsions:
REMARK  status: ('A' for Active; 'I' for Inactive)
REMARK    1  A    between atoms: C_2  and  C_4
REMARK    2  A    between atoms: C_9  and  C_10
REMARK    3  A    between atoms: C_13  and  C_14
REMARK                            x       y       z     vdW  Elec       q    Type
REMARK                         _______ _______ _______ _____ _____    ______ ____
ROOT
ATOM      1  C   UNL     1       5.722   4.896  15.719  0.00  0.00    +0.000 A 
ATOM      2  C   UNL     1       5.257   3.812  16.480  0.00  0.00    +0.000 A 
ATOM      3  C   UNL     1       4.305   3.988  17.493  0.00  0.00    +0.000 A 
ATOM      4  C   UNL     1       3.844   5.289  17.685  0.00  0.00    +0.000 A 
ATOM      5  N   UNL     1       2.930   5.825  18.553  0.00  0.00    +0.000 N 
ATOM      6  C   UNL     1       2.843   7.179  18.319  0.00  0.00    +0.000 A 
ATOM      7  N   UNL     1       3.671   7.530  17.353  0.00  0.00    +0.000 NA
ATOM      8  C   UNL     1       4.281   6.376  16.943  0.00  0.00    +0.000 A 
ATOM      9  C   UNL     1       5.230   6.191  15.934  0.00  0.00    +0.000 A 
ATOM     10  H   UNL     1       2.424   5.322  19.263  0.00  0.00    +0.000 HD
ENDROOT
BRANCH   6  11
ATOM     11  C   UNL     1       1.981   8.079  19.077  0.00  0.00    +0.000 A 
ATOM     12  C   UNL     1       1.471   9.220  18.455  0.00  0.00    +0.000 A 
ATOM     13  C   UNL     1       0.660  10.113  19.160  0.00  0.00    +0.000 A 
ATOM     14  C   UNL     1       0.308   9.883  20.502  0.00  0.00    +0.000 A 
ATOM     15  C   UNL     1       0.814   8.719  21.107  0.00  0.00    +0.000 A 
ATOM     16  C   UNL     1       1.642   7.833  20.410  0.00  0.00    +0.000 A 
BRANCH  14  17
ATOM     17  C   UNL     1      -0.558  10.829  21.240  0.00  0.00    +0.000 A 
ATOM     18  C   UNL     1      -0.783  10.684  22.626  0.00  0.00    +0.000 A 
ATOM     19  C   UNL     1      -1.628  11.551  23.322  0.00  0.00    +0.000 A 
ATOM     20  C   UNL     1      -2.244  12.592  22.647  0.00  0.00    +0.000 A 
ATOM     21  F   UNL     1      -3.054  13.425  23.313  0.00  0.00    +0.000 F 
ATOM     22  C   UNL     1      -2.033  12.782  21.290  0.00  0.00    +0.000 A 
ATOM     23  C   UNL     1      -1.200  11.902  20.591  0.00  0.00    +0.000 A 
ENDBRANCH  14  17
ENDBRANCH   6  11
BRANCH   1  25
ATOM     24  N   UNL     1       6.480   3.617  13.800  0.00  0.00    +0.000 N 
ATOM     25  C   UNL     1       6.735   4.643  14.667  0.00  0.00    +0.000 C 
ATOM     26  O   UNL     1       7.735   5.339  14.554  0.00  0.00    +0.000 OA
ATOM     27  H   UNL     1       7.127   3.496  13.032  0.00  0.00    +0.000 HD
ATOM     28  H   UNL     1       5.574   3.177  13.727  0.00  0.00    +0.000 HD
ENDBRANCH   1  25
TORSDOF 3
ENDMDL
MODEL 2
REMARK VINA RESULT:      -8.9      0.206      1.374
REMARK  Name = 
REMARK  3 active torsions:
REMARK  status: ('A' for Active; 'I' for Inactive)
REMARK    1  A    between atoms: C_2  and  C_4
REMARK    2  A    between atoms: C_9  and  C_10
REMARK    3  A    between atoms: C_13  and  C_14
REMARK                            x       y       z     vdW  Elec       q    Type
REMARK                         _______ _______ _______ _____ _____    ______ ____
ROOT
ATOM      1  C   UNL     1       5.820   4.886  15.547  0.00  0.00    +0.000 A 
ATOM      2  C   UNL     1       5.377   3.810  16.333  0.00  0.00    +0.000 A 
ATOM      3  C   UNL     1       4.435   3.993  17.353  0.00  0.00    +0.000 A 
ATOM      4  C   UNL     1       3.960   5.292  17.527  0.00  0.00    +0.000 A 
ATOM      5  N   UNL     1       3.050   5.833  18.395  0.00  0.00    +0.000 N 
ATOM      6  C   UNL     1       2.942   7.181  18.136  0.00  0.00    +0.000 A 
ATOM      7  N   UNL     1       3.755   7.524  17.155  0.00  0.00    +0.000 NA
ATOM      8  C   UNL     1       4.375   6.370  16.759  0.00  0.00    +0.000 A 
ATOM      9  C   UNL     1       5.315   6.178  15.743  0.00  0.00    +0.000 A 
ATOM     10  H   UNL     1       2.557   5.338  19.120  0.00  0.00    +0.000 HD
ENDROOT
BRANCH   6  11
ATOM     11  C   UNL     1       2.078   8.084  18.888  0.00  0.00    +0.000 A 
ATOM     12  C   UNL     1       1.812   7.814  20.231  0.00  0.00    +0.000 A 
ATOM     13  C   UNL     1       0.973   8.648  20.974  0.00  0.00    +0.000 A 
ATOM     14  C   UNL     1       0.391   9.796  20.407  0.00  0.00    +0.000 A 
ATOM     15  C   UNL     1       0.684  10.065  19.059  0.00  0.00    +0.000 A 
ATOM     16  C   UNL     1       1.510   9.221  18.307  0.00  0.00    +0.000 A 
BRANCH  14  17
ATOM     17  C   UNL     1      -0.492  10.679  21.201  0.00  0.00    +0.000 A 
ATOM     18  C   UNL     1      -1.108  11.809  20.621  0.00  0.00    +0.000 A 
ATOM     19  C   UNL     1      -1.913  12.667  21.373  0.00  0.00    +0.000 A 
ATOM     20  C   UNL     1      -2.133  12.396  22.714  0.00  0.00    +0.000 A 
ATOM     21  F   UNL     1      -2.905  13.218  23.437  0.00  0.00    +0.000 F 
ATOM     22  C   UNL     1      -1.563  11.285  23.317  0.00  0.00    +0.000 A 
ATOM     23  C   UNL     1      -0.744  10.436  22.566  0.00  0.00    +0.000 A 
ENDBRANCH  14  17
ENDBRANCH   6  11
BRANCH   1  25
ATOM     24  N   UNL     1       6.554   3.604  13.620  0.00  0.00    +0.000 N 
ATOM     25  C   UNL     1       6.824   4.625  14.488  0.00  0.00    +0.000 C 
ATOM     26  O   UNL     1       7.830   5.312  14.371  0.00  0.00    +0.000 OA
ATOM     27  H   UNL     1       7.195   3.478  12.847  0.00  0.00    +0.000 HD
ATOM     28  H   UNL     1       5.643   3.173  13.551  0.00  0.00    +0.000 HD
ENDBRANCH   1  25
TORSDOF 3
ENDMDL
MODEL 3
REMARK VINA RESULT:      -8.7      0.681      1.178
REMARK  Name = 
REMARK  3 active torsions:
REMARK  status: ('A' for Active; 'I' for Inactive)
REMARK    1  A    between atoms: C_2  and  C_4
REMARK    2  A    between atoms: C_9  and  C_10
REMARK    3  A    between atoms: C_13  and  C_14
REMARK                            x       y       z     vdW  Elec       q    Type
REMARK                         _______ _______ _______ _____ _____    ______ ____
ROOT
ATOM      1  C   UNL     1       5.802   4.881  15.498  0.00  0.00    +0.000 A 
ATOM      2  C   UNL     1       5.387   3.782  16.266  0.00  0.00    +0.000 A 
ATOM      3  C   UNL     1       4.462   3.929  17.308  0.00  0.00    +0.000 A 
ATOM      4  C   UNL     1       3.975   5.217  17.522  0.00  0.00    +0.000 A 
ATOM      5  N   UNL     1       3.076   5.727  18.419  0.00  0.00    +0.000 N 
ATOM      6  C   UNL     1       2.948   7.080  18.195  0.00  0.00    +0.000 A 
ATOM      7  N   UNL     1       3.738   7.455  17.208  0.00  0.00    +0.000 NA
ATOM      8  C   UNL     1       4.364   6.319  16.772  0.00  0.00    +0.000 A 
ATOM      9  C   UNL     1       5.286   6.162  15.735  0.00  0.00    +0.000 A 
ATOM     10  H   UNL     1       2.603   5.209  19.141  0.00  0.00    +0.000 HD
ENDROOT
BRANCH   6  11
ATOM     11  C   UNL     1       2.089   7.954  18.984  0.00  0.00    +0.000 A 
ATOM     12  C   UNL     1       1.544   9.093  18.389  0.00  0.00    +0.000 A 
ATOM     13  C   UNL     1       0.733   9.963  19.123  0.00  0.00    +0.000 A 
ATOM     14  C   UNL     1       0.417   9.710  20.470  0.00  0.00    +0.000 A 
ATOM     15  C   UNL     1       0.957   8.549  21.048  0.00  0.00    +0.000 A 
ATOM     16  C   UNL     1       1.785   7.687  20.321  0.00  0.00    +0.000 A 
BRANCH  14  17
ATOM     17  C   UNL     1      -0.449  10.631  21.239  0.00  0.00    +0.000 A 
ATOM     18  C   UNL     1      -1.004  11.783  20.641  0.00  0.00    +0.000 A 
ATOM     19  C   UNL     1      -1.793  12.675  21.371  0.00  0.00    +0.000 A 
ATOM     20  C   UNL     1      -2.057  12.418  22.706  0.00  0.00    +0.000 A 
ATOM     21  F   UNL     1      -2.813  13.272  23.407  0.00  0.00    +0.000 F 
ATOM     22  C   UNL     1      -1.549  11.286  23.326  0.00  0.00    +0.000 A 
ATOM     23  C   UNL     1      -0.746  10.403  22.598  0.00  0.00    +0.000 A 
ENDBRANCH  14  17
ENDBRANCH   6  11
BRANCH   1  25
ATOM     24  N   UNL     1       7.886   5.473  14.401  0.00  0.00    +0.000 N 
ATOM     25  C   UNL     1       6.789   4.657  14.415  0.00  0.00    +0.000 C 
ATOM     26  O   UNL     1       6.651   3.762  13.591  0.00  0.00    +0.000 OA
ATOM     27  H   UNL     1       8.601   5.268  13.715  0.00  0.00    +0.000 HD
ATOM     28  H   UNL     1       8.139   6.060  15.184  0.00  0.00    +0.000 HD
ENDBRANCH   1  25
TORSDOF 3
ENDMDL
MODEL 4
REMARK VINA RESULT:      -8.6      2.506      3.579
REMARK  Name = 
REMARK  3 active torsions:
REMARK  status: ('A' for Active; 'I' for Inactive)
REMARK    1  A    between atoms: C_2  and  C_4
REMARK    2  A    between atoms: C_9  and  C_10
REMARK    3  A    between atoms: C_13  and  C_14
REMARK                            x       y       z     vdW  Elec       q    Type
REMARK                         _______ _______ _______ _____ _____    ______ ____
ROOT
ATOM      1  C   UNL     1       3.507   4.687  18.819  0.00  0.00    +0.000 A 
ATOM      2  C   UNL     1       3.762   5.582  17.768  0.00  0.00    +0.000 A 
ATOM      3  C   UNL     1       3.264   6.891  17.788  0.00  0.00    +0.000 A 
ATOM      4  C   UNL     1       2.519   7.249  18.911  0.00  0.00    +0.000 A 
ATOM      5  N   UNL     1       1.898   8.414  19.274  0.00  0.00    +0.000 N 
ATOM      6  C   UNL     1       1.299   8.231  20.500  0.00  0.00    +0.000 A 
ATOM      7  N   UNL     1       1.496   6.997  20.924  0.00  0.00    +0.000 NA
ATOM      8  C   UNL     1       2.258   6.387  19.966  0.00  0.00    +0.000 A 
ATOM      9  C   UNL     1       2.760   5.083  19.937  0.00  0.00    +0.000 A 
ATOM     10  H   UNL     1       1.862   9.259  18.727  0.00  0.00    +0.000 HD
ENDROOT
BRANCH   6  11
ATOM     11  C   UNL     1       0.524   9.259  21.185  0.00  0.00    +0.000 A 
ATOM     12  C   UNL     1       0.249  10.459  20.526  0.00  0.00    +0.000 A 
ATOM     13  C   UNL     1      -0.473  11.472  21.162  0.00  0.00    +0.000 A 
ATOM     14  C   UNL     1      -0.968  11.311  22.468  0.00  0.00    +0.000 A 
ATOM     15  C   UNL     1      -0.699  10.090  23.110  0.00  0.00    +0.000 A 
ATOM     16  C   UNL     1       0.040   9.081  22.483  0.00  0.00    +0.000 A 
BRANCH  14  17
ATOM     17  C   UNL     1      -1.739  12.385  23.133  0.00  0.00    +0.000 A 
ATOM     18  C   UNL     1      -1.172  13.657  23.360  0.00  0.00    +0.000 A 
ATOM     19  C   UNL     1      -1.882  14.665  24.018  0.00  0.00    +0.000 A 
ATOM     20  C   UNL     1      -3.178  14.422  24.441  0.00  0.00    +0.000 A 
ATOM     21  F   UNL     1      -3.860  15.386  25.073  0.00  0.00    +0.000 F 
ATOM     22  C   UNL     1      -3.779  13.192  24.219  0.00  0.00    +0.000 A 
ATOM     23  C   UNL     1      -3.061  12.180  23.575  0.00  0.00    +0.000 A 
ENDBRANCH  14  17
ENDBRANCH   6  11
BRANCH   1  25
ATOM     24  N   UNL     1       5.195   3.059  19.446  0.00  0.00    +0.000 N 
ATOM     25  C   UNL     1       4.058   3.314  18.732  0.00  0.00    +0.000 C 
ATOM     26  O   UNL     1       3.504   2.437  18.081  0.00  0.00    +0.000 OA
ATOM     27  H   UNL     1       5.526   2.103  19.455  0.00  0.00    +0.000 HD
ATOM     28  H   UNL     1       5.543   3.685  20.159  0.00  0.00    +0.000 HD
ENDBRANCH   1  25
TORSDOF 3
ENDMDL
MODEL 5
REMARK VINA RESULT:      -8.6      0.497      1.078
REMARK  Name = 
REMARK  3 active torsions:
REMARK  status: ('A' for Active; 'I' for Inactive)
REMARK    1  A    between atoms: C_2  and  C_4
REMARK    2  A    between atoms: C_9  and  C_10
REMARK    3  A    between atoms: C_13  and  C_14
REMARK                            x       y       z     vdW  Elec       q    Type
REMARK                         _______ _______ _______ _____ _____    ______ ____
ROOT
ATOM      1  C   UNL     1       5.498   4.686  16.193  0.00  0.00    +0.000 A 
ATOM      2  C   UNL     1       4.776   3.658  16.821  0.00  0.00    +0.000 A 
ATOM      3  C   UNL     1       3.710   3.939  17.685  0.00  0.00    +0.000 A 
ATOM      4  C   UNL     1       3.405   5.287  17.868  0.00  0.00    +0.000 A 
ATOM      5  N   UNL     1       2.448   5.923  18.613  0.00  0.00    +0.000 N 
ATOM      6  C   UNL     1       2.582   7.282  18.434  0.00  0.00    +0.000 A 
ATOM      7  N   UNL     1       3.592   7.538  17.624  0.00  0.00    +0.000 NA
ATOM      8  C   UNL     1       4.097   6.321  17.255  0.00  0.00    +0.000 A 
ATOM      9  C   UNL     1       5.159   6.031  16.394  0.00  0.00    +0.000 A 
ATOM     10  H   UNL     1       1.772   5.478  19.212  0.00  0.00    +0.000 HD
ENDROOT
BRANCH   6  11
ATOM     11  C   UNL     1       1.742   8.273  19.096  0.00  0.00    +0.000 A 
ATOM     12  C   UNL     1       1.510   8.164  20.468  0.00  0.00    +0.000 A 
ATOM     13  C   UNL     1       0.693   9.085  21.128  0.00  0.00    +0.000 A 
ATOM     14  C   UNL     1       0.103  10.164  20.446  0.00  0.00    +0.000 A 
ATOM     15  C   UNL     1       0.363  10.271  19.069  0.00  0.00    +0.000 A 
ATOM     16  C   UNL     1       1.165   9.339  18.401  0.00  0.00    +0.000 A 
BRANCH  14  17
ATOM     17  C   UNL     1      -0.755  11.141  21.153  0.00  0.00    +0.000 A 
ATOM     18  C   UNL     1      -0.939  11.074  22.550  0.00  0.00    +0.000 A 
ATOM     19  C   UNL     1      -1.775  11.971  23.219  0.00  0.00    +0.000 A 
ATOM     20  C   UNL     1      -2.423  12.964  22.503  0.00  0.00    +0.000 A 
ATOM     21  F   UNL     1      -3.225  13.825  23.143  0.00  0.00    +0.000 F 
ATOM     22  C   UNL     1      -2.252  13.077  21.132  0.00  0.00    +0.000 A 
ATOM     23  C   UNL     1      -1.428  12.168  20.462  0.00  0.00    +0.000 A 
ENDBRANCH  14  17
ENDBRANCH   6  11
BRANCH   1  25
ATOM     24  N   UNL     1       6.303   3.615  14.168  0.00  0.00    +0.000 N 
ATOM     25  C   UNL     1       6.620   4.320  15.296  0.00  0.00    +0.000 C 
ATOM     26  O   UNL     1       7.771   4.663  15.532  0.00  0.00    +0.000 OA
ATOM     27  H   UNL     1       7.054   3.438  13.514  0.00  0.00    +0.000 HD
ATOM     28  H   UNL     1       5.354   3.515  13.836  0.00  0.00    +0.000 HD
ENDBRANCH   1  25
TORSDOF 3
ENDMDL
MODEL 6
REMARK VINA RESULT:      -8.6      0.964      1.514
REMARK  Name = 
REMARK  3 active torsions:
REMARK  status: ('A' for Active; 'I' for Inactive)
REMARK    1  A    between atoms: C_2  and  C_4
REMARK    2  A    between atoms: C_9  and  C_10
REMARK    3  A    between atoms: C_13  and  C_14
REMARK                            x       y       z     vdW  Elec       q    Type
REMARK                         _______ _______ _______ _____ _____    ______ ____
ROOT
ATOM      1  C   UNL     1       6.309   5.002  14.683  0.00  0.00    +0.000 A 
ATOM      2  C   UNL     1       5.960   3.813  15.343  0.00  0.00    +0.000 A 
ATOM      3  C   UNL     1       5.068   3.814  16.422  0.00  0.00    +0.000 A 
ATOM      4  C   UNL     1       4.543   5.052  16.787  0.00  0.00    +0.000 A 
ATOM      5  N   UNL     1       3.658   5.429  17.761  0.00  0.00    +0.000 N 
ATOM      6  C   UNL     1       3.474   6.792  17.686  0.00  0.00    +0.000 A 
ATOM      7  N   UNL     1       4.215   7.300  16.720  0.00  0.00    +0.000 NA
ATOM      8  C   UNL     1       4.865   6.241  16.147  0.00  0.00    +0.000 A 
ATOM      9  C   UNL     1       5.756   6.231  15.070  0.00  0.00    +0.000 A 
ATOM     10  H   UNL     1       3.230   4.819  18.438  0.00  0.00    +0.000 HD
ENDROOT
BRANCH   6  11
ATOM     11  C   UNL     1       2.612   7.544  18.590  0.00  0.00    +0.000 A 
ATOM     12  C   UNL     1       2.049   8.745  18.154  0.00  0.00    +0.000 A 
ATOM     13  C   UNL     1       1.236   9.500  19.002  0.00  0.00    +0.000 A 
ATOM     14  C   UNL     1       0.934   9.068  20.306  0.00  0.00    +0.000 A 
ATOM     15  C   UNL     1       1.491   7.847  20.722  0.00  0.00    +0.000 A 
ATOM     16  C   UNL     1       2.323   7.098  19.882  0.00  0.00    +0.000 A 
BRANCH  14  17
ATOM     17  C   UNL     1       0.064   9.869  21.197  0.00  0.00    +0.000 A 
ATOM     18  C   UNL     1      -0.526  11.071  20.753  0.00  0.00    +0.000 A 
ATOM     19  C   UNL     1      -1.319  11.850  21.599  0.00  0.00    +0.000 A 
ATOM     20  C   UNL     1      -1.551  11.427  22.898  0.00  0.00    +0.000 A 
ATOM     21  F   UNL     1      -2.310  12.173  23.711  0.00  0.00    +0.000 F 
ATOM     22  C   UNL     1      -1.006  10.241  23.367  0.00  0.00    +0.000 A 
ATOM     23  C   UNL     1      -0.199   9.471  22.523  0.00  0.00    +0.000 A 
ENDBRANCH  14  17
ENDBRANCH   6  11
BRANCH   1  25
ATOM     24  N   UNL     1       6.978   4.041  12.556  0.00  0.00    +0.000 N 
ATOM     25  C   UNL     1       7.264   4.933  13.552  0.00  0.00    +0.000 C 
ATOM     26  O   UNL     1       8.245   5.663  13.490  0.00  0.00    +0.000 OA
ATOM     27  H   UNL     1       7.582   4.051  11.744  0.00  0.00    +0.000 HD
ATOM     28  H   UNL     1       6.076   3.594  12.467  0.00  0.00    +0.000 HD
ENDBRANCH   1  25
TORSDOF 3
ENDMDL
MODEL 7
REMARK VINA RESULT:      -8.5      2.592      3.670
REMARK  Name = 
REMARK  3 active torsions:
REMARK  status: ('A' for Active; 'I' for Inactive)
REMARK    1  A    between atoms: C_2  and  C_4
REMARK    2  A    between atoms: C_9  and  C_10
REMARK    3  A    between atoms: C_13  and  C_14
REMARK                            x       y       z     vdW  Elec       q    Type
REMARK                         _______ _______ _______ _____ _____    ______ ____
ROOT
ATOM      1  C   UNL     1       3.419   4.144  19.072  0.00  0.00    +0.000 A 
ATOM      2  C   UNL     1       3.842   4.994  18.038  0.00  0.00    +0.000 A 
ATOM      3  C   UNL     1       3.457   6.340  17.998  0.00  0.00    +0.000 A 
ATOM      4  C   UNL     1       2.648   6.781  19.044  0.00  0.00    +0.000 A 
ATOM      5  N   UNL     1       2.099   8.001  19.336  0.00  0.00    +0.000 N 
ATOM      6  C   UNL     1       1.380   7.892  20.505  0.00  0.00    +0.000 A 
ATOM      7  N   UNL     1       1.433   6.655  20.960  0.00  0.00    +0.000 NA
ATOM      8  C   UNL     1       2.223   5.964  20.082  0.00  0.00    +0.000 A 
ATOM      9  C   UNL     1       2.613   4.623  20.115  0.00  0.00    +0.000 A 
ATOM     10  H   UNL     1       2.183   8.835  18.778  0.00  0.00    +0.000 HD
ENDROOT
BRANCH   6  11
ATOM     11  C   UNL     1       0.637   8.995  21.105  0.00  0.00    +0.000 A 
ATOM     12  C   UNL     1       0.337   8.953  22.468  0.00  0.00    +0.000 A 
ATOM     13  C   UNL     1      -0.390   9.983  23.069  0.00  0.00    +0.000 A 
ATOM     14  C   UNL     1      -0.820  11.103  22.335  0.00  0.00    +0.000 A 
ATOM     15  C   UNL     1      -0.492  11.139  20.969  0.00  0.00    +0.000 A 
ATOM     16  C   UNL     1       0.220  10.100  20.360  0.00  0.00    +0.000 A 
BRANCH  14  17
ATOM     17  C   UNL     1      -1.584  12.195  22.980  0.00  0.00    +0.000 A 
ATOM     18  C   UNL     1      -2.887  11.980  23.477  0.00  0.00    +0.000 A 
ATOM     19  C   UNL     1      -3.626  13.014  24.054  0.00  0.00    +0.000 A 
ATOM     20  C   UNL     1      -3.065  14.276  24.164  0.00  0.00    +0.000 A 
ATOM     21  F   UNL     1      -3.773  15.269  24.717  0.00  0.00    +0.000 F 
ATOM     22  C   UNL     1      -1.780  14.524  23.707  0.00  0.00    +0.000 A 
ATOM     23  C   UNL     1      -1.047  13.491  23.115  0.00  0.00    +0.000 A 
ENDBRANCH  14  17
ENDBRANCH   6  11
BRANCH   1  25
ATOM     24  N   UNL     1       5.029   2.436  19.694  0.00  0.00    +0.000 N 
ATOM     25  C   UNL     1       3.857   2.728  19.052  0.00  0.00    +0.000 C 
ATOM     26  O   UNL     1       3.187   1.854  18.518  0.00  0.00    +0.000 OA
ATOM     27  H   UNL     1       5.286   1.459  19.753  0.00  0.00    +0.000 HD
ATOM     28  H   UNL     1       5.481   3.082  20.325  0.00  0.00    +0.000 HD
ENDBRANCH   1  25
TORSDOF 3
ENDMDL
MODEL 8
REMARK VINA RESULT:      -8.4      1.855      2.889
REMARK  Name = 
REMARK  3 active torsions:
REMARK  status: ('A' for Active; 'I' for Inactive)
REMARK    1  A    between atoms: C_2  and  C_4
REMARK    2  A    between atoms: C_9  and  C_10
REMARK    3  A    between atoms: C_13  and  C_14
REMARK                            x       y       z     vdW  Elec       q    Type
REMARK                         _______ _______ _______ _____ _____    ______ ____
ROOT
ATOM      1  C   UNL     1       3.956   5.325  18.030  0.00  0.00    +0.000 A 
ATOM      2  C   UNL     1       3.640   4.421  19.057  0.00  0.00    +0.000 A 
ATOM      3  C   UNL     1       2.831   4.798  20.136  0.00  0.00    +0.000 A 
ATOM      4  C   UNL     1       2.353   6.108  20.119  0.00  0.00    +0.000 A 
ATOM      5  N   UNL     1       1.549   6.808  20.979  0.00  0.00    +0.000 N 
ATOM      6  C   UNL     1       1.381   8.082  20.484  0.00  0.00    +0.000 A 
ATOM      7  N   UNL     1       2.055   8.228  19.360  0.00  0.00    +0.000 NA
ATOM      8  C   UNL     1       2.644   7.018  19.114  0.00  0.00    +0.000 A 
ATOM      9  C   UNL     1       3.452   6.632  18.040  0.00  0.00    +0.000 A 
ATOM     10  H   UNL     1       1.164   6.462  21.842  0.00  0.00    +0.000 HD
ENDROOT
BRANCH   6  11
ATOM     11  C   UNL     1       0.600   9.115  21.155  0.00  0.00    +0.000 A 
ATOM     12  C   UNL     1       0.257  10.273  20.455  0.00  0.00    +0.000 A 
ATOM     13  C   UNL     1      -0.473  11.290  21.076  0.00  0.00    +0.000 A 
ATOM     14  C   UNL     1      -0.908  11.174  22.408  0.00  0.00    +0.000 A 
ATOM     15  C   UNL     1      -0.571   9.994  23.092  0.00  0.00    +0.000 A 
ATOM     16  C   UNL     1       0.176   8.981  22.480  0.00  0.00    +0.000 A 
BRANCH  14  17
ATOM     17  C   UNL     1      -1.687  12.253  23.056  0.00  0.00    +0.000 A 
ATOM     18  C   UNL     1      -1.118  13.521  23.298  0.00  0.00    +0.000 A 
ATOM     19  C   UNL     1      -1.836  14.532  23.941  0.00  0.00    +0.000 A 
ATOM     20  C   UNL     1      -3.144  14.296  24.334  0.00  0.00    +0.000 A 
ATOM     21  F   UNL     1      -3.833  15.264  24.952  0.00  0.00    +0.000 F 
ATOM     22  C   UNL     1      -3.746  13.070  24.097  0.00  0.00    +0.000 A 
ATOM     23  C   UNL     1      -3.020  12.054  23.467  0.00  0.00    +0.000 A 
ENDBRANCH  14  17
ENDBRANCH   6  11
BRANCH   1  25
ATOM     24  N   UNL     1       5.446   3.657  17.084  0.00  0.00    +0.000 N 
ATOM     25  C   UNL     1       4.823   4.863  16.920  0.00  0.00    +0.000 C 
ATOM     26  O   UNL     1       4.949   5.510  15.888  0.00  0.00    +0.000 OA
ATOM     27  H   UNL     1       5.970   3.302  16.295  0.00  0.00    +0.000 HD
ATOM     28  H   UNL     1       5.190   3.005  17.812  0.00  0.00    +0.000 HD
ENDBRANCH   1  25
TORSDOF 3
ENDMDL
MODEL 9
REMARK VINA RESULT:      -8.4      2.456      3.644
REMARK  Name = 
REMARK  3 active torsions:
REMARK  status: ('A' for Active; 'I' for Inactive)
REMARK    1  A    between atoms: C_2  and  C_4
REMARK    2  A    between atoms: C_9  and  C_10
REMARK    3  A    between atoms: C_13  and  C_14
REMARK                            x       y       z     vdW  Elec       q    Type
REMARK                         _______ _______ _______ _____ _____    ______ ____
ROOT
ATOM      1  C   UNL     1       3.528   4.601  18.899  0.00  0.00    +0.000 A 
ATOM      2  C   UNL     1       3.782   5.447  17.808  0.00  0.00    +0.000 A 
ATOM      3  C   UNL     1       3.289   6.758  17.773  0.00  0.00    +0.000 A 
ATOM      4  C   UNL     1       2.552   7.168  18.882  0.00  0.00    +0.000 A 
ATOM      5  N   UNL     1       1.938   8.352  19.196  0.00  0.00    +0.000 N 
ATOM      6  C   UNL     1       1.344   8.225  20.432  0.00  0.00    +0.000 A 
ATOM      7  N   UNL     1       1.539   7.011  20.910  0.00  0.00    +0.000 NA
ATOM      8  C   UNL     1       2.293   6.355  19.976  0.00  0.00    +0.000 A 
ATOM      9  C   UNL     1       2.790   5.049  20.003  0.00  0.00    +0.000 A 
ATOM     10  H   UNL     1       1.903   9.172  18.613  0.00  0.00    +0.000 HD
ENDROOT
BRANCH   6  11
ATOM     11  C   UNL     1       0.578   9.286  21.075  0.00  0.00    +0.000 A 
ATOM     12  C   UNL     1       0.238   9.161  22.423  0.00  0.00    +0.000 A 
ATOM     13  C   UNL     1      -0.513  10.150  23.063  0.00  0.00    +0.000 A 
ATOM     14  C   UNL     1      -0.929  11.310  22.386  0.00  0.00    +0.000 A 
ATOM     15  C   UNL     1      -0.562  11.430  21.035  0.00  0.00    +0.000 A 
ATOM     16  C   UNL     1       0.175  10.432  20.385  0.00  0.00    +0.000 A 
BRANCH  14  17
ATOM     17  C   UNL     1      -1.718  12.358  23.072  0.00  0.00    +0.000 A 
ATOM     18  C   UNL     1      -1.149  13.608  23.392  0.00  0.00    +0.000 A 
ATOM     19  C   UNL     1      -1.876  14.588  24.071  0.00  0.00    +0.000 A 
ATOM     20  C   UNL     1      -3.193  14.340  24.422  0.00  0.00    +0.000 A 
ATOM     21  F   UNL     1      -3.893  15.278  25.074  0.00  0.00    +0.000 F 
ATOM     22  C   UNL     1      -3.796  13.132  24.107  0.00  0.00    +0.000 A 
ATOM     23  C   UNL     1      -3.061  12.146  23.442  0.00  0.00    +0.000 A 
ENDBRANCH  14  17
ENDBRANCH   6  11
BRANCH   1  25
ATOM     24  N   UNL     1       4.430   2.726  17.647  0.00  0.00    +0.000 N 
ATOM     25  C   UNL     1       4.073   3.222  18.870  0.00  0.00    +0.000 C 
ATOM     26  O   UNL     1       4.232   2.570  19.894  0.00  0.00    +0.000 OA
ATOM     27  H   UNL     1       4.879   1.819  17.635  0.00  0.00    +0.000 HD
ATOM     28  H   UNL     1       4.522   3.309  16.827  0.00  0.00    +0.000 HD
ENDBRANCH   1  25
TORSDOF 3
ENDMDL
