MODEL 1
REMARK VINA RESULT:      -8.5      0.000      0.000
REMARK  Name = 
REMARK  6 active torsions:
REMARK  status: ('A' for Active; 'I' for Inactive)
REMARK    1  A    between atoms: C_1  and  C_2
REMARK    2  A    between atoms: C_2  and  N_3
REMARK    3  A    between atoms: C_5  and  C_6
REMARK    4  A    between atoms: C_9  and  C_10
REMARK    5  A    between atoms: C_13  and  N_14
REMARK    6  A    between atoms: C_15  and  C_16
REMARK                            x       y       z     vdW  Elec       q    Type
REMARK                         _______ _______ _______ _____ _____    ______ ____
ROOT
ATOM      1  C   UNL     1       2.705   6.353  18.795  0.00  0.00    +0.000 A 
ATOM      2  N   UNL     1       3.834   6.090  18.212  0.00  0.00    +0.000 NA
ATOM      3  N   UNL     1       3.985   4.760  18.306  0.00  0.00    +0.000 N 
ATOM      4  C   UNL     1       4.769   3.918  17.567  0.00  0.00    +0.000 A 
ATOM      5  C   UNL     1       4.397   2.663  18.049  0.00  0.00    +0.000 A 
ATOM      6  N   UNL     1       3.323   2.736  18.935  0.00  0.00    +0.000 NA
ATOM      7  C   UNL     1       3.090   4.017  19.001  0.00  0.00    +0.000 A 
ATOM      8  S   UNL     1       1.829   5.038  19.574  0.00  0.00    +0.000 S 
ENDROOT
BRANCH   4   9
ATOM      9  C   UNL     1       5.552   4.365  16.415  0.00  0.00    +0.000 A 
ATOM     10  C   UNL     1       6.695   5.129  16.582  0.00  0.00    +0.000 A 
ATOM     11  N   UNL     1       7.527   5.491  15.575  0.00  0.00    +0.000 NA
ATOM     12  C   UNL     1       7.252   5.055  14.329  0.00  0.00    +0.000 A 
ATOM     13  C   UNL     1       6.164   4.248  14.049  0.00  0.00    +0.000 A 
ATOM     14  C   UNL     1       5.299   3.926  15.111  0.00  0.00    +0.000 A 
BRANCH  13  15
ATOM     15  C   UNL     1       5.889   3.667  12.696  0.00  0.00    +0.000 C 
ATOM     16  F   UNL     1       6.560   4.238  11.658  0.00  0.00    +0.000 F 
ATOM     17  F   UNL     1       6.222   2.340  12.638  0.00  0.00    +0.000 F 
ATOM     18  F   UNL     1       4.568   3.715  12.361  0.00  0.00    +0.000 F 
ENDBRANCH  13  15
BRANCH  12  19
ATOM     19  N   UNL     1       8.092   5.568  13.356  0.00  0.00    +0.000 N 
ATOM     20  H   UNL     1       7.914   6.566  13.279  0.00  0.00    +0.000 HD
ATOM     21  H   UNL     1       9.072   5.351  13.472  0.00  0.00    +0.000 HD
ENDBRANCH  12  19
ENDBRANCH   4   9
BRANCH   1  24
ATOM     22  N   UNL     1       1.394   9.638  19.317  0.00  0.00    +0.000 N 
ATOM     23  C   UNL     1       1.584   8.359  19.734  0.00  0.00    +0.000 A 
ATOM     24  C   UNL     1       2.201   7.689  18.693  0.00  0.00    +0.000 A 
ATOM     25  C   UNL     1       2.305   8.661  17.677  0.00  0.00    +0.000 A 
ATOM     26  N   UNL     1       1.809   9.848  18.051  0.00  0.00    +0.000 NA
BRANCH  22  28
ATOM     27  C   UNL     1      -0.345  10.237  20.964  0.00  0.00    +0.000 C 
ATOM     28  C   UNL     1       0.817  10.706  20.101  0.00  0.00    +0.000 C 
ENDBRANCH  22  28
ENDBRANCH   1  24
TORSDOF 5
ENDMDL
MODEL 2
REMARK VINA RESULT:      -8.3      0.858      1.389
REMARK  Name = 
REMARK  6 active torsions:
REMARK  status: ('A' for Active; 'I' for Inactive)
REMARK    1  A    between atoms: C_1  and  C_2
REMARK    2  A    between atoms: C_2  and  N_3
REMARK    3  A    between atoms: C_5  and  C_6
REMARK    4  A    between atoms: C_9  and  C_10
REMARK    5  A    between atoms: C_13  and  N_14
REMARK    6  A    between atoms: C_15  and  C_16
REMARK                            x       y       z     vdW  Elec       q    Type
REMARK                         _______ _______ _______ _____ _____    ______ ____
ROOT
ATOM      1  C   UNL     1       2.592   5.707  19.348  0.00  0.00    +0.000 A 
ATOM      2  N   UNL     1       3.707   5.454  18.733  0.00  0.00    +0.000 NA
ATOM      3  N   UNL     1       3.727   4.124  18.561  0.00  0.00    +0.000 N 
ATOM      4  C   UNL     1       4.448   3.372  17.674  0.00  0.00    +0.000 A 
ATOM      5  C   UNL     1       3.944   2.089  17.892  0.00  0.00    +0.000 A 
ATOM      6  N   UNL     1       2.859   2.091  18.766  0.00  0.00    +0.000 NA
ATOM      7  C   UNL     1       2.746   3.350  19.086  0.00  0.00    +0.000 A 
ATOM      8  S   UNL     1       1.573   4.357  19.841  0.00  0.00    +0.000 S 
ENDROOT
BRANCH   4   9
ATOM      9  C   UNL     1       5.302   3.959  16.642  0.00  0.00    +0.000 A 
ATOM     10  C   UNL     1       6.412   4.715  16.977  0.00  0.00    +0.000 A 
ATOM     11  N   UNL     1       7.305   5.202  16.082  0.00  0.00    +0.000 NA
ATOM     12  C   UNL     1       7.130   4.908  14.778  0.00  0.00    +0.000 A 
ATOM     13  C   UNL     1       6.084   4.123  14.329  0.00  0.00    +0.000 A 
ATOM     14  C   UNL     1       5.152   3.669  15.281  0.00  0.00    +0.000 A 
BRANCH  13  15
ATOM     15  C   UNL     1       5.919   3.697  12.903  0.00  0.00    +0.000 C 
ATOM     16  F   UNL     1       6.226   2.398  12.633  0.00  0.00    +0.000 F 
ATOM     17  F   UNL     1       4.627   3.845  12.477  0.00  0.00    +0.000 F 
ATOM     18  F   UNL     1       6.664   4.446  12.040  0.00  0.00    +0.000 F 
ENDBRANCH  13  15
BRANCH  12  19
ATOM     19  N   UNL     1       8.027   5.541  13.935  0.00  0.00    +0.000 N 
ATOM     20  H   UNL     1       8.627   6.134  14.501  0.00  0.00    +0.000 HD
ATOM     21  H   UNL     1       8.544   4.932  13.316  0.00  0.00    +0.000 HD
ENDBRANCH  12  19
ENDBRANCH   4   9
BRANCH   1  24
ATOM     22  N   UNL     1       1.681   9.145  18.980  0.00  0.00    +0.000 N 
ATOM     23  C   UNL     1       2.249   8.011  18.491  0.00  0.00    +0.000 A 
ATOM     24  C   UNL     1       2.221   7.079  19.512  0.00  0.00    +0.000 A 
ATOM     25  C   UNL     1       1.640   7.776  20.592  0.00  0.00    +0.000 A 
ATOM     26  N   UNL     1       1.314   9.037  20.273  0.00  0.00    +0.000 NA
BRANCH  22  28
ATOM     27  C   UNL     1       0.347  11.217  18.830  0.00  0.00    +0.000 C 
ATOM     28  C   UNL     1       1.462  10.366  18.240  0.00  0.00    +0.000 C 
ENDBRANCH  22  28
ENDBRANCH   1  24
TORSDOF 5
ENDMDL
MODEL 3
REMARK VINA RESULT:      -8.0      4.555      7.996
REMARK  Name = 
REMARK  6 active torsions:
REMARK  status: ('A' for Active; 'I' for Inactive)
REMARK    1  A    between atoms: C_1  and  C_2
REMARK    2  A    between atoms: C_2  and  N_3
REMARK    3  A    between atoms: C_5  and  C_6
REMARK    4  A    between atoms: C_9  and  C_10
REMARK    5  A    between atoms: C_13  and  N_14
REMARK    6  A    between atoms: C_15  and  C_16
REMARK                            x       y       z     vdW  Elec       q    Type
REMARK                         _______ _______ _______ _____ _____    ______ ____
ROOT
ATOM      1  C   UNL     1       4.673   4.614  17.734  0.00  0.00    +0.000 A 
ATOM      2  N   UNL     1       3.747   5.522  17.770  0.00  0.00    +0.000 NA
ATOM      3  N   UNL     1       3.050   5.279  18.891  0.00  0.00    +0.000 N 
ATOM      4  C   UNL     1       2.233   6.111  19.605  0.00  0.00    +0.000 A 
ATOM      5  C   UNL     1       1.914   5.333  20.718  0.00  0.00    +0.000 A 
ATOM      6  N   UNL     1       2.630   4.138  20.748  0.00  0.00    +0.000 NA
ATOM      7  C   UNL     1       3.334   4.195  19.652  0.00  0.00    +0.000 A 
ATOM      8  S   UNL     1       4.686   3.368  18.980  0.00  0.00    +0.000 S 
ENDROOT
BRANCH   4   9
ATOM      9  C   UNL     1       2.054   7.526  19.278  0.00  0.00    +0.000 A 
ATOM     10  C   UNL     1       2.307   8.002  18.003  0.00  0.00    +0.000 A 
ATOM     11  N   UNL     1       2.066   9.272  17.599  0.00  0.00    +0.000 NA
ATOM     12  C   UNL     1       1.511  10.130  18.478  0.00  0.00    +0.000 A 
ATOM     13  C   UNL     1       1.171   9.756  19.766  0.00  0.00    +0.000 A 
ATOM     14  C   UNL     1       1.474   8.440  20.164  0.00  0.00    +0.000 A 
BRANCH  13  15
ATOM     15  C   UNL     1       0.464  10.654  20.732  0.00  0.00    +0.000 C 
ATOM     16  F   UNL     1       1.097  11.824  21.025  0.00  0.00    +0.000 F 
ATOM     17  F   UNL     1      -0.766  11.032  20.264  0.00  0.00    +0.000 F 
ATOM     18  F   UNL     1       0.217  10.050  21.930  0.00  0.00    +0.000 F 
ENDBRANCH  13  15
BRANCH  12  19
ATOM     19  N   UNL     1       1.408  11.428  18.009  0.00  0.00    +0.000 N 
ATOM     20  H   UNL     1       1.093  12.017  18.775  0.00  0.00    +0.000 HD
ATOM     21  H   UNL     1       2.232  11.788  17.548  0.00  0.00    +0.000 HD
ENDBRANCH  12  19
ENDBRANCH   4   9
BRANCH   1  24
ATOM     22  N   UNL     1       6.640   4.623  14.748  0.00  0.00    +0.000 N 
ATOM     23  C   UNL     1       5.586   4.161  15.471  0.00  0.00    +0.000 A 
ATOM     24  C   UNL     1       5.682   4.734  16.725  0.00  0.00    +0.000 A 
ATOM     25  C   UNL     1       6.861   5.504  16.658  0.00  0.00    +0.000 A 
ATOM     26  N   UNL     1       7.451   5.435  15.457  0.00  0.00    +0.000 NA
BRANCH  22  28
ATOM     27  C   UNL     1       5.800   3.515  12.708  0.00  0.00    +0.000 C 
ATOM     28  C   UNL     1       6.914   4.317  13.363  0.00  0.00    +0.000 C 
ENDBRANCH  22  28
ENDBRANCH   1  24
TORSDOF 5
ENDMDL
MODEL 4
REMARK VINA RESULT:      -7.9      2.698      3.299
REMARK  Name = 
REMARK  6 active torsions:
REMARK  status: ('A' for Active; 'I' for Inactive)
REMARK    1  A    between atoms: C_1  and  C_2
REMARK    2  A    between atoms: C_2  and  N_3
REMARK    3  A    between atoms: C_5  and  C_6
REMARK    4  A    between atoms: C_9  and  C_10
REMARK    5  A    between atoms: C_13  and  N_14
REMARK    6  A    between atoms: C_15  and  C_16
REMARK                            x       y       z     vdW  Elec       q    Type
REMARK                         _______ _______ _______ _____ _____    ______ ____
ROOT
ATOM      1  C   UNL     1       2.188   5.773  20.093  0.00  0.00    +0.000 A 
ATOM      2  N   UNL     1       3.368   5.509  19.620  0.00  0.00    +0.000 NA
ATOM      3  N   UNL     1       3.399   4.178  19.456  0.00  0.00    +0.000 N 
ATOM      4  C   UNL     1       4.218   3.418  18.667  0.00  0.00    +0.000 A 
ATOM      5  C   UNL     1       3.681   2.139  18.826  0.00  0.00    +0.000 A 
ATOM      6  N   UNL     1       2.497   2.153  19.559  0.00  0.00    +0.000 NA
ATOM      7  C   UNL     1       2.355   3.414  19.859  0.00  0.00    +0.000 A 
ATOM      8  S   UNL     1       1.106   4.432  20.461  0.00  0.00    +0.000 S 
ENDROOT
BRANCH   4   9
ATOM      9  C   UNL     1       5.196   3.994  17.745  0.00  0.00    +0.000 A 
ATOM     10  C   UNL     1       5.320   3.524  16.449  0.00  0.00    +0.000 A 
ATOM     11  N   UNL     1       6.127   4.073  15.509  0.00  0.00    +0.000 NA
ATOM     12  C   UNL     1       6.836   5.172  15.837  0.00  0.00    +0.000 A 
ATOM     13  C   UNL     1       6.759   5.759  17.087  0.00  0.00    +0.000 A 
ATOM     14  C   UNL     1       5.942   5.137  18.051  0.00  0.00    +0.000 A 
BRANCH  13  15
ATOM     15  C   UNL     1       7.455   7.034  17.450  0.00  0.00    +0.000 C 
ATOM     16  F   UNL     1       8.283   7.548  16.498  0.00  0.00    +0.000 F 
ATOM     17  F   UNL     1       6.564   8.039  17.715  0.00  0.00    +0.000 F 
ATOM     18  F   UNL     1       8.208   6.920  18.581  0.00  0.00    +0.000 F 
ENDBRANCH  13  15
BRANCH  12  19
ATOM     19  N   UNL     1       7.712   5.590  14.850  0.00  0.00    +0.000 N 
ATOM     20  H   UNL     1       8.302   6.319  15.241  0.00  0.00    +0.000 HD
ATOM     21  H   UNL     1       8.238   4.856  14.399  0.00  0.00    +0.000 HD
ENDBRANCH  12  19
ENDBRANCH   4   9
BRANCH   1  24
ATOM     22  N   UNL     1       1.267   9.191  19.596  0.00  0.00    +0.000 N 
ATOM     23  C   UNL     1       1.844   8.044  19.152  0.00  0.00    +0.000 A 
ATOM     24  C   UNL     1       1.810   7.148  20.205  0.00  0.00    +0.000 A 
ATOM     25  C   UNL     1       1.217   7.880  21.255  0.00  0.00    +0.000 A 
ATOM     26  N   UNL     1       0.889   9.127  20.888  0.00  0.00    +0.000 NA
BRANCH  22  28
ATOM     27  C   UNL     1      -0.395  10.537  18.362  0.00  0.00    +0.000 C 
ATOM     28  C   UNL     1       1.050  10.386  18.813  0.00  0.00    +0.000 C 
ENDBRANCH  22  28
ENDBRANCH   1  24
TORSDOF 5
ENDMDL
MODEL 5
REMARK VINA RESULT:      -7.8      1.162      1.764
REMARK  Name = 
REMARK  6 active torsions:
REMARK  status: ('A' for Active; 'I' for Inactive)
REMARK    1  A    between atoms: C_1  and  C_2
REMARK    2  A    between atoms: C_2  and  N_3
REMARK    3  A    between atoms: C_5  and  C_6
REMARK    4  A    between atoms: C_9  and  C_10
REMARK    5  A    between atoms: C_13  and  N_14
REMARK    6  A    between atoms: C_15  and  C_16
REMARK                            x       y       z     vdW  Elec       q    Type
REMARK                         _______ _______ _______ _____ _____    ______ ____
ROOT
ATOM      1  C   UNL     1       2.371   5.486  19.843  0.00  0.00    +0.000 A 
ATOM      2  N   UNL     1       3.497   5.271  19.236  0.00  0.00    +0.000 NA
ATOM      3  N   UNL     1       3.527   3.952  18.992  0.00  0.00    +0.000 N 
ATOM      4  C   UNL     1       4.267   3.251  18.080  0.00  0.00    +0.000 A 
ATOM      5  C   UNL     1       3.766   1.957  18.219  0.00  0.00    +0.000 A 
ATOM      6  N   UNL     1       2.665   1.908  19.071  0.00  0.00    +0.000 NA
ATOM      7  C   UNL     1       2.541   3.147  19.457  0.00  0.00    +0.000 A 
ATOM      8  S   UNL     1       1.350   4.107  20.244  0.00  0.00    +0.000 S 
ENDROOT
BRANCH   4   9
ATOM      9  C   UNL     1       5.136   3.896  17.096  0.00  0.00    +0.000 A 
ATOM     10  C   UNL     1       6.231   4.646  17.492  0.00  0.00    +0.000 A 
ATOM     11  N   UNL     1       7.138   5.185  16.642  0.00  0.00    +0.000 NA
ATOM     12  C   UNL     1       6.995   4.953  15.321  0.00  0.00    +0.000 A 
ATOM     13  C   UNL     1       5.967   4.180  14.811  0.00  0.00    +0.000 A 
ATOM     14  C   UNL     1       5.020   3.671  15.720  0.00  0.00    +0.000 A 
BRANCH  13  15
ATOM     15  C   UNL     1       5.838   3.822  13.363  0.00  0.00    +0.000 C 
ATOM     16  F   UNL     1       4.590   3.942  12.832  0.00  0.00    +0.000 F 
ATOM     17  F   UNL     1       6.629   4.614  12.574  0.00  0.00    +0.000 F 
ATOM     18  F   UNL     1       6.239   2.546  13.098  0.00  0.00    +0.000 F 
ENDBRANCH  13  15
BRANCH  12  19
ATOM     19  N   UNL     1       7.902   5.635  14.530  0.00  0.00    +0.000 N 
ATOM     20  H   UNL     1       7.452   5.844  13.643  0.00  0.00    +0.000 HD
ATOM     21  H   UNL     1       8.326   6.446  14.957  0.00  0.00    +0.000 HD
ENDBRANCH  12  19
ENDBRANCH   4   9
BRANCH   1  24
ATOM     22  N   UNL     1       1.462   8.938  19.645  0.00  0.00    +0.000 N 
ATOM     23  C   UNL     1       2.050   7.835  19.110  0.00  0.00    +0.000 A 
ATOM     24  C   UNL     1       1.990   6.846  20.074  0.00  0.00    +0.000 A 
ATOM     25  C   UNL     1       1.373   7.478  21.173  0.00  0.00    +0.000 A 
ATOM     26  N   UNL     1       1.054   8.754  20.917  0.00  0.00    +0.000 NA
BRANCH  22  28
ATOM     27  C   UNL     1       2.174  10.370  17.763  0.00  0.00    +0.000 C 
ATOM     28  C   UNL     1       1.264  10.200  18.971  0.00  0.00    +0.000 C 
ENDBRANCH  22  28
ENDBRANCH   1  24
TORSDOF 5
ENDMDL
MODEL 6
REMARK VINA RESULT:      -7.8      1.151      1.533
REMARK  Name = 
REMARK  6 active torsions:
REMARK  status: ('A' for Active; 'I' for Inactive)
REMARK    1  A    between atoms: C_1  and  C_2
REMARK    2  A    between atoms: C_2  and  N_3
REMARK    3  A    between atoms: C_5  and  C_6
REMARK    4  A    between atoms: C_9  and  C_10
REMARK    5  A    between atoms: C_13  and  N_14
REMARK    6  A    between atoms: C_15  and  C_16
REMARK                            x       y       z     vdW  Elec       q    Type
REMARK                         _______ _______ _______ _____ _____    ______ ____
ROOT
ATOM      1  C   UNL     1       2.406   6.012  19.991  0.00  0.00    +0.000 A 
ATOM      2  N   UNL     1       3.562   5.805  19.440  0.00  0.00    +0.000 NA
ATOM      3  N   UNL     1       3.740   4.476  19.468  0.00  0.00    +0.000 N 
ATOM      4  C   UNL     1       4.571   3.693  18.716  0.00  0.00    +0.000 A 
ATOM      5  C   UNL     1       4.210   2.405  19.114  0.00  0.00    +0.000 A 
ATOM      6  N   UNL     1       3.102   2.407  19.959  0.00  0.00    +0.000 NA
ATOM      7  C   UNL     1       2.836   3.677  20.086  0.00  0.00    +0.000 A 
ATOM      8  S   UNL     1       1.531   4.638  20.664  0.00  0.00    +0.000 S 
ENDROOT
BRANCH   4   9
ATOM      9  C   UNL     1       5.387   4.219  17.622  0.00  0.00    +0.000 A 
ATOM     10  C   UNL     1       6.585   4.866  17.871  0.00  0.00    +0.000 A 
ATOM     11  N   UNL     1       7.443   5.286  16.910  0.00  0.00    +0.000 NA
ATOM     12  C   UNL     1       7.136   5.032  15.622  0.00  0.00    +0.000 A 
ATOM     13  C   UNL     1       5.989   4.352  15.253  0.00  0.00    +0.000 A 
ATOM     14  C   UNL     1       5.101   3.967  16.276  0.00  0.00    +0.000 A 
BRANCH  13  15
ATOM     15  C   UNL     1       5.670   3.968  13.842  0.00  0.00    +0.000 C 
ATOM     16  F   UNL     1       4.371   3.643  13.595  0.00  0.00    +0.000 F 
ATOM     17  F   UNL     1       5.947   4.983  12.966  0.00  0.00    +0.000 F 
ATOM     18  F   UNL     1       6.412   2.910  13.403  0.00  0.00    +0.000 F 
ENDBRANCH  13  15
BRANCH  12  19
ATOM     19  N   UNL     1       8.014   5.597  14.713  0.00  0.00    +0.000 N 
ATOM     20  H   UNL     1       8.722   6.106  15.234  0.00  0.00    +0.000 HD
ATOM     21  H   UNL     1       8.405   4.959  14.035  0.00  0.00    +0.000 HD
ENDBRANCH  12  19
ENDBRANCH   4   9
BRANCH   1  24
ATOM     22  N   UNL     1       1.041   9.252  20.644  0.00  0.00    +0.000 N 
ATOM     23  C   UNL     1       1.261   7.963  21.014  0.00  0.00    +0.000 A 
ATOM     24  C   UNL     1       1.875   7.341  19.943  0.00  0.00    +0.000 A 
ATOM     25  C   UNL     1       1.945   8.348  18.958  0.00  0.00    +0.000 A 
ATOM     26  N   UNL     1       1.433   9.513  19.380  0.00  0.00    +0.000 NA
BRANCH  22  28
ATOM     27  C   UNL     1      -0.063   9.743  22.797  0.00  0.00    +0.000 C 
ATOM     28  C   UNL     1       0.456  10.281  21.472  0.00  0.00    +0.000 C 
ENDBRANCH  22  28
ENDBRANCH   1  24
TORSDOF 5
ENDMDL
MODEL 7
REMARK VINA RESULT:      -7.8      2.710      3.227
REMARK  Name = 
REMARK  6 active torsions:
REMARK  status: ('A' for Active; 'I' for Inactive)
REMARK    1  A    between atoms: C_1  and  C_2
REMARK    2  A    between atoms: C_2  and  N_3
REMARK    3  A    between atoms: C_5  and  C_6
REMARK    4  A    between atoms: C_9  and  C_10
REMARK    5  A    between atoms: C_13  and  N_14
REMARK    6  A    between atoms: C_15  and  C_16
REMARK                            x       y       z     vdW  Elec       q    Type
REMARK                         _______ _______ _______ _____ _____    ______ ____
ROOT
ATOM      1  C   UNL     1       2.139   5.829  20.090  0.00  0.00    +0.000 A 
ATOM      2  N   UNL     1       3.332   5.591  19.640  0.00  0.00    +0.000 NA
ATOM      3  N   UNL     1       3.425   4.255  19.558  0.00  0.00    +0.000 N 
ATOM      4  C   UNL     1       4.282   3.486  18.822  0.00  0.00    +0.000 A 
ATOM      5  C   UNL     1       3.803   2.196  19.056  0.00  0.00    +0.000 A 
ATOM      6  N   UNL     1       2.614   2.201  19.782  0.00  0.00    +0.000 NA
ATOM      7  C   UNL     1       2.414   3.470  20.003  0.00  0.00    +0.000 A 
ATOM      8  S   UNL     1       1.116   4.465  20.536  0.00  0.00    +0.000 S 
ENDROOT
BRANCH   4   9
ATOM      9  C   UNL     1       5.241   4.048  17.870  0.00  0.00    +0.000 A 
ATOM     10  C   UNL     1       5.339   3.557  16.580  0.00  0.00    +0.000 A 
ATOM     11  N   UNL     1       6.125   4.092  15.615  0.00  0.00    +0.000 NA
ATOM     12  C   UNL     1       6.838   5.197  15.909  0.00  0.00    +0.000 A 
ATOM     13  C   UNL     1       6.785   5.805  17.151  0.00  0.00    +0.000 A 
ATOM     14  C   UNL     1       5.990   5.198  18.141  0.00  0.00    +0.000 A 
BRANCH  13  15
ATOM     15  C   UNL     1       7.486   7.087  17.477  0.00  0.00    +0.000 C 
ATOM     16  F   UNL     1       8.302   7.056  18.567  0.00  0.00    +0.000 F 
ATOM     17  F   UNL     1       8.293   7.498  16.450  0.00  0.00    +0.000 F 
ATOM     18  F   UNL     1       6.622   8.122  17.683  0.00  0.00    +0.000 F 
ENDBRANCH  13  15
BRANCH  12  19
ATOM     19  N   UNL     1       7.692   5.601  14.898  0.00  0.00    +0.000 N 
ATOM     20  H   UNL     1       8.276   4.809  14.643  0.00  0.00    +0.000 HD
ATOM     21  H   UNL     1       7.246   6.034  14.101  0.00  0.00    +0.000 HD
ENDBRANCH  12  19
ENDBRANCH   4   9
BRANCH   1  24
ATOM     22  N   UNL     1       1.007   9.116  20.926  0.00  0.00    +0.000 N 
ATOM     23  C   UNL     1       1.147   7.799  21.229  0.00  0.00    +0.000 A 
ATOM     24  C   UNL     1       1.698   7.190  20.117  0.00  0.00    +0.000 A 
ATOM     25  C   UNL     1       1.817   8.238  19.180  0.00  0.00    +0.000 A 
ATOM     26  N   UNL     1       1.392   9.412  19.668  0.00  0.00    +0.000 NA
BRANCH  22  28
ATOM     27  C   UNL     1      -0.057   9.570  23.107  0.00  0.00    +0.000 C 
ATOM     28  C   UNL     1       0.508  10.140  21.814  0.00  0.00    +0.000 C 
ENDBRANCH  22  28
ENDBRANCH   1  24
TORSDOF 5
ENDMDL
MODEL 8
REMARK VINA RESULT:      -7.7      4.724      6.919
REMARK  Name = 
REMARK  6 active torsions:
REMARK  status: ('A' for Active; 'I' for Inactive)
REMARK    1  A    between atoms: C_1  and  C_2
REMARK    2  A    between atoms: C_2  and  N_3
REMARK    3  A    between atoms: C_5  and  C_6
REMARK    4  A    between atoms: C_9  and  C_10
REMARK    5  A    between atoms: C_13  and  N_14
REMARK    6  A    between atoms: C_15  and  C_16
REMARK                            x       y       z     vdW  Elec       q    Type
REMARK                         _______ _______ _______ _____ _____    ______ ____
ROOT
ATOM      1  C   UNL     1      -0.789  10.501  19.355  0.00  0.00    +0.000 A 
ATOM      2  N   UNL     1       0.173   9.648  19.176  0.00  0.00    +0.000 NA
ATOM      3  N   UNL     1       0.760   9.514  20.375  0.00  0.00    +0.000 N 
ATOM      4  C   UNL     1       1.553   8.505  20.849  0.00  0.00    +0.000 A 
ATOM      5  C   UNL     1       1.740   8.873  22.181  0.00  0.00    +0.000 A 
ATOM      6  N   UNL     1       0.969   9.978  22.536  0.00  0.00    +0.000 NA
ATOM      7  C   UNL     1       0.363  10.278  21.422  0.00  0.00    +0.000 A 
ATOM      8  S   UNL     1      -0.964  11.260  20.936  0.00  0.00    +0.000 S 
ENDROOT
BRANCH   4   9
ATOM      9  C   UNL     1       1.824   7.284  20.091  0.00  0.00    +0.000 A 
ATOM     10  C   UNL     1       2.443   7.333  18.854  0.00  0.00    +0.000 A 
ATOM     11  N   UNL     1       2.820   6.243  18.142  0.00  0.00    +0.000 NA
ATOM     12  C   UNL     1       2.615   5.024  18.681  0.00  0.00    +0.000 A 
ATOM     13  C   UNL     1       2.048   4.852  19.931  0.00  0.00    +0.000 A 
ATOM     14  C   UNL     1       1.631   6.004  20.623  0.00  0.00    +0.000 A 
BRANCH  13  15
ATOM     15  C   UNL     1       1.899   3.520  20.597  0.00  0.00    +0.000 C 
ATOM     16  F   UNL     1       2.980   2.695  20.521  0.00  0.00    +0.000 F 
ATOM     17  F   UNL     1       1.654   3.649  21.938  0.00  0.00    +0.000 F 
ATOM     18  F   UNL     1       0.845   2.803  20.113  0.00  0.00    +0.000 F 
ENDBRANCH  13  15
BRANCH  12  19
ATOM     19  N   UNL     1       2.929   3.976  17.834  0.00  0.00    +0.000 N 
ATOM     20  H   UNL     1       2.521   4.172  16.924  0.00  0.00    +0.000 HD
ATOM     21  H   UNL     1       3.910   3.739  17.784  0.00  0.00    +0.000 HD
ENDBRANCH  12  19
ENDBRANCH   4   9
BRANCH   1  24
ATOM     22  N   UNL     1      -2.943  10.262  16.511  0.00  0.00    +0.000 N 
ATOM     23  C   UNL     1      -1.900   9.799  17.249  0.00  0.00    +0.000 A 
ATOM     24  C   UNL     1      -1.702  10.708  18.273  0.00  0.00    +0.000 A 
ATOM     25  C   UNL     1      -2.668  11.706  18.032  0.00  0.00    +0.000 A 
ATOM     26  N   UNL     1      -3.423  11.441  16.957  0.00  0.00    +0.000 NA
BRANCH  22  28
ATOM     27  C   UNL     1      -3.038  10.190  14.045  0.00  0.00    +0.000 C 
ATOM     28  C   UNL     1      -3.523   9.605  15.363  0.00  0.00    +0.000 C 
ENDBRANCH  22  28
ENDBRANCH   1  24
TORSDOF 5
ENDMDL
MODEL 9
REMARK VINA RESULT:      -7.7      4.628      8.067
REMARK  Name = 
REMARK  6 active torsions:
REMARK  status: ('A' for Active; 'I' for Inactive)
REMARK    1  A    between atoms: C_1  and  C_2
REMARK    2  A    between atoms: C_2  and  N_3
REMARK    3  A    between atoms: C_5  and  C_6
REMARK    4  A    between atoms: C_9  and  C_10
REMARK    5  A    between atoms: C_13  and  N_14
REMARK    6  A    between atoms: C_15  and  C_16
REMARK                            x       y       z     vdW  Elec       q    Type
REMARK                         _______ _______ _______ _____ _____    ______ ____
ROOT
ATOM      1  C   UNL     1       4.667   3.958  18.256  0.00  0.00    +0.000 A 
ATOM      2  N   UNL     1       3.712   4.830  18.364  0.00  0.00    +0.000 NA
ATOM      3  N   UNL     1       2.992   4.444  19.428  0.00  0.00    +0.000 N 
ATOM      4  C   UNL     1       2.129   5.167  20.204  0.00  0.00    +0.000 A 
ATOM      5  C   UNL     1       1.803   4.260  21.213  0.00  0.00    +0.000 A 
ATOM      6  N   UNL     1       2.556   3.090  21.132  0.00  0.00    +0.000 NA
ATOM      7  C   UNL     1       3.288   3.289  20.072  0.00  0.00    +0.000 A 
ATOM      8  S   UNL     1       4.683   2.581  19.355  0.00  0.00    +0.000 S 
ENDROOT
BRANCH   4   9
ATOM      9  C   UNL     1       1.915   6.604  20.032  0.00  0.00    +0.000 A 
ATOM     10  C   UNL     1       2.325   7.254  18.880  0.00  0.00    +0.000 A 
ATOM     11  N   UNL     1       2.071   8.556  18.604  0.00  0.00    +0.000 NA
ATOM     12  C   UNL     1       1.340   9.267  19.487  0.00  0.00    +0.000 A 
ATOM     13  C   UNL     1       0.837   8.712  20.650  0.00  0.00    +0.000 A 
ATOM     14  C   UNL     1       1.157   7.369  20.924  0.00  0.00    +0.000 A 
BRANCH  13  15
ATOM     15  C   UNL     1      -0.059   9.446  21.599  0.00  0.00    +0.000 C 
ATOM     16  F   UNL     1      -0.828   8.667  22.410  0.00  0.00    +0.000 F 
ATOM     17  F   UNL     1       0.654  10.241  22.455  0.00  0.00    +0.000 F 
ATOM     18  F   UNL     1      -0.919  10.292  20.964  0.00  0.00    +0.000 F 
ENDBRANCH  13  15
BRANCH  12  19
ATOM     19  N   UNL     1       1.230  10.610  19.172  0.00  0.00    +0.000 N 
ATOM     20  H   UNL     1       0.537  11.023  19.790  0.00  0.00    +0.000 HD
ATOM     21  H   UNL     1       2.099  11.123  19.154  0.00  0.00    +0.000 HD
ENDBRANCH  12  19
ENDBRANCH   4   9
BRANCH   1  24
ATOM     22  N   UNL     1       6.666   4.541  15.349  0.00  0.00    +0.000 N 
ATOM     23  C   UNL     1       5.546   4.042  15.936  0.00  0.00    +0.000 A 
ATOM     24  C   UNL     1       5.699   4.219  17.299  0.00  0.00    +0.000 A 
ATOM     25  C   UNL     1       6.975   4.806  17.425  0.00  0.00    +0.000 A 
ATOM     26  N   UNL     1       7.569   5.000  16.239  0.00  0.00    +0.000 NA
BRANCH  22  28
ATOM     27  C   UNL     1       5.990   3.703  13.127  0.00  0.00    +0.000 C 
ATOM     28  C   UNL     1       6.918   4.604  13.928  0.00  0.00    +0.000 C 
ENDBRANCH  22  28
ENDBRANCH   1  24
TORSDOF 5
ENDMDL
