MODEL 1
REMARK VINA RESULT:      -7.2      0.000      0.000
REMARK  Name = 
REMARK  6 active torsions:
REMARK  status: ('A' for Active; 'I' for Inactive)
REMARK    1  A    between atoms: O_1  and  C_2
REMARK    2  A    between atoms: C_4  and  N_5
REMARK    3  A    between atoms: N_5  and  C_6
REMARK    4  A    between atoms: C_6  and  C_7
REMARK    5  A    between atoms: C_7  and  C_8
REMARK    6  A    between atoms: C_8  and  C_9
REMARK                            x       y       z     vdW  Elec       q    Type
REMARK                         _______ _______ _______ _____ _____    ______ ____
ROOT
ATOM      1  C   UNL     1       7.380   5.588  16.212  0.00  0.00    +0.000 C 
ATOM      2  C   UNL     1       6.294   6.531  16.733  0.00  0.00    +0.000 C 
ATOM      3  C   UNL     1       5.112   5.873  17.475  0.00  0.00    +0.000 C 
ATOM      4  C   UNL     1       4.294   4.895  16.606  0.00  0.00    +0.000 C 
ATOM      5  C   UNL     1       5.073   3.680  16.102  0.00  0.00    +0.000 C 
ATOM      6  C   UNL     1       5.891   4.000  14.877  0.00  0.00    +0.000 A 
ATOM      7  C   UNL     1       5.534   3.429  13.644  0.00  0.00    +0.000 A 
ATOM      8  C   UNL     1       6.232   3.745  12.478  0.00  0.00    +0.000 A 
ATOM      9  C   UNL     1       7.303   4.627  12.531  0.00  0.00    +0.000 A 
ATOM     10  C   UNL     1       7.677   5.191  13.750  0.00  0.00    +0.000 A 
ATOM     11  C   UNL     1       6.978   4.891  14.934  0.00  0.00    +0.000 A 
ENDROOT
BRANCH   1  12
ATOM     12  O   UNL     1       7.767   4.642  17.204  0.00  0.00    +0.000 OA
ATOM     13  H   UNL     1       6.962   4.172  17.479  0.00  0.00    +0.000 HD
ENDBRANCH   1  12
BRANCH   3  14
ATOM     14  N   UNL     1       4.160   6.903  17.956  0.00  0.00    +0.000 NA
ATOM     15  H   UNL     1       4.109   7.659  17.271  0.00  0.00    +0.000 HD
BRANCH  14  16
ATOM     16  C   UNL     1       2.811   6.396  18.206  0.00  0.00    +0.000 C 
BRANCH  16  17
ATOM     17  C   UNL     1       2.502   6.425  19.703  0.00  0.00    +0.000 C 
BRANCH  17  18
ATOM     18  C   UNL     1       1.707   5.177  20.097  0.00  0.00    +0.000 C 
BRANCH  18  19
ATOM     19  C   UNL     1       2.311   3.920  19.528  0.00  0.00    +0.000 A 
ATOM     20  C   UNL     1       1.633   3.198  18.539  0.00  0.00    +0.000 A 
ATOM     21  C   UNL     1       2.185   2.025  18.019  0.00  0.00    +0.000 A 
ATOM     22  C   UNL     1       3.413   1.565  18.487  0.00  0.00    +0.000 A 
ATOM     23  C   UNL     1       4.092   2.273  19.477  0.00  0.00    +0.000 A 
ATOM     24  C   UNL     1       3.542   3.445  19.997  0.00  0.00    +0.000 A 
ENDBRANCH  18  19
ENDBRANCH  17  18
ENDBRANCH  16  17
ENDBRANCH  14  16
ENDBRANCH   3  14
TORSDOF 6
ENDMDL
MODEL 2
REMARK VINA RESULT:      -7.1      3.842      7.705
REMARK  Name = 
REMARK  6 active torsions:
REMARK  status: ('A' for Active; 'I' for Inactive)
REMARK    1  A    between atoms: O_1  and  C_2
REMARK    2  A    between atoms: C_4  and  N_5
REMARK    3  A    between atoms: N_5  and  C_6
REMARK    4  A    between atoms: C_6  and  C_7
REMARK    5  A    between atoms: C_7  and  C_8
REMARK    6  A    between atoms: C_8  and  C_9
REMARK                            x       y       z     vdW  Elec       q    Type
REMARK                         _______ _______ _______ _____ _____    ______ ____
ROOT
ATOM      1  C   UNL     1       3.849   4.007  16.969  0.00  0.00    +0.000 C 
ATOM      2  C   UNL     1       4.438   5.419  16.943  0.00  0.00    +0.000 C 
ATOM      3  C   UNL     1       5.668   5.666  17.841  0.00  0.00    +0.000 C 
ATOM      4  C   UNL     1       5.395   5.463  19.346  0.00  0.00    +0.000 C 
ATOM      5  C   UNL     1       4.991   4.041  19.738  0.00  0.00    +0.000 C 
ATOM      6  C   UNL     1       3.527   3.780  19.491  0.00  0.00    +0.000 A 
ATOM      7  C   UNL     1       2.668   3.596  20.588  0.00  0.00    +0.000 A 
ATOM      8  C   UNL     1       1.299   3.408  20.402  0.00  0.00    +0.000 A 
ATOM      9  C   UNL     1       0.771   3.390  19.118  0.00  0.00    +0.000 A 
ATOM     10  C   UNL     1       1.613   3.557  18.020  0.00  0.00    +0.000 A 
ATOM     11  C   UNL     1       2.996   3.758  18.190  0.00  0.00    +0.000 A 
ENDROOT
BRANCH   1  12
ATOM     12  O   UNL     1       4.866   3.017  16.850  0.00  0.00    +0.000 OA
ATOM     13  H   UNL     1       5.703   3.438  17.109  0.00  0.00    +0.000 HD
ENDBRANCH   1  12
BRANCH   3  14
ATOM     14  N   UNL     1       6.154   7.058  17.688  0.00  0.00    +0.000 NA
ATOM     15  H   UNL     1       5.987   7.570  18.556  0.00  0.00    +0.000 HD
BRANCH  14  16
ATOM     16  C   UNL     1       7.571   7.159  17.342  0.00  0.00    +0.000 C 
BRANCH  16  17
ATOM     17  C   UNL     1       8.302   8.053  18.345  0.00  0.00    +0.000 C 
BRANCH  17  18
ATOM     18  C   UNL     1       8.140   9.522  17.950  0.00  0.00    +0.000 C 
BRANCH  18  19
ATOM     19  C   UNL     1       9.200  10.394  18.570  0.00  0.00    +0.000 A 
ATOM     20  C   UNL     1      10.168  11.007  17.766  0.00  0.00    +0.000 A 
ATOM     21  C   UNL     1      11.159  11.805  18.340  0.00  0.00    +0.000 A 
ATOM     22  C   UNL     1      11.193  11.992  19.720  0.00  0.00    +0.000 A 
ATOM     23  C   UNL     1      10.238  11.379  20.530  0.00  0.00    +0.000 A 
ATOM     24  C   UNL     1       9.246  10.581  19.957  0.00  0.00    +0.000 A 
ENDBRANCH  18  19
ENDBRANCH  17  18
ENDBRANCH  16  17
ENDBRANCH  14  16
ENDBRANCH   3  14
TORSDOF 6
ENDMDL
MODEL 3
REMARK VINA RESULT:      -7.1      0.565      1.178
REMARK  Name = 
REMARK  6 active torsions:
REMARK  status: ('A' for Active; 'I' for Inactive)
REMARK    1  A    between atoms: O_1  and  C_2
REMARK    2  A    between atoms: C_4  and  N_5
REMARK    3  A    between atoms: N_5  and  C_6
REMARK    4  A    between atoms: C_6  and  C_7
REMARK    5  A    between atoms: C_7  and  C_8
REMARK    6  A    between atoms: C_8  and  C_9
REMARK                            x       y       z     vdW  Elec       q    Type
REMARK                         _______ _______ _______ _____ _____    ______ ____
ROOT
ATOM      1  C   UNL     1       7.151   5.426  16.998  0.00  0.00    +0.000 C 
ATOM      2  C   UNL     1       6.086   6.416  17.473  0.00  0.00    +0.000 C 
ATOM      3  C   UNL     1       4.760   5.809  17.977  0.00  0.00    +0.000 C 
ATOM      4  C   UNL     1       3.993   5.005  16.906  0.00  0.00    +0.000 C 
ATOM      5  C   UNL     1       4.730   3.774  16.377  0.00  0.00    +0.000 C 
ATOM      6  C   UNL     1       5.737   4.131  15.313  0.00  0.00    +0.000 A 
ATOM      7  C   UNL     1       5.510   3.720  13.988  0.00  0.00    +0.000 A 
ATOM      8  C   UNL     1       6.389   4.078  12.966  0.00  0.00    +0.000 A 
ATOM      9  C   UNL     1       7.512   4.842  13.256  0.00  0.00    +0.000 A 
ATOM     10  C   UNL     1       7.757   5.244  14.568  0.00  0.00    +0.000 A 
ATOM     11  C   UNL     1       6.875   4.901  15.610  0.00  0.00    +0.000 A 
ENDROOT
BRANCH   1  12
ATOM     12  O   UNL     1       7.314   4.355  17.923  0.00  0.00    +0.000 OA
ATOM     13  H   UNL     1       6.444   4.189  18.322  0.00  0.00    +0.000 HD
ENDBRANCH   1  12
BRANCH   3  14
ATOM     14  N   UNL     1       3.840   6.875  18.439  0.00  0.00    +0.000 NA
ATOM     15  H   UNL     1       3.818   7.624  17.745  0.00  0.00    +0.000 HD
BRANCH  14  16
ATOM     16  C   UNL     1       2.474   6.417  18.686  0.00  0.00    +0.000 C 
BRANCH  16  17
ATOM     17  C   UNL     1       2.269   6.132  20.174  0.00  0.00    +0.000 C 
BRANCH  17  18
ATOM     18  C   UNL     1       1.448   4.853  20.354  0.00  0.00    +0.000 C 
BRANCH  18  19
ATOM     19  C   UNL     1       2.133   3.653  19.755  0.00  0.00    +0.000 A 
ATOM     20  C   UNL     1       3.396   3.260  20.212  0.00  0.00    +0.000 A 
ATOM     21  C   UNL     1       4.038   2.156  19.649  0.00  0.00    +0.000 A 
ATOM     22  C   UNL     1       3.425   1.441  18.622  0.00  0.00    +0.000 A 
ATOM     23  C   UNL     1       2.171   1.829  18.155  0.00  0.00    +0.000 A 
ATOM     24  C   UNL     1       1.528   2.933  18.717  0.00  0.00    +0.000 A 
ENDBRANCH  18  19
ENDBRANCH  17  18
ENDBRANCH  16  17
ENDBRANCH  14  16
ENDBRANCH   3  14
TORSDOF 6
ENDMDL
MODEL 4
REMARK VINA RESULT:      -7.1      4.246      7.805
REMARK  Name = 
REMARK  6 active torsions:
REMARK  status: ('A' for Active; 'I' for Inactive)
REMARK    1  A    between atoms: O_1  and  C_2
REMARK    2  A    between atoms: C_4  and  N_5
REMARK    3  A    between atoms: N_5  and  C_6
REMARK    4  A    between atoms: C_6  and  C_7
REMARK    5  A    between atoms: C_7  and  C_8
REMARK    6  A    between atoms: C_8  and  C_9
REMARK                            x       y       z     vdW  Elec       q    Type
REMARK                         _______ _______ _______ _____ _____    ______ ____
ROOT
ATOM      1  C   UNL     1       4.555   4.278  16.357  0.00  0.00    +0.000 C 
ATOM      2  C   UNL     1       5.190   5.668  16.283  0.00  0.00    +0.000 C 
ATOM      3  C   UNL     1       6.395   5.924  17.212  0.00  0.00    +0.000 C 
ATOM      4  C   UNL     1       6.062   5.806  18.714  0.00  0.00    +0.000 C 
ATOM      5  C   UNL     1       5.598   4.420  19.162  0.00  0.00    +0.000 C 
ATOM      6  C   UNL     1       4.136   4.191  18.875  0.00  0.00    +0.000 A 
ATOM      7  C   UNL     1       3.233   4.090  19.946  0.00  0.00    +0.000 A 
ATOM      8  C   UNL     1       1.866   3.935  19.720  0.00  0.00    +0.000 A 
ATOM      9  C   UNL     1       1.384   3.867  18.419  0.00  0.00    +0.000 A 
ATOM     10  C   UNL     1       2.270   3.952  17.347  0.00  0.00    +0.000 A 
ATOM     11  C   UNL     1       3.651   4.119  17.557  0.00  0.00    +0.000 A 
ENDROOT
BRANCH   1  12
ATOM     12  O   UNL     1       5.543   3.253  16.327  0.00  0.00    +0.000 OA
ATOM     13  H   UNL     1       6.093   3.365  17.120  0.00  0.00    +0.000 HD
ENDBRANCH   1  12
BRANCH   3  14
ATOM     14  N   UNL     1       6.931   7.290  17.008  0.00  0.00    +0.000 NA
ATOM     15  H   UNL     1       6.161   7.960  17.029  0.00  0.00    +0.000 HD
BRANCH  14  16
ATOM     16  C   UNL     1       7.936   7.689  17.993  0.00  0.00    +0.000 C 
BRANCH  16  17
ATOM     17  C   UNL     1       8.188   9.195  17.916  0.00  0.00    +0.000 C 
BRANCH  17  18
ATOM     18  C   UNL     1       9.161   9.619  19.018  0.00  0.00    +0.000 C 
BRANCH  18  19
ATOM     19  C   UNL     1       9.332  11.114  19.077  0.00  0.00    +0.000 A 
ATOM     20  C   UNL     1       9.433  11.764  20.313  0.00  0.00    +0.000 A 
ATOM     21  C   UNL     1       9.579  13.151  20.370  0.00  0.00    +0.000 A 
ATOM     22  C   UNL     1       9.619  13.898  19.195  0.00  0.00    +0.000 A 
ATOM     23  C   UNL     1       9.511  13.260  17.960  0.00  0.00    +0.000 A 
ATOM     24  C   UNL     1       9.365  11.874  17.901  0.00  0.00    +0.000 A 
ENDBRANCH  18  19
ENDBRANCH  17  18
ENDBRANCH  16  17
ENDBRANCH  14  16
ENDBRANCH   3  14
TORSDOF 6
ENDMDL
MODEL 5
REMARK VINA RESULT:      -7.0      3.354      5.338
REMARK  Name = 
REMARK  6 active torsions:
REMARK  status: ('A' for Active; 'I' for Inactive)
REMARK    1  A    between atoms: O_1  and  C_2
REMARK    2  A    between atoms: C_4  and  N_5
REMARK    3  A    between atoms: N_5  and  C_6
REMARK    4  A    between atoms: C_6  and  C_7
REMARK    5  A    between atoms: C_7  and  C_8
REMARK    6  A    between atoms: C_8  and  C_9
REMARK                            x       y       z     vdW  Elec       q    Type
REMARK                         _______ _______ _______ _____ _____    ______ ____
ROOT
ATOM      1  C   UNL     1       5.805   4.479  18.875  0.00  0.00    +0.000 C 
ATOM      2  C   UNL     1       4.861   5.587  19.344  0.00  0.00    +0.000 C 
ATOM      3  C   UNL     1       3.350   5.287  19.251  0.00  0.00    +0.000 C 
ATOM      4  C   UNL     1       2.851   5.030  17.813  0.00  0.00    +0.000 C 
ATOM      5  C   UNL     1       3.465   3.808  17.130  0.00  0.00    +0.000 C 
ATOM      6  C   UNL     1       4.823   4.107  16.548  0.00  0.00    +0.000 A 
ATOM      7  C   UNL     1       4.985   4.120  15.152  0.00  0.00    +0.000 A 
ATOM      8  C   UNL     1       6.212   4.447  14.575  0.00  0.00    +0.000 A 
ATOM      9  C   UNL     1       7.296   4.755  15.386  0.00  0.00    +0.000 A 
ATOM     10  C   UNL     1       7.154   4.733  16.772  0.00  0.00    +0.000 A 
ATOM     11  C   UNL     1       5.921   4.415  17.371  0.00  0.00    +0.000 A 
ENDROOT
BRANCH   1  12
ATOM     12  O   UNL     1       5.428   3.214  19.409  0.00  0.00    +0.000 OA
ATOM     13  H   UNL     1       6.070   2.995  20.104  0.00  0.00    +0.000 HD
ENDBRANCH   1  12
BRANCH   3  14
ATOM     14  N   UNL     1       2.558   6.426  19.772  0.00  0.00    +0.000 NA
ATOM     15  H   UNL     1       2.930   6.707  20.680  0.00  0.00    +0.000 HD
BRANCH  14  16
ATOM     16  C   UNL     1       2.536   7.590  18.887  0.00  0.00    +0.000 C 
BRANCH  16  17
ATOM     17  C   UNL     1       1.506   8.609  19.374  0.00  0.00    +0.000 C 
BRANCH  17  18
ATOM     18  C   UNL     1       1.181   8.360  20.849  0.00  0.00    +0.000 C 
BRANCH  18  19
ATOM     19  C   UNL     1       0.315   9.446  21.428  0.00  0.00    +0.000 A 
ATOM     20  C   UNL     1      -0.068   9.401  22.774  0.00  0.00    +0.000 A 
ATOM     21  C   UNL     1      -0.882  10.401  23.310  0.00  0.00    +0.000 A 
ATOM     22  C   UNL     1      -1.321  11.449  22.504  0.00  0.00    +0.000 A 
ATOM     23  C   UNL     1      -0.951  11.499  21.162  0.00  0.00    +0.000 A 
ATOM     24  C   UNL     1      -0.139  10.500  20.625  0.00  0.00    +0.000 A 
ENDBRANCH  18  19
ENDBRANCH  17  18
ENDBRANCH  16  17
ENDBRANCH  14  16
ENDBRANCH   3  14
TORSDOF 6
ENDMDL
MODEL 6
REMARK VINA RESULT:      -7.0      1.152      1.338
REMARK  Name = 
REMARK  6 active torsions:
REMARK  status: ('A' for Active; 'I' for Inactive)
REMARK    1  A    between atoms: O_1  and  C_2
REMARK    2  A    between atoms: C_4  and  N_5
REMARK    3  A    between atoms: N_5  and  C_6
REMARK    4  A    between atoms: C_6  and  C_7
REMARK    5  A    between atoms: C_7  and  C_8
REMARK    6  A    between atoms: C_8  and  C_9
REMARK                            x       y       z     vdW  Elec       q    Type
REMARK                         _______ _______ _______ _____ _____    ______ ____
ROOT
ATOM      1  C   UNL     1       7.670   5.244  16.191  0.00  0.00    +0.000 C 
ATOM      2  C   UNL     1       6.706   6.193  16.905  0.00  0.00    +0.000 C 
ATOM      3  C   UNL     1       5.531   5.539  17.662  0.00  0.00    +0.000 C 
ATOM      4  C   UNL     1       4.575   4.735  16.756  0.00  0.00    +0.000 C 
ATOM      5  C   UNL     1       5.212   3.536  16.053  0.00  0.00    +0.000 C 
ATOM      6  C   UNL     1       5.962   3.943  14.810  0.00  0.00    +0.000 A 
ATOM      7  C   UNL     1       5.470   3.552  13.553  0.00  0.00    +0.000 A 
ATOM      8  C   UNL     1       6.104   3.956  12.378  0.00  0.00    +0.000 A 
ATOM      9  C   UNL     1       7.244   4.745  12.443  0.00  0.00    +0.000 A 
ATOM     10  C   UNL     1       7.751   5.128  13.684  0.00  0.00    +0.000 A 
ATOM     11  C   UNL     1       7.119   4.739  14.879  0.00  0.00    +0.000 A 
ENDROOT
BRANCH   1  12
ATOM     12  O   UNL     1       8.050   4.160  17.033  0.00  0.00    +0.000 OA
ATOM     13  H   UNL     1       9.015   4.071  16.964  0.00  0.00    +0.000 HD
ENDBRANCH   1  12
BRANCH   3  14
ATOM     14  N   UNL     1       4.705   6.569  18.335  0.00  0.00    +0.000 NA
ATOM     15  H   UNL     1       5.314   7.300  18.704  0.00  0.00    +0.000 HD
BRANCH  14  16
ATOM     16  C   UNL     1       3.696   7.180  17.471  0.00  0.00    +0.000 C 
BRANCH  16  17
ATOM     17  C   UNL     1       2.319   7.116  18.132  0.00  0.00    +0.000 C 
BRANCH  17  18
ATOM     18  C   UNL     1       2.455   6.626  19.575  0.00  0.00    +0.000 C 
BRANCH  18  19
ATOM     19  C   UNL     1       2.011   5.196  19.731  0.00  0.00    +0.000 A 
ATOM     20  C   UNL     1       1.589   4.463  18.615  0.00  0.00    +0.000 A 
ATOM     21  C   UNL     1       1.165   3.140  18.760  0.00  0.00    +0.000 A 
ATOM     22  C   UNL     1       1.155   2.544  20.019  0.00  0.00    +0.000 A 
ATOM     23  C   UNL     1       1.566   3.268  21.136  0.00  0.00    +0.000 A 
ATOM     24  C   UNL     1       1.990   4.590  20.994  0.00  0.00    +0.000 A 
ENDBRANCH  18  19
ENDBRANCH  17  18
ENDBRANCH  16  17
ENDBRANCH  14  16
ENDBRANCH   3  14
TORSDOF 6
ENDMDL
MODEL 7
REMARK VINA RESULT:      -6.9      2.025      6.877
REMARK  Name = 
REMARK  6 active torsions:
REMARK  status: ('A' for Active; 'I' for Inactive)
REMARK    1  A    between atoms: O_1  and  C_2
REMARK    2  A    between atoms: C_4  and  N_5
REMARK    3  A    between atoms: N_5  and  C_6
REMARK    4  A    between atoms: C_6  and  C_7
REMARK    5  A    between atoms: C_7  and  C_8
REMARK    6  A    between atoms: C_8  and  C_9
REMARK                            x       y       z     vdW  Elec       q    Type
REMARK                         _______ _______ _______ _____ _____    ______ ____
ROOT
ATOM      1  C   UNL     1       3.481   5.751  19.066  0.00  0.00    +0.000 C 
ATOM      2  C   UNL     1       4.851   5.310  18.548  0.00  0.00    +0.000 C 
ATOM      3  C   UNL     1       4.876   4.629  17.164  0.00  0.00    +0.000 C 
ATOM      4  C   UNL     1       4.073   3.312  17.101  0.00  0.00    +0.000 C 
ATOM      5  C   UNL     1       2.573   3.462  17.359  0.00  0.00    +0.000 C 
ATOM      6  C   UNL     1       2.256   3.523  18.831  0.00  0.00    +0.000 A 
ATOM      7  C   UNL     1       1.559   2.459  19.428  0.00  0.00    +0.000 A 
ATOM      8  C   UNL     1       1.296   2.452  20.798  0.00  0.00    +0.000 A 
ATOM      9  C   UNL     1       1.716   3.514  21.587  0.00  0.00    +0.000 A 
ATOM     10  C   UNL     1       2.395   4.584  21.006  0.00  0.00    +0.000 A 
ATOM     11  C   UNL     1       2.678   4.602  19.628  0.00  0.00    +0.000 A 
ENDROOT
BRANCH   1  12
ATOM     12  O   UNL     1       2.744   6.442  18.062  0.00  0.00    +0.000 OA
ATOM     13  H   UNL     1       1.891   5.986  17.971  0.00  0.00    +0.000 HD
ENDBRANCH   1  12
BRANCH   3  14
ATOM     14  N   UNL     1       6.265   4.291  16.773  0.00  0.00    +0.000 NA
ATOM     15  H   UNL     1       6.617   3.554  17.386  0.00  0.00    +0.000 HD
BRANCH  14  16
ATOM     16  C   UNL     1       6.404   3.860  15.382  0.00  0.00    +0.000 C 
BRANCH  16  17
ATOM     17  C   UNL     1       6.282   5.057  14.439  0.00  0.00    +0.000 C 
BRANCH  17  18
ATOM     18  C   UNL     1       7.116   4.817  13.179  0.00  0.00    +0.000 C 
BRANCH  18  19
ATOM     19  C   UNL     1       6.607   3.648  12.378  0.00  0.00    +0.000 A 
ATOM     20  C   UNL     1       5.232   3.471  12.184  0.00  0.00    +0.000 A 
ATOM     21  C   UNL     1       4.757   2.381  11.453  0.00  0.00    +0.000 A 
ATOM     22  C   UNL     1       5.651   1.458  10.915  0.00  0.00    +0.000 A 
ATOM     23  C   UNL     1       7.022   1.621  11.110  0.00  0.00    +0.000 A 
ATOM     24  C   UNL     1       7.498   2.710  11.841  0.00  0.00    +0.000 A 
ENDBRANCH  18  19
ENDBRANCH  17  18
ENDBRANCH  16  17
ENDBRANCH  14  16
ENDBRANCH   3  14
TORSDOF 6
ENDMDL
MODEL 8
REMARK VINA RESULT:      -6.8      4.478      7.991
REMARK  Name = 
REMARK  6 active torsions:
REMARK  status: ('A' for Active; 'I' for Inactive)
REMARK    1  A    between atoms: O_1  and  C_2
REMARK    2  A    between atoms: C_4  and  N_5
REMARK    3  A    between atoms: N_5  and  C_6
REMARK    4  A    between atoms: C_6  and  C_7
REMARK    5  A    between atoms: C_7  and  C_8
REMARK    6  A    between atoms: C_8  and  C_9
REMARK                            x       y       z     vdW  Elec       q    Type
REMARK                         _______ _______ _______ _____ _____    ______ ____
ROOT
ATOM      1  C   UNL     1       4.515   5.440  16.380  0.00  0.00    +0.000 C 
ATOM      2  C   UNL     1       5.561   6.555  16.430  0.00  0.00    +0.000 C 
ATOM      3  C   UNL     1       6.956   6.166  16.963  0.00  0.00    +0.000 C 
ATOM      4  C   UNL     1       6.950   5.669  18.424  0.00  0.00    +0.000 C 
ATOM      5  C   UNL     1       6.145   4.392  18.665  0.00  0.00    +0.000 C 
ATOM      6  C   UNL     1       4.671   4.670  18.810  0.00  0.00    +0.000 A 
ATOM      7  C   UNL     1       4.055   4.481  20.059  0.00  0.00    +0.000 A 
ATOM      8  C   UNL     1       2.707   4.781  20.247  0.00  0.00    +0.000 A 
ATOM      9  C   UNL     1       1.952   5.265  19.187  0.00  0.00    +0.000 A 
ATOM     10  C   UNL     1       2.545   5.444  17.938  0.00  0.00    +0.000 A 
ATOM     11  C   UNL     1       3.907   5.156  17.733  0.00  0.00    +0.000 A 
ENDROOT
BRANCH   1  12
ATOM     12  O   UNL     1       5.049   4.252  15.805  0.00  0.00    +0.000 OA
ATOM     13  H   UNL     1       4.474   4.014  15.059  0.00  0.00    +0.000 HD
ENDBRANCH   1  12
BRANCH   3  14
ATOM     14  N   UNL     1       7.875   7.328  16.919  0.00  0.00    +0.000 NA
ATOM     15  H   UNL     1       8.047   7.583  15.945  0.00  0.00    +0.000 HD
BRANCH  14  16
ATOM     16  C   UNL     1       7.385   8.502  17.640  0.00  0.00    +0.000 C 
BRANCH  16  17
ATOM     17  C   UNL     1       8.525   9.166  18.411  0.00  0.00    +0.000 C 
BRANCH  17  18
ATOM     18  C   UNL     1       8.735  10.596  17.906  0.00  0.00    +0.000 C 
BRANCH  18  19
ATOM     19  C   UNL     1       9.922  11.257  18.556  0.00  0.00    +0.000 A 
ATOM     20  C   UNL     1      10.974  11.744  17.772  0.00  0.00    +0.000 A 
ATOM     21  C   UNL     1      12.081  12.346  18.373  0.00  0.00    +0.000 A 
ATOM     22  C   UNL     1      12.146  12.459  19.760  0.00  0.00    +0.000 A 
ATOM     23  C   UNL     1      11.107  11.970  20.549  0.00  0.00    +0.000 A 
ATOM     24  C   UNL     1      10.000  11.368  19.950  0.00  0.00    +0.000 A 
ENDBRANCH  18  19
ENDBRANCH  17  18
ENDBRANCH  16  17
ENDBRANCH  14  16
ENDBRANCH   3  14
TORSDOF 6
ENDMDL
MODEL 9
REMARK VINA RESULT:      -6.8      3.611      5.519
REMARK  Name = 
REMARK  6 active torsions:
REMARK  status: ('A' for Active; 'I' for Inactive)
REMARK    1  A    between atoms: O_1  and  C_2
REMARK    2  A    between atoms: C_4  and  N_5
REMARK    3  A    between atoms: N_5  and  C_6
REMARK    4  A    between atoms: C_6  and  C_7
REMARK    5  A    between atoms: C_7  and  C_8
REMARK    6  A    between atoms: C_8  and  C_9
REMARK                            x       y       z     vdW  Elec       q    Type
REMARK                         _______ _______ _______ _____ _____    ______ ____
ROOT
ATOM      1  C   UNL     1       5.773   4.539  18.802  0.00  0.00    +0.000 C 
ATOM      2  C   UNL     1       4.766   5.605  19.237  0.00  0.00    +0.000 C 
ATOM      3  C   UNL     1       3.274   5.232  19.114  0.00  0.00    +0.000 C 
ATOM      4  C   UNL     1       2.821   4.935  17.668  0.00  0.00    +0.000 C 
ATOM      5  C   UNL     1       3.508   3.736  17.014  0.00  0.00    +0.000 C 
ATOM      6  C   UNL     1       4.863   4.094  16.459  0.00  0.00    +0.000 A 
ATOM      7  C   UNL     1       5.056   4.099  15.067  0.00  0.00    +0.000 A 
ATOM      8  C   UNL     1       6.278   4.478  14.513  0.00  0.00    +0.000 A 
ATOM      9  C   UNL     1       7.328   4.848  15.344  0.00  0.00    +0.000 A 
ATOM     10  C   UNL     1       7.156   4.834  16.727  0.00  0.00    +0.000 A 
ATOM     11  C   UNL     1       5.926   4.464  17.302  0.00  0.00    +0.000 A 
ENDROOT
BRANCH   1  12
ATOM     12  O   UNL     1       5.445   3.263  19.343  0.00  0.00    +0.000 OA
ATOM     13  H   UNL     1       4.477   3.184  19.318  0.00  0.00    +0.000 HD
ENDBRANCH   1  12
BRANCH   3  14
ATOM     14  N   UNL     1       2.417   6.337  19.603  0.00  0.00    +0.000 NA
ATOM     15  H   UNL     1       2.636   6.525  20.582  0.00  0.00    +0.000 HD
BRANCH  14  16
ATOM     16  C   UNL     1       2.551   7.577  18.839  0.00  0.00    +0.000 C 
BRANCH  16  17
ATOM     17  C   UNL     1       1.485   8.585  19.270  0.00  0.00    +0.000 C 
BRANCH  17  18
ATOM     18  C   UNL     1       1.095   9.472  18.085  0.00  0.00    +0.000 C 
BRANCH  18  19
ATOM     19  C   UNL     1      -0.182  10.227  18.340  0.00  0.00    +0.000 A 
ATOM     20  C   UNL     1      -0.261  11.145  19.393  0.00  0.00    +0.000 A 
ATOM     21  C   UNL     1      -1.449  11.836  19.639  0.00  0.00    +0.000 A 
ATOM     22  C   UNL     1      -2.566  11.611  18.838  0.00  0.00    +0.000 A 
ATOM     23  C   UNL     1      -2.500  10.693  17.792  0.00  0.00    +0.000 A 
ATOM     24  C   UNL     1      -1.313  10.001  17.545  0.00  0.00    +0.000 A 
ENDBRANCH  18  19
ENDBRANCH  17  18
ENDBRANCH  16  17
ENDBRANCH  14  16
ENDBRANCH   3  14
TORSDOF 6
ENDMDL
