MODEL 1
REMARK VINA RESULT:      -8.9      0.000      0.000
REMARK  Name = 
REMARK  9 active torsions:
REMARK  status: ('A' for Active; 'I' for Inactive)
REMARK    1  A    between atoms: C_1  and  C_2
REMARK    2  A    between atoms: C_2  and  C_3
REMARK    3  A    between atoms: C_2  and  C_4
REMARK    4  A    between atoms: C_4  and  C_5
REMARK    5  A    between atoms: N_8  and  C_9
REMARK    6  A    between atoms: C_9  and  C_10
REMARK    7  A    between atoms: C_10  and  C_12
REMARK    8  A    between atoms: C_17  and  C_18
REMARK    9  A    between atoms: C_21  and  O_22
REMARK                            x       y       z     vdW  Elec       q    Type
REMARK                         _______ _______ _______ _____ _____    ______ ____
ROOT
ATOM      1  C   UNL     1       3.045   4.735  18.837  0.00  0.00    +0.000 C 
ATOM      2  C   UNL     1       4.528   4.451  18.977  0.00  0.00    +0.000 C 
ATOM      3  O   UNL     1       5.006   3.502  19.588  0.00  0.00    +0.000 OA
ATOM      4  N   UNL     1       5.251   5.401  18.329  0.00  0.00    +0.000 N 
ATOM      5  C   UNL     1       4.471   6.285  17.658  0.00  0.00    +0.000 C 
ATOM      6  O   UNL     1       4.880   7.168  16.917  0.00  0.00    +0.000 OA
ATOM      7  C   UNL     1       3.008   6.064  18.057  0.00  0.00    +0.000 C 
ENDROOT
BRANCH   7   8
ATOM      8  C   UNL     1       2.485   7.365  18.646  0.00  0.00    +0.000 A 
ATOM      9  C   UNL     1       2.204   7.412  20.023  0.00  0.00    +0.000 A 
ATOM     10  C   UNL     1       1.362   8.395  20.550  0.00  0.00    +0.000 A 
ATOM     11  C   UNL     1       0.809   9.344  19.701  0.00  0.00    +0.000 A 
ATOM     12  C   UNL     1       1.160   9.385  18.358  0.00  0.00    +0.000 A 
ATOM     13  C   UNL     1       2.007   8.404  17.829  0.00  0.00    +0.000 A 
BRANCH  11  14
ATOM     14  O   UNL     1      -0.128  10.228  20.146  0.00  0.00    +0.000 OA
ATOM     15  H   UNL     1       0.177  10.583  20.998  0.00  0.00    +0.000 HD
ENDBRANCH  11  14
ENDBRANCH   7   8
BRANCH   1  16
ATOM     16  C   UNL     1       2.402   4.571  20.224  0.00  0.00    +0.000 C 
BRANCH  16  18
ATOM     17  C   UNL     1       0.850   2.820  19.163  0.00  0.00    +0.000 C 
ATOM     18  C   UNL     1       1.231   3.592  20.426  0.00  0.00    +0.000 C 
ATOM     19  C   UNL     1       1.624   2.589  21.525  0.00  0.00    +0.000 C 
ENDBRANCH  16  18
ENDBRANCH   1  16
BRANCH   4  20
ATOM     20  C   UNL     1       6.692   5.547  18.442  0.00  0.00    +0.000 C 
BRANCH  20  21
ATOM     21  C   UNL     1       7.483   4.640  17.527  0.00  0.00    +0.000 C 
ATOM     22  O   UNL     1       8.490   4.005  17.824  0.00  0.00    +0.000 OA
BRANCH  21  23
ATOM     23  C   UNL     1       6.927   4.560  16.103  0.00  0.00    +0.000 C 
ATOM     24  N   UNL     1       7.252   5.604  15.285  0.00  0.00    +0.000 N 
ATOM     25  O   UNL     1       6.238   3.613  15.751  0.00  0.00    +0.000 OA
ATOM     26  H   UNL     1       7.834   6.361  15.628  0.00  0.00    +0.000 HD
ATOM     27  H   UNL     1       6.918   5.611  14.332  0.00  0.00    +0.000 HD
ENDBRANCH  21  23
ENDBRANCH  20  21
ENDBRANCH   4  20
TORSDOF 7
ENDMDL
MODEL 2
REMARK VINA RESULT:      -8.8      1.261      1.633
REMARK  Name = 
REMARK  9 active torsions:
REMARK  status: ('A' for Active; 'I' for Inactive)
REMARK    1  A    between atoms: C_1  and  C_2
REMARK    2  A    between atoms: C_2  and  C_3
REMARK    3  A    between atoms: C_2  and  C_4
REMARK    4  A    between atoms: C_4  and  C_5
REMARK    5  A    between atoms: N_8  and  C_9
REMARK    6  A    between atoms: C_9  and  C_10
REMARK    7  A    between atoms: C_10  and  C_12
REMARK    8  A    between atoms: C_17  and  C_18
REMARK    9  A    between atoms: C_21  and  O_22
REMARK                            x       y       z     vdW  Elec       q    Type
REMARK                         _______ _______ _______ _____ _____    ______ ____
ROOT
ATOM      1  C   UNL     1       2.980   4.293  18.774  0.00  0.00    +0.000 C 
ATOM      2  C   UNL     1       4.437   3.874  18.741  0.00  0.00    +0.000 C 
ATOM      3  O   UNL     1       4.908   2.927  19.360  0.00  0.00    +0.000 OA
ATOM      4  N   UNL     1       5.145   4.702  17.930  0.00  0.00    +0.000 N 
ATOM      5  C   UNL     1       4.362   5.611  17.297  0.00  0.00    +0.000 C 
ATOM      6  O   UNL     1       4.741   6.396  16.440  0.00  0.00    +0.000 OA
ATOM      7  C   UNL     1       2.954   5.564  17.901  0.00  0.00    +0.000 C 
ENDROOT
BRANCH   7   8
ATOM      8  C   UNL     1       2.635   6.947  18.446  0.00  0.00    +0.000 A 
ATOM      9  C   UNL     1       2.321   7.073  19.811  0.00  0.00    +0.000 A 
ATOM     10  C   UNL     1       1.638   8.195  20.289  0.00  0.00    +0.000 A 
ATOM     11  C   UNL     1       1.278   9.201  19.402  0.00  0.00    +0.000 A 
ATOM     12  C   UNL     1       1.674   9.150  18.072  0.00  0.00    +0.000 A 
ATOM     13  C   UNL     1       2.363   8.030  17.593  0.00  0.00    +0.000 A 
BRANCH  11  14
ATOM     14  O   UNL     1       0.486  10.238  19.797  0.00  0.00    +0.000 OA
ATOM     15  H   UNL     1       0.182  10.703  18.999  0.00  0.00    +0.000 HD
ENDBRANCH  11  14
ENDBRANCH   7   8
BRANCH   1  16
ATOM     16  C   UNL     1       2.523   4.289  20.242  0.00  0.00    +0.000 C 
BRANCH  16  18
ATOM     17  C   UNL     1       0.581   2.775  19.510  0.00  0.00    +0.000 C 
ATOM     18  C   UNL     1       1.233   3.555  20.652  0.00  0.00    +0.000 C 
ATOM     19  C   UNL     1       1.574   2.578  21.792  0.00  0.00    +0.000 C 
ENDBRANCH  16  18
ENDBRANCH   1  16
BRANCH   4  20
ATOM     20  C   UNL     1       6.595   4.711  17.840  0.00  0.00    +0.000 C 
BRANCH  20  21
ATOM     21  C   UNL     1       7.272   5.666  18.797  0.00  0.00    +0.000 C 
ATOM     22  O   UNL     1       7.380   5.525  20.012  0.00  0.00    +0.000 OA
BRANCH  21  23
ATOM     23  C   UNL     1       7.846   6.915  18.123  0.00  0.00    +0.000 C 
ATOM     24  N   UNL     1       7.618   7.016  16.781  0.00  0.00    +0.000 N 
ATOM     25  O   UNL     1       8.465   7.748  18.769  0.00  0.00    +0.000 OA
ATOM     26  H   UNL     1       7.092   6.297  16.294  0.00  0.00    +0.000 HD
ATOM     27  H   UNL     1       7.970   7.817  16.275  0.00  0.00    +0.000 HD
ENDBRANCH  21  23
ENDBRANCH  20  21
ENDBRANCH   4  20
TORSDOF 7
ENDMDL
MODEL 3
REMARK VINA RESULT:      -8.4      0.706      1.006
REMARK  Name = 
REMARK  9 active torsions:
REMARK  status: ('A' for Active; 'I' for Inactive)
REMARK    1  A    between atoms: C_1  and  C_2
REMARK    2  A    between atoms: C_2  and  C_3
REMARK    3  A    between atoms: C_2  and  C_4
REMARK    4  A    between atoms: C_4  and  C_5
REMARK    5  A    between atoms: N_8  and  C_9
REMARK    6  A    between atoms: C_9  and  C_10
REMARK    7  A    between atoms: C_10  and  C_12
REMARK    8  A    between atoms: C_17  and  C_18
REMARK    9  A    between atoms: C_21  and  O_22
REMARK                            x       y       z     vdW  Elec       q    Type
REMARK                         _______ _______ _______ _____ _____    ______ ____
ROOT
ATOM      1  C   UNL     1       3.045   4.739  18.590  0.00  0.00    +0.000 C 
ATOM      2  C   UNL     1       4.517   4.427  18.776  0.00  0.00    +0.000 C 
ATOM      3  O   UNL     1       4.958   3.417  19.314  0.00  0.00    +0.000 OA
ATOM      4  N   UNL     1       5.278   5.430  18.264  0.00  0.00    +0.000 N 
ATOM      5  C   UNL     1       4.538   6.384  17.646  0.00  0.00    +0.000 C 
ATOM      6  O   UNL     1       4.989   7.331  17.018  0.00  0.00    +0.000 OA
ATOM      7  C   UNL     1       3.056   6.140  17.946  0.00  0.00    +0.000 C 
ENDROOT
BRANCH   7   8
ATOM      8  C   UNL     1       2.509   7.381  18.634  0.00  0.00    +0.000 A 
ATOM      9  C   UNL     1       2.238   7.318  20.013  0.00  0.00    +0.000 A 
ATOM     10  C   UNL     1       1.380   8.241  20.617  0.00  0.00    +0.000 A 
ATOM     11  C   UNL     1       0.801   9.239  19.845  0.00  0.00    +0.000 A 
ATOM     12  C   UNL     1       1.142   9.388  18.507  0.00  0.00    +0.000 A 
ATOM     13  C   UNL     1       2.004   8.468  17.902  0.00  0.00    +0.000 A 
BRANCH  11  14
ATOM     14  O   UNL     1      -0.151  10.067  20.362  0.00  0.00    +0.000 OA
ATOM     15  H   UNL     1       0.146  10.351  21.243  0.00  0.00    +0.000 HD
ENDBRANCH  11  14
ENDBRANCH   7   8
BRANCH   1  16
ATOM     16  C   UNL     1       2.331   4.445  19.920  0.00  0.00    +0.000 C 
BRANCH  16  18
ATOM     17  C   UNL     1       1.348   2.843  21.672  0.00  0.00    +0.000 C 
ATOM     18  C   UNL     1       1.818   3.026  20.229  0.00  0.00    +0.000 C 
ATOM     19  C   UNL     1       0.645   2.719  19.280  0.00  0.00    +0.000 C 
ENDBRANCH  16  18
ENDBRANCH   1  16
BRANCH   4  20
ATOM     20  C   UNL     1       6.712   5.548  18.464  0.00  0.00    +0.000 C 
BRANCH  20  21
ATOM     21  C   UNL     1       7.541   4.675  17.551  0.00  0.00    +0.000 C 
ATOM     22  O   UNL     1       8.526   4.015  17.871  0.00  0.00    +0.000 OA
BRANCH  21  23
ATOM     23  C   UNL     1       7.062   4.666  16.097  0.00  0.00    +0.000 C 
ATOM     24  N   UNL     1       6.300   3.591  15.736  0.00  0.00    +0.000 N 
ATOM     25  O   UNL     1       7.358   5.573  15.333  0.00  0.00    +0.000 OA
ATOM     26  H   UNL     1       6.079   2.869  16.413  0.00  0.00    +0.000 HD
ATOM     27  H   UNL     1       5.951   3.524  14.790  0.00  0.00    +0.000 HD
ENDBRANCH  21  23
ENDBRANCH  20  21
ENDBRANCH   4  20
TORSDOF 7
ENDMDL
MODEL 4
REMARK VINA RESULT:      -8.2      1.962      4.363
REMARK  Name = 
REMARK  9 active torsions:
REMARK  status: ('A' for Active; 'I' for Inactive)
REMARK    1  A    between atoms: C_1  and  C_2
REMARK    2  A    between atoms: C_2  and  C_3
REMARK    3  A    between atoms: C_2  and  C_4
REMARK    4  A    between atoms: C_4  and  C_5
REMARK    5  A    between atoms: N_8  and  C_9
REMARK    6  A    between atoms: C_9  and  C_10
REMARK    7  A    between atoms: C_10  and  C_12
REMARK    8  A    between atoms: C_17  and  C_18
REMARK    9  A    between atoms: C_21  and  O_22
REMARK                            x       y       z     vdW  Elec       q    Type
REMARK                         _______ _______ _______ _____ _____    ______ ____
ROOT
ATOM      1  C   UNL     1       4.360   6.925  18.441  0.00  0.00    +0.000 C 
ATOM      2  C   UNL     1       5.552   6.580  17.569  0.00  0.00    +0.000 C 
ATOM      3  O   UNL     1       6.065   7.336  16.752  0.00  0.00    +0.000 OA
ATOM      4  N   UNL     1       5.966   5.311  17.821  0.00  0.00    +0.000 N 
ATOM      5  C   UNL     1       5.280   4.729  18.836  0.00  0.00    +0.000 C 
ATOM      6  O   UNL     1       5.531   3.635  19.322  0.00  0.00    +0.000 OA
ATOM      7  C   UNL     1       4.086   5.614  19.204  0.00  0.00    +0.000 C 
ENDROOT
BRANCH   7   8
ATOM      8  C   UNL     1       2.821   4.789  19.022  0.00  0.00    +0.000 A 
ATOM      9  C   UNL     1       2.122   4.372  20.170  0.00  0.00    +0.000 A 
ATOM     10  C   UNL     1       1.221   3.305  20.112  0.00  0.00    +0.000 A 
ATOM     11  C   UNL     1       1.007   2.661  18.902  0.00  0.00    +0.000 A 
ATOM     12  C   UNL     1       1.600   3.126  17.735  0.00  0.00    +0.000 A 
ATOM     13  C   UNL     1       2.498   4.196  17.790  0.00  0.00    +0.000 A 
BRANCH  11  14
ATOM     14  O   UNL     1       0.251   1.529  18.830  0.00  0.00    +0.000 OA
ATOM     15  H   UNL     1      -0.659   1.790  18.607  0.00  0.00    +0.000 HD
ENDBRANCH  11  14
ENDBRANCH   7   8
BRANCH   1  16
ATOM     16  C   UNL     1       3.305   7.600  17.549  0.00  0.00    +0.000 C 
BRANCH  16  18
ATOM     17  C   UNL     1       1.981   8.088  19.696  0.00  0.00    +0.000 C 
ATOM     18  C   UNL     1       2.042   8.220  18.174  0.00  0.00    +0.000 C 
ATOM     19  C   UNL     1       2.002   9.713  17.801  0.00  0.00    +0.000 C 
ENDBRANCH  16  18
ENDBRANCH   1  16
BRANCH   4  20
ATOM     20  C   UNL     1       6.943   4.598  17.017  0.00  0.00    +0.000 C 
BRANCH  20  21
ATOM     21  C   UNL     1       6.372   3.945  15.778  0.00  0.00    +0.000 C 
ATOM     22  O   UNL     1       5.563   3.023  15.748  0.00  0.00    +0.000 OA
BRANCH  21  23
ATOM     23  C   UNL     1       6.906   4.531  14.468  0.00  0.00    +0.000 C 
ATOM     24  N   UNL     1       7.807   5.549  14.603  0.00  0.00    +0.000 N 
ATOM     25  O   UNL     1       6.530   4.098  13.388  0.00  0.00    +0.000 OA
ATOM     26  H   UNL     1       8.089   5.865  15.525  0.00  0.00    +0.000 HD
ATOM     27  H   UNL     1       8.198   5.979  13.777  0.00  0.00    +0.000 HD
ENDBRANCH  21  23
ENDBRANCH  20  21
ENDBRANCH   4  20
TORSDOF 7
ENDMDL
MODEL 5
REMARK VINA RESULT:      -8.2      1.933      4.366
REMARK  Name = 
REMARK  9 active torsions:
REMARK  status: ('A' for Active; 'I' for Inactive)
REMARK    1  A    between atoms: C_1  and  C_2
REMARK    2  A    between atoms: C_2  and  C_3
REMARK    3  A    between atoms: C_2  and  C_4
REMARK    4  A    between atoms: C_4  and  C_5
REMARK    5  A    between atoms: N_8  and  C_9
REMARK    6  A    between atoms: C_9  and  C_10
REMARK    7  A    between atoms: C_10  and  C_12
REMARK    8  A    between atoms: C_17  and  C_18
REMARK    9  A    between atoms: C_21  and  O_22
REMARK                            x       y       z     vdW  Elec       q    Type
REMARK                         _______ _______ _______ _____ _____    ______ ____
ROOT
ATOM      1  C   UNL     1       4.185   6.877  18.375  0.00  0.00    +0.000 C 
ATOM      2  C   UNL     1       5.247   6.656  17.315  0.00  0.00    +0.000 C 
ATOM      3  O   UNL     1       5.393   7.348  16.313  0.00  0.00    +0.000 OA
ATOM      4  N   UNL     1       6.010   5.578  17.632  0.00  0.00    +0.000 N 
ATOM      5  C   UNL     1       5.692   5.049  18.840  0.00  0.00    +0.000 C 
ATOM      6  O   UNL     1       6.297   4.145  19.398  0.00  0.00    +0.000 OA
ATOM      7  C   UNL     1       4.398   5.697  19.344  0.00  0.00    +0.000 C 
ENDROOT
BRANCH   7   8
ATOM      8  C   UNL     1       3.375   4.591  19.553  0.00  0.00    +0.000 A 
ATOM      9  C   UNL     1       3.130   3.696  18.496  0.00  0.00    +0.000 A 
ATOM     10  C   UNL     1       1.957   2.938  18.456  0.00  0.00    +0.000 A 
ATOM     11  C   UNL     1       1.030   3.064  19.481  0.00  0.00    +0.000 A 
ATOM     12  C   UNL     1       1.301   3.856  20.589  0.00  0.00    +0.000 A 
ATOM     13  C   UNL     1       2.477   4.612  20.634  0.00  0.00    +0.000 A 
BRANCH  11  14
ATOM     14  O   UNL     1      -0.188   2.456  19.409  0.00  0.00    +0.000 OA
ATOM     15  H   UNL     1      -0.477   2.255  20.316  0.00  0.00    +0.000 HD
ENDBRANCH  11  14
ENDBRANCH   7   8
BRANCH   1  16
ATOM     16  C   UNL     1       2.849   7.127  17.656  0.00  0.00    +0.000 C 
BRANCH  16  18
ATOM     17  C   UNL     1       1.813   8.091  19.800  0.00  0.00    +0.000 C 
ATOM     18  C   UNL     1       1.801   8.073  18.272  0.00  0.00    +0.000 C 
ATOM     19  C   UNL     1       2.074   9.497  17.755  0.00  0.00    +0.000 C 
ENDBRANCH  16  18
ENDBRANCH   1  16
BRANCH   4  20
ATOM     20  C   UNL     1       6.974   4.967  16.733  0.00  0.00    +0.000 C 
BRANCH  20  21
ATOM     21  C   UNL     1       6.359   4.113  15.649  0.00  0.00    +0.000 C 
ATOM     22  O   UNL     1       5.551   3.203  15.809  0.00  0.00    +0.000 OA
BRANCH  21  23
ATOM     23  C   UNL     1       6.843   4.459  14.239  0.00  0.00    +0.000 C 
ATOM     24  N   UNL     1       6.388   3.641  13.243  0.00  0.00    +0.000 N 
ATOM     25  O   UNL     1       7.589   5.408  14.046  0.00  0.00    +0.000 OA
ATOM     26  H   UNL     1       5.765   2.870  13.459  0.00  0.00    +0.000 HD
ATOM     27  H   UNL     1       6.670   3.815  12.289  0.00  0.00    +0.000 HD
ENDBRANCH  21  23
ENDBRANCH  20  21
ENDBRANCH   4  20
TORSDOF 7
ENDMDL
MODEL 6
REMARK VINA RESULT:      -8.1      2.550      5.306
REMARK  Name = 
REMARK  9 active torsions:
REMARK  status: ('A' for Active; 'I' for Inactive)
REMARK    1  A    between atoms: C_1  and  C_2
REMARK    2  A    between atoms: C_2  and  C_3
REMARK    3  A    between atoms: C_2  and  C_4
REMARK    4  A    between atoms: C_4  and  C_5
REMARK    5  A    between atoms: N_8  and  C_9
REMARK    6  A    between atoms: C_9  and  C_10
REMARK    7  A    between atoms: C_10  and  C_12
REMARK    8  A    between atoms: C_17  and  C_18
REMARK    9  A    between atoms: C_21  and  O_22
REMARK                            x       y       z     vdW  Elec       q    Type
REMARK                         _______ _______ _______ _____ _____    ______ ____
ROOT
ATOM      1  C   UNL     1       2.419   5.892  18.470  0.00  0.00    +0.000 C 
ATOM      2  C   UNL     1       1.892   4.733  19.294  0.00  0.00    +0.000 C 
ATOM      3  O   UNL     1       1.052   4.828  20.181  0.00  0.00    +0.000 OA
ATOM      4  N   UNL     1       2.488   3.574  18.909  0.00  0.00    +0.000 N 
ATOM      5  C   UNL     1       3.311   3.739  17.843  0.00  0.00    +0.000 C 
ATOM      6  O   UNL     1       3.881   2.837  17.245  0.00  0.00    +0.000 OA
ATOM      7  C   UNL     1       3.491   5.236  17.577  0.00  0.00    +0.000 C 
ENDROOT
BRANCH   7   8
ATOM      8  C   UNL     1       4.975   5.553  17.681  0.00  0.00    +0.000 A 
ATOM      9  C   UNL     1       5.696   5.033  18.771  0.00  0.00    +0.000 A 
ATOM     10  C   UNL     1       6.918   5.592  19.154  0.00  0.00    +0.000 A 
ATOM     11  C   UNL     1       7.429   6.667  18.439  0.00  0.00    +0.000 A 
ATOM     12  C   UNL     1       6.790   7.124  17.293  0.00  0.00    +0.000 A 
ATOM     13  C   UNL     1       5.570   6.562  16.905  0.00  0.00    +0.000 A 
BRANCH  11  14
ATOM     14  O   UNL     1       8.539   7.333  18.864  0.00  0.00    +0.000 OA
ATOM     15  H   UNL     1       9.211   6.672  19.104  0.00  0.00    +0.000 HD
ENDBRANCH  11  14
ENDBRANCH   7   8
BRANCH   1  16
ATOM     16  C   UNL     1       2.739   7.046  19.435  0.00  0.00    +0.000 C 
BRANCH  16  18
ATOM     17  C   UNL     1       1.645   8.637  17.739  0.00  0.00    +0.000 C 
ATOM     18  C   UNL     1       2.216   8.466  19.147  0.00  0.00    +0.000 C 
ATOM     19  C   UNL     1       1.116   8.792  20.173  0.00  0.00    +0.000 C 
ENDBRANCH  16  18
ENDBRANCH   1  16
BRANCH   4  20
ATOM     20  C   UNL     1       2.369   2.318  19.628  0.00  0.00    +0.000 C 
BRANCH  20  21
ATOM     21  C   UNL     1       3.173   2.254  20.906  0.00  0.00    +0.000 C 
ATOM     22  O   UNL     1       2.810   2.637  22.015  0.00  0.00    +0.000 OA
BRANCH  21  23
ATOM     23  C   UNL     1       4.571   1.655  20.730  0.00  0.00    +0.000 C 
ATOM     24  N   UNL     1       4.885   1.259  19.461  0.00  0.00    +0.000 N 
ATOM     25  O   UNL     1       5.332   1.549  21.680  0.00  0.00    +0.000 OA
ATOM     26  H   UNL     1       4.216   1.377  18.707  0.00  0.00    +0.000 HD
ATOM     27  H   UNL     1       5.793   0.856  19.277  0.00  0.00    +0.000 HD
ENDBRANCH  21  23
ENDBRANCH  20  21
ENDBRANCH   4  20
TORSDOF 7
ENDMDL
MODEL 7
REMARK VINA RESULT:      -8.1      0.844      1.295
REMARK  Name = 
REMARK  9 active torsions:
REMARK  status: ('A' for Active; 'I' for Inactive)
REMARK    1  A    between atoms: C_1  and  C_2
REMARK    2  A    between atoms: C_2  and  C_3
REMARK    3  A    between atoms: C_2  and  C_4
REMARK    4  A    between atoms: C_4  and  C_5
REMARK    5  A    between atoms: N_8  and  C_9
REMARK    6  A    between atoms: C_9  and  C_10
REMARK    7  A    between atoms: C_10  and  C_12
REMARK    8  A    between atoms: C_17  and  C_18
REMARK    9  A    between atoms: C_21  and  O_22
REMARK                            x       y       z     vdW  Elec       q    Type
REMARK                         _______ _______ _______ _____ _____    ______ ____
ROOT
ATOM      1  C   UNL     1       3.087   4.355  18.833  0.00  0.00    +0.000 C 
ATOM      2  C   UNL     1       4.600   4.320  18.926  0.00  0.00    +0.000 C 
ATOM      3  O   UNL     1       5.244   3.506  19.577  0.00  0.00    +0.000 OA
ATOM      4  N   UNL     1       5.139   5.325  18.187  0.00  0.00    +0.000 N 
ATOM      5  C   UNL     1       4.205   6.024  17.495  0.00  0.00    +0.000 C 
ATOM      6  O   UNL     1       4.442   6.906  16.681  0.00  0.00    +0.000 OA
ATOM      7  C   UNL     1       2.811   5.603  17.970  0.00  0.00    +0.000 C 
ENDROOT
BRANCH   7   8
ATOM      8  C   UNL     1       2.104   6.843  18.496  0.00  0.00    +0.000 A 
ATOM      9  C   UNL     1       1.765   7.858  17.582  0.00  0.00    +0.000 A 
ATOM     10  C   UNL     1       1.499   9.158  18.022  0.00  0.00    +0.000 A 
ATOM     11  C   UNL     1       1.560   9.443  19.379  0.00  0.00    +0.000 A 
ATOM     12  C   UNL     1       1.783   8.434  20.307  0.00  0.00    +0.000 A 
ATOM     13  C   UNL     1       2.044   7.132  19.869  0.00  0.00    +0.000 A 
BRANCH  11  14
ATOM     14  O   UNL     1       1.452  10.723  19.836  0.00  0.00    +0.000 OA
ATOM     15  H   UNL     1       0.515  10.894  20.029  0.00  0.00    +0.000 HD
ENDBRANCH  11  14
ENDBRANCH   7   8
BRANCH   1  16
ATOM     16  C   UNL     1       2.524   4.191  20.254  0.00  0.00    +0.000 C 
BRANCH  16  18
ATOM     17  C   UNL     1       0.729   2.633  19.279  0.00  0.00    +0.000 C 
ATOM     18  C   UNL     1       1.189   3.459  20.481  0.00  0.00    +0.000 C 
ATOM     19  C   UNL     1       1.349   2.526  21.695  0.00  0.00    +0.000 C 
ENDBRANCH  16  18
ENDBRANCH   1  16
BRANCH   4  20
ATOM     20  C   UNL     1       6.540   5.705  18.227  0.00  0.00    +0.000 C 
BRANCH  20  21
ATOM     21  C   UNL     1       7.456   4.790  17.447  0.00  0.00    +0.000 C 
ATOM     22  O   UNL     1       8.418   4.171  17.891  0.00  0.00    +0.000 OA
BRANCH  21  23
ATOM     23  C   UNL     1       7.101   4.679  15.962  0.00  0.00    +0.000 C 
ATOM     24  N   UNL     1       6.351   3.592  15.616  0.00  0.00    +0.000 N 
ATOM     25  O   UNL     1       7.481   5.521  15.161  0.00  0.00    +0.000 OA
ATOM     26  H   UNL     1       6.056   2.926  16.323  0.00  0.00    +0.000 HD
ATOM     27  H   UNL     1       6.082   3.460  14.651  0.00  0.00    +0.000 HD
ENDBRANCH  21  23
ENDBRANCH  20  21
ENDBRANCH   4  20
TORSDOF 7
ENDMDL
MODEL 8
REMARK VINA RESULT:      -8.0      1.142      1.528
REMARK  Name = 
REMARK  9 active torsions:
REMARK  status: ('A' for Active; 'I' for Inactive)
REMARK    1  A    between atoms: C_1  and  C_2
REMARK    2  A    between atoms: C_2  and  C_3
REMARK    3  A    between atoms: C_2  and  C_4
REMARK    4  A    between atoms: C_4  and  C_5
REMARK    5  A    between atoms: N_8  and  C_9
REMARK    6  A    between atoms: C_9  and  C_10
REMARK    7  A    between atoms: C_10  and  C_12
REMARK    8  A    between atoms: C_17  and  C_18
REMARK    9  A    between atoms: C_21  and  O_22
REMARK                            x       y       z     vdW  Elec       q    Type
REMARK                         _______ _______ _______ _____ _____    ______ ____
ROOT
ATOM      1  C   UNL     1       2.593   4.841  18.827  0.00  0.00    +0.000 C 
ATOM      2  C   UNL     1       4.004   4.407  19.175  0.00  0.00    +0.000 C 
ATOM      3  O   UNL     1       4.292   3.395  19.802  0.00  0.00    +0.000 OA
ATOM      4  N   UNL     1       4.903   5.305  18.694  0.00  0.00    +0.000 N 
ATOM      5  C   UNL     1       4.321   6.286  17.959  0.00  0.00    +0.000 C 
ATOM      6  O   UNL     1       4.919   7.150  17.334  0.00  0.00    +0.000 OA
ATOM      7  C   UNL     1       2.800   6.196  18.120  0.00  0.00    +0.000 C 
ENDROOT
BRANCH   7   8
ATOM      8  C   UNL     1       2.314   7.519  18.689  0.00  0.00    +0.000 A 
ATOM      9  C   UNL     1       2.031   7.594  20.065  0.00  0.00    +0.000 A 
ATOM     10  C   UNL     1       1.218   8.609  20.576  0.00  0.00    +0.000 A 
ATOM     11  C   UNL     1       0.694   9.561  19.712  0.00  0.00    +0.000 A 
ATOM     12  C   UNL     1       1.049   9.572  18.369  0.00  0.00    +0.000 A 
ATOM     13  C   UNL     1       1.868   8.560  17.857  0.00  0.00    +0.000 A 
BRANCH  11  14
ATOM     14  O   UNL     1      -0.218  10.478  20.142  0.00  0.00    +0.000 OA
ATOM     15  H   UNL     1       0.062  10.790  21.019  0.00  0.00    +0.000 HD
ENDBRANCH  11  14
ENDBRANCH   7   8
BRANCH   1  16
ATOM     16  C   UNL     1       1.731   4.691  20.091  0.00  0.00    +0.000 C 
BRANCH  16  18
ATOM     17  C   UNL     1       0.923   2.451  19.126  0.00  0.00    +0.000 C 
ATOM     18  C   UNL     1       0.866   3.433  20.296  0.00  0.00    +0.000 C 
ATOM     19  C   UNL     1       1.349   2.718  21.571  0.00  0.00    +0.000 C 
ENDBRANCH  16  18
ENDBRANCH   1  16
BRANCH   4  20
ATOM     20  C   UNL     1       6.316   5.304  19.030  0.00  0.00    +0.000 C 
BRANCH  20  21
ATOM     21  C   UNL     1       7.230   5.656  17.879  0.00  0.00    +0.000 C 
ATOM     22  O   UNL     1       7.484   4.950  16.908  0.00  0.00    +0.000 OA
BRANCH  21  23
ATOM     23  C   UNL     1       7.881   7.037  18.004  0.00  0.00    +0.000 C 
ATOM     24  N   UNL     1       7.635   7.899  16.974  0.00  0.00    +0.000 N 
ATOM     25  O   UNL     1       8.571   7.320  18.973  0.00  0.00    +0.000 OA
ATOM     26  H   UNL     1       7.048   7.614  16.196  0.00  0.00    +0.000 HD
ATOM     27  H   UNL     1       8.034   8.826  16.996  0.00  0.00    +0.000 HD
ENDBRANCH  21  23
ENDBRANCH  20  21
ENDBRANCH   4  20
TORSDOF 7
ENDMDL
MODEL 9
REMARK VINA RESULT:      -7.9      2.045      4.418
REMARK  Name = 
REMARK  9 active torsions:
REMARK  status: ('A' for Active; 'I' for Inactive)
REMARK    1  A    between atoms: C_1  and  C_2
REMARK    2  A    between atoms: C_2  and  C_3
REMARK    3  A    between atoms: C_2  and  C_4
REMARK    4  A    between atoms: C_4  and  C_5
REMARK    5  A    between atoms: N_8  and  C_9
REMARK    6  A    between atoms: C_9  and  C_10
REMARK    7  A    between atoms: C_10  and  C_12
REMARK    8  A    between atoms: C_17  and  C_18
REMARK    9  A    between atoms: C_21  and  O_22
REMARK                            x       y       z     vdW  Elec       q    Type
REMARK                         _______ _______ _______ _____ _____    ______ ____
ROOT
ATOM      1  C   UNL     1       4.421   6.883  18.501  0.00  0.00    +0.000 C 
ATOM      2  C   UNL     1       5.695   6.613  17.723  0.00  0.00    +0.000 C 
ATOM      3  O   UNL     1       6.239   7.411  16.970  0.00  0.00    +0.000 OA
ATOM      4  N   UNL     1       6.143   5.356  17.979  0.00  0.00    +0.000 N 
ATOM      5  C   UNL     1       5.403   4.718  18.919  0.00  0.00    +0.000 C 
ATOM      6  O   UNL     1       5.661   3.623  19.399  0.00  0.00    +0.000 OA
ATOM      7  C   UNL     1       4.143   5.541  19.208  0.00  0.00    +0.000 C 
ENDROOT
BRANCH   7   8
ATOM      8  C   UNL     1       2.936   4.668  18.902  0.00  0.00    +0.000 A 
ATOM      9  C   UNL     1       2.029   4.391  19.940  0.00  0.00    +0.000 A 
ATOM     10  C   UNL     1       1.154   3.305  19.857  0.00  0.00    +0.000 A 
ATOM     11  C   UNL     1       1.176   2.499  18.727  0.00  0.00    +0.000 A 
ATOM     12  C   UNL     1       1.983   2.818  17.643  0.00  0.00    +0.000 A 
ATOM     13  C   UNL     1       2.856   3.908  17.723  0.00  0.00    +0.000 A 
BRANCH  11  14
ATOM     14  O   UNL     1       0.446   1.349  18.667  0.00  0.00    +0.000 OA
ATOM     15  H   UNL     1       0.905   0.734  18.070  0.00  0.00    +0.000 HD
ENDBRANCH  11  14
ENDBRANCH   7   8
BRANCH   1  16
ATOM     16  C   UNL     1       3.413   7.535  17.540  0.00  0.00    +0.000 C 
BRANCH  16  18
ATOM     17  C   UNL     1       1.958   8.030  19.598  0.00  0.00    +0.000 C 
ATOM     18  C   UNL     1       2.113   8.156  18.083  0.00  0.00    +0.000 C 
ATOM     19  C   UNL     1       2.093   9.647  17.702  0.00  0.00    +0.000 C 
ENDBRANCH  16  18
ENDBRANCH   1  16
BRANCH   4  20
ATOM     20  C   UNL     1       7.213   4.706  17.243  0.00  0.00    +0.000 C 
BRANCH  20  21
ATOM     21  C   UNL     1       7.084   4.805  15.740  0.00  0.00    +0.000 C 
ATOM     22  O   UNL     1       7.633   5.628  15.014  0.00  0.00    +0.000 OA
BRANCH  21  23
ATOM     23  C   UNL     1       6.152   3.755  15.128  0.00  0.00    +0.000 C 
ATOM     24  N   UNL     1       6.251   3.598  13.775  0.00  0.00    +0.000 N 
ATOM     25  O   UNL     1       5.380   3.117  15.829  0.00  0.00    +0.000 OA
ATOM     26  H   UNL     1       6.914   4.151  13.242  0.00  0.00    +0.000 HD
ATOM     27  H   UNL     1       5.664   2.921  13.309  0.00  0.00    +0.000 HD
ENDBRANCH  21  23
ENDBRANCH  20  21
ENDBRANCH   4  20
TORSDOF 7
ENDMDL
