MODEL 1
REMARK VINA RESULT:      -7.8      0.000      0.000
REMARK  Name = 
REMARK  6 active torsions:
REMARK  status: ('A' for Active; 'I' for Inactive)
REMARK    1  A    between atoms: C_2  and  C_18
REMARK    2  A    between atoms: N_3  and  C_4
REMARK    3  A    between atoms: C_9  and  N_10
REMARK    4  A    between atoms: C_13  and  C_14
REMARK    5  A    between atoms: C_14  and  O_15
REMARK    6  A    between atoms: C_21  and  N_22
REMARK                            x       y       z     vdW  Elec       q    Type
REMARK                         _______ _______ _______ _____ _____    ______ ____
ROOT
ATOM      1  C   UNL     1       2.510   4.689  18.081  0.00  0.00    +0.000 A 
ATOM      2  C   UNL     1       1.400   3.824  18.183  0.00  0.00    +0.000 A 
ATOM      3  C   UNL     1       1.562   2.445  18.295  0.00  0.00    +0.000 A 
ATOM      4  C   UNL     1       2.837   1.908  18.281  0.00  0.00    +0.000 A 
ATOM      5  C   UNL     1       3.942   2.759  18.181  0.00  0.00    +0.000 A 
ATOM      6  C   UNL     1       3.823   4.167  18.107  0.00  0.00    +0.000 A 
ENDROOT
BRANCH   6   7
ATOM      7  N   UNL     1       4.992   4.910  17.967  0.00  0.00    +0.000 N 
ATOM      8  C   UNL     1       5.444   5.445  16.685  0.00  0.00    +0.000 C 
ATOM      9  C   UNL     1       6.960   5.292  16.563  0.00  0.00    +0.000 C 
ATOM     10  C   UNL     1       7.714   5.866  17.775  0.00  0.00    +0.000 C 
ATOM     11  C   UNL     1       7.150   5.260  19.068  0.00  0.00    +0.000 C 
ATOM     12  C   UNL     1       5.635   5.436  19.174  0.00  0.00    +0.000 C 
BRANCH  10  13
ATOM     13  C   UNL     1       7.674   7.398  17.816  0.00  0.00    +0.000 C 
BRANCH  13  14
ATOM     14  O   UNL     1       8.572   7.892  18.800  0.00  0.00    +0.000 OA
ATOM     15  H   UNL     1       8.072   8.490  19.382  0.00  0.00    +0.000 HD
ENDBRANCH  13  14
ENDBRANCH  10  13
ENDBRANCH   6   7
BRANCH   1  18
ATOM     16  O   UNL     1       2.288   6.363  20.291  0.00  0.00    +0.000 OA
ATOM     17  C   UNL     1       2.153   6.845  19.168  0.00  0.00    +0.000 C 
ATOM     18  N   UNL     1       2.250   6.086  18.007  0.00  0.00    +0.000 N 
ATOM     19  H   UNL     1       1.800   6.434  17.171  0.00  0.00    +0.000 HD
BRANCH  17  20
ATOM     20  C   UNL     1       1.829   8.253  19.021  0.00  0.00    +0.000 A 
ATOM     21  C   UNL     1       2.013   9.044  17.893  0.00  0.00    +0.000 A 
ATOM     22  C   UNL     1       1.535  10.336  18.200  0.00  0.00    +0.000 A 
ATOM     23  C   UNL     1       1.106  10.257  19.504  0.00  0.00    +0.000 A 
ATOM     24  O   UNL     1       1.273   9.008  20.030  0.00  0.00    +0.000 OA
BRANCH  23  25
ATOM     25  N   UNL     1       0.525  11.262  20.335  0.00  0.00    +0.000 N 
ATOM     26  O   UNL     1       1.116  11.502  21.401  0.00  0.00    +0.000 OA
ATOM     27  O   UNL     1      -0.508  11.810  19.943  0.00  0.00    +0.000 OA
ENDBRANCH  23  25
ENDBRANCH  17  20
ENDBRANCH   1  18
TORSDOF 6
ENDMDL
MODEL 2
REMARK VINA RESULT:      -7.6      3.334      7.185
REMARK  Name = 
REMARK  6 active torsions:
REMARK  status: ('A' for Active; 'I' for Inactive)
REMARK    1  A    between atoms: C_2  and  C_18
REMARK    2  A    between atoms: N_3  and  C_4
REMARK    3  A    between atoms: C_9  and  N_10
REMARK    4  A    between atoms: C_13  and  C_14
REMARK    5  A    between atoms: C_14  and  O_15
REMARK    6  A    between atoms: C_21  and  N_22
REMARK                            x       y       z     vdW  Elec       q    Type
REMARK                         _______ _______ _______ _____ _____    ______ ____
ROOT
ATOM      1  C   UNL     1       2.775   7.248  17.999  0.00  0.00    +0.000 A 
ATOM      2  C   UNL     1       2.582   8.586  17.595  0.00  0.00    +0.000 A 
ATOM      3  C   UNL     1       1.953   9.511  18.424  0.00  0.00    +0.000 A 
ATOM      4  C   UNL     1       1.486   9.105  19.662  0.00  0.00    +0.000 A 
ATOM      5  C   UNL     1       1.674   7.782  20.069  0.00  0.00    +0.000 A 
ATOM      6  C   UNL     1       2.343   6.820  19.275  0.00  0.00    +0.000 A 
ENDROOT
BRANCH   6   7
ATOM      7  N   UNL     1       2.434   5.522  19.768  0.00  0.00    +0.000 N 
ATOM      8  C   UNL     1       3.707   4.824  19.936  0.00  0.00    +0.000 C 
ATOM      9  C   UNL     1       3.558   3.363  19.512  0.00  0.00    +0.000 C 
ATOM     10  C   UNL     1       2.372   2.664  20.198  0.00  0.00    +0.000 C 
ATOM     11  C   UNL     1       1.094   3.485  19.983  0.00  0.00    +0.000 C 
ATOM     12  C   UNL     1       1.261   4.939  20.425  0.00  0.00    +0.000 C 
BRANCH  10  13
ATOM     13  C   UNL     1       2.626   2.411  21.689  0.00  0.00    +0.000 C 
BRANCH  13  14
ATOM     14  O   UNL     1       1.395   2.324  22.394  0.00  0.00    +0.000 OA
ATOM     15  H   UNL     1       1.568   2.570  23.320  0.00  0.00    +0.000 HD
ENDBRANCH  13  14
ENDBRANCH  10  13
ENDBRANCH   6   7
BRANCH   1  18
ATOM     16  O   UNL     1       5.538   7.188  17.676  0.00  0.00    +0.000 OA
ATOM     17  C   UNL     1       4.846   6.424  17.004  0.00  0.00    +0.000 C 
ATOM     18  N   UNL     1       3.460   6.382  17.101  0.00  0.00    +0.000 N 
ATOM     19  H   UNL     1       2.939   6.015  16.317  0.00  0.00    +0.000 HD
BRANCH  17  20
ATOM     20  C   UNL     1       5.475   5.553  16.026  0.00  0.00    +0.000 A 
ATOM     21  C   UNL     1       5.322   4.178  15.905  0.00  0.00    +0.000 A 
ATOM     22  C   UNL     1       6.100   3.760  14.805  0.00  0.00    +0.000 A 
ATOM     23  C   UNL     1       6.695   4.906  14.335  0.00  0.00    +0.000 A 
ATOM     24  O   UNL     1       6.338   6.010  15.054  0.00  0.00    +0.000 OA
BRANCH  23  25
ATOM     25  N   UNL     1       7.587   5.085  13.233  0.00  0.00    +0.000 N 
ATOM     26  O   UNL     1       7.318   4.451  12.200  0.00  0.00    +0.000 OA
ATOM     27  O   UNL     1       8.549   5.843  13.386  0.00  0.00    +0.000 OA
ENDBRANCH  23  25
ENDBRANCH  17  20
ENDBRANCH   1  18
TORSDOF 6
ENDMDL
MODEL 3
REMARK VINA RESULT:      -7.5      1.118      1.264
REMARK  Name = 
REMARK  6 active torsions:
REMARK  status: ('A' for Active; 'I' for Inactive)
REMARK    1  A    between atoms: C_2  and  C_18
REMARK    2  A    between atoms: N_3  and  C_4
REMARK    3  A    between atoms: C_9  and  N_10
REMARK    4  A    between atoms: C_13  and  C_14
REMARK    5  A    between atoms: C_14  and  O_15
REMARK    6  A    between atoms: C_21  and  N_22
REMARK                            x       y       z     vdW  Elec       q    Type
REMARK                         _______ _______ _______ _____ _____    ______ ____
ROOT
ATOM      1  C   UNL     1       2.525   4.501  18.554  0.00  0.00    +0.000 A 
ATOM      2  C   UNL     1       1.521   3.537  18.782  0.00  0.00    +0.000 A 
ATOM      3  C   UNL     1       1.762   2.179  18.592  0.00  0.00    +0.000 A 
ATOM      4  C   UNL     1       3.005   1.766  18.146  0.00  0.00    +0.000 A 
ATOM      5  C   UNL     1       4.005   2.715  17.918  0.00  0.00    +0.000 A 
ATOM      6  C   UNL     1       3.815   4.100  18.138  0.00  0.00    +0.000 A 
ENDROOT
BRANCH   6   7
ATOM      7  N   UNL     1       4.871   4.956  17.837  0.00  0.00    +0.000 N 
ATOM      8  C   UNL     1       4.886   5.810  16.651  0.00  0.00    +0.000 C 
ATOM      9  C   UNL     1       6.287   5.824  16.039  0.00  0.00    +0.000 C 
ATOM     10  C   UNL     1       7.380   6.168  17.065  0.00  0.00    +0.000 C 
ATOM     11  C   UNL     1       7.262   5.233  18.277  0.00  0.00    +0.000 C 
ATOM     12  C   UNL     1       5.858   5.245  18.881  0.00  0.00    +0.000 C 
BRANCH  10  13
ATOM     13  C   UNL     1       7.337   7.640  17.493  0.00  0.00    +0.000 C 
BRANCH  13  14
ATOM     14  O   UNL     1       8.327   7.899  18.479  0.00  0.00    +0.000 OA
ATOM     15  H   UNL     1       9.197   7.758  18.067  0.00  0.00    +0.000 HD
ENDBRANCH  13  14
ENDBRANCH  10  13
ENDBRANCH   6   7
BRANCH   1  18
ATOM     16  O   UNL     1       2.134   5.572  21.092  0.00  0.00    +0.000 OA
ATOM     17  C   UNL     1       2.020   6.309  20.114  0.00  0.00    +0.000 C 
ATOM     18  N   UNL     1       2.200   5.862  18.810  0.00  0.00    +0.000 N 
ATOM     19  H   UNL     1       1.767   6.388  18.063  0.00  0.00    +0.000 HD
BRANCH  17  20
ATOM     20  C   UNL     1       1.633   7.697  20.298  0.00  0.00    +0.000 A 
ATOM     21  C   UNL     1       1.626   8.702  19.338  0.00  0.00    +0.000 A 
ATOM     22  C   UNL     1       1.156   9.878  19.960  0.00  0.00    +0.000 A 
ATOM     23  C   UNL     1       0.923   9.521  21.267  0.00  0.00    +0.000 A 
ATOM     24  O   UNL     1       1.204   8.206  21.504  0.00  0.00    +0.000 OA
BRANCH  23  25
ATOM     25  N   UNL     1       0.436  10.309  22.354  0.00  0.00    +0.000 N 
ATOM     26  O   UNL     1       0.418   9.757  23.466  0.00  0.00    +0.000 OA
ATOM     27  O   UNL     1       0.071  11.463  22.114  0.00  0.00    +0.000 OA
ENDBRANCH  23  25
ENDBRANCH  17  20
ENDBRANCH   1  18
TORSDOF 6
ENDMDL
MODEL 4
REMARK VINA RESULT:      -7.4      1.086      1.398
REMARK  Name = 
REMARK  6 active torsions:
REMARK  status: ('A' for Active; 'I' for Inactive)
REMARK    1  A    between atoms: C_2  and  C_18
REMARK    2  A    between atoms: N_3  and  C_4
REMARK    3  A    between atoms: C_9  and  N_10
REMARK    4  A    between atoms: C_13  and  C_14
REMARK    5  A    between atoms: C_14  and  O_15
REMARK    6  A    between atoms: C_21  and  N_22
REMARK                            x       y       z     vdW  Elec       q    Type
REMARK                         _______ _______ _______ _____ _____    ______ ____
ROOT
ATOM      1  C   UNL     1       2.474   4.628  18.408  0.00  0.00    +0.000 A 
ATOM      2  C   UNL     1       1.442   3.681  18.565  0.00  0.00    +0.000 A 
ATOM      3  C   UNL     1       1.663   2.323  18.350  0.00  0.00    +0.000 A 
ATOM      4  C   UNL     1       2.917   1.895  17.949  0.00  0.00    +0.000 A 
ATOM      5  C   UNL     1       3.945   2.828  17.792  0.00  0.00    +0.000 A 
ATOM      6  C   UNL     1       3.774   4.211  18.040  0.00  0.00    +0.000 A 
ENDROOT
BRANCH   6   7
ATOM      7  N   UNL     1       4.860   5.051  17.809  0.00  0.00    +0.000 N 
ATOM      8  C   UNL     1       5.093   5.711  16.526  0.00  0.00    +0.000 C 
ATOM      9  C   UNL     1       6.585   5.686  16.193  0.00  0.00    +0.000 C 
ATOM     10  C   UNL     1       7.458   6.228  17.338  0.00  0.00    +0.000 C 
ATOM     11  C   UNL     1       7.120   5.488  18.639  0.00  0.00    +0.000 C 
ATOM     12  C   UNL     1       5.626   5.536  18.959  0.00  0.00    +0.000 C 
BRANCH  10  13
ATOM     13  C   UNL     1       7.320   7.745  17.510  0.00  0.00    +0.000 C 
BRANCH  13  14
ATOM     14  O   UNL     1       8.354   8.246  18.345  0.00  0.00    +0.000 OA
ATOM     15  H   UNL     1       8.619   9.115  17.997  0.00  0.00    +0.000 HD
ENDBRANCH  13  14
ENDBRANCH  10  13
ENDBRANCH   6   7
BRANCH   1  18
ATOM     16  O   UNL     1       2.055   5.656  20.959  0.00  0.00    +0.000 OA
ATOM     17  C   UNL     1       1.969   6.414  19.994  0.00  0.00    +0.000 C 
ATOM     18  N   UNL     1       2.166   5.990  18.685  0.00  0.00    +0.000 N 
ATOM     19  H   UNL     1       1.755   6.536  17.940  0.00  0.00    +0.000 HD
BRANCH  17  20
ATOM     20  C   UNL     1       1.601   7.804  20.198  0.00  0.00    +0.000 A 
ATOM     21  C   UNL     1       1.187   8.397  21.385  0.00  0.00    +0.000 A 
ATOM     22  C   UNL     1       0.959   9.764  21.118  0.00  0.00    +0.000 A 
ATOM     23  C   UNL     1       1.231   9.915  19.779  0.00  0.00    +0.000 A 
ATOM     24  O   UNL     1       1.621   8.745  19.193  0.00  0.00    +0.000 OA
BRANCH  23  25
ATOM     25  N   UNL     1       1.173  11.086  18.963  0.00  0.00    +0.000 N 
ATOM     26  O   UNL     1       0.205  11.840  19.153  0.00  0.00    +0.000 OA
ATOM     27  O   UNL     1       2.074  11.260  18.137  0.00  0.00    +0.000 OA
ENDBRANCH  23  25
ENDBRANCH  17  20
ENDBRANCH   1  18
TORSDOF 6
ENDMDL
MODEL 5
REMARK VINA RESULT:      -7.4      2.428      4.468
REMARK  Name = 
REMARK  6 active torsions:
REMARK  status: ('A' for Active; 'I' for Inactive)
REMARK    1  A    between atoms: C_2  and  C_18
REMARK    2  A    between atoms: N_3  and  C_4
REMARK    3  A    between atoms: C_9  and  N_10
REMARK    4  A    between atoms: C_13  and  C_14
REMARK    5  A    between atoms: C_14  and  O_15
REMARK    6  A    between atoms: C_21  and  N_22
REMARK                            x       y       z     vdW  Elec       q    Type
REMARK                         _______ _______ _______ _____ _____    ______ ____
ROOT
ATOM      1  C   UNL     1       3.816   6.520  17.638  0.00  0.00    +0.000 A 
ATOM      2  C   UNL     1       4.580   7.246  16.701  0.00  0.00    +0.000 A 
ATOM      3  C   UNL     1       5.318   6.603  15.711  0.00  0.00    +0.000 A 
ATOM      4  C   UNL     1       5.322   5.221  15.658  0.00  0.00    +0.000 A 
ATOM      5  C   UNL     1       4.567   4.493  16.582  0.00  0.00    +0.000 A 
ATOM      6  C   UNL     1       3.771   5.108  17.578  0.00  0.00    +0.000 A 
ENDROOT
BRANCH   6   7
ATOM      7  N   UNL     1       3.095   4.281  18.471  0.00  0.00    +0.000 N 
ATOM      8  C   UNL     1       3.684   3.818  19.725  0.00  0.00    +0.000 C 
ATOM      9  C   UNL     1       3.312   2.355  19.965  0.00  0.00    +0.000 C 
ATOM     10  C   UNL     1       1.799   2.102  19.859  0.00  0.00    +0.000 C 
ATOM     11  C   UNL     1       1.277   2.643  18.521  0.00  0.00    +0.000 C 
ATOM     12  C   UNL     1       1.649   4.111  18.308  0.00  0.00    +0.000 C 
BRANCH  10  13
ATOM     13  C   UNL     1       1.022   2.697  21.039  0.00  0.00    +0.000 C 
BRANCH  13  14
ATOM     14  O   UNL     1       1.732   2.496  22.253  0.00  0.00    +0.000 OA
ATOM     15  H   UNL     1       1.204   1.894  22.807  0.00  0.00    +0.000 HD
ENDBRANCH  13  14
ENDBRANCH  10  13
ENDBRANCH   6   7
BRANCH   1  18
ATOM     16  O   UNL     1       2.180   8.681  17.010  0.00  0.00    +0.000 OA
ATOM     17  C   UNL     1       2.275   8.332  18.185  0.00  0.00    +0.000 C 
ATOM     18  N   UNL     1       3.065   7.262  18.591  0.00  0.00    +0.000 N 
ATOM     19  H   UNL     1       3.376   7.239  19.553  0.00  0.00    +0.000 HD
BRANCH  17  20
ATOM     20  C   UNL     1       1.581   9.081  19.218  0.00  0.00    +0.000 A 
ATOM     21  C   UNL     1       1.164  10.405  19.159  0.00  0.00    +0.000 A 
ATOM     22  C   UNL     1       0.515  10.699  20.377  0.00  0.00    +0.000 A 
ATOM     23  C   UNL     1       0.592   9.540  21.111  0.00  0.00    +0.000 A 
ATOM     24  O   UNL     1       1.234   8.540  20.437  0.00  0.00    +0.000 OA
BRANCH  23  25
ATOM     25  N   UNL     1       0.100   9.255  22.421  0.00  0.00    +0.000 N 
ATOM     26  O   UNL     1       0.675   9.829  23.360  0.00  0.00    +0.000 OA
ATOM     27  O   UNL     1      -0.845   8.468  22.525  0.00  0.00    +0.000 OA
ENDBRANCH  23  25
ENDBRANCH  17  20
ENDBRANCH   1  18
TORSDOF 6
ENDMDL
MODEL 6
REMARK VINA RESULT:      -7.2      1.905      2.275
REMARK  Name = 
REMARK  6 active torsions:
REMARK  status: ('A' for Active; 'I' for Inactive)
REMARK    1  A    between atoms: C_2  and  C_18
REMARK    2  A    between atoms: N_3  and  C_4
REMARK    3  A    between atoms: C_9  and  N_10
REMARK    4  A    between atoms: C_13  and  C_14
REMARK    5  A    between atoms: C_14  and  O_15
REMARK    6  A    between atoms: C_21  and  N_22
REMARK                            x       y       z     vdW  Elec       q    Type
REMARK                         _______ _______ _______ _____ _____    ______ ____
ROOT
ATOM      1  C   UNL     1       3.066   4.664  20.313  0.00  0.00    +0.000 A 
ATOM      2  C   UNL     1       2.278   4.052  21.310  0.00  0.00    +0.000 A 
ATOM      3  C   UNL     1       2.447   2.711  21.648  0.00  0.00    +0.000 A 
ATOM      4  C   UNL     1       3.390   1.956  20.975  0.00  0.00    +0.000 A 
ATOM      5  C   UNL     1       4.175   2.555  19.985  0.00  0.00    +0.000 A 
ATOM      6  C   UNL     1       4.064   3.923  19.640  0.00  0.00    +0.000 A 
ENDROOT
BRANCH   6   7
ATOM      7  N   UNL     1       4.870   4.400  18.610  0.00  0.00    +0.000 N 
ATOM      8  C   UNL     1       6.106   5.142  18.847  0.00  0.00    +0.000 C 
ATOM      9  C   UNL     1       6.224   6.288  17.844  0.00  0.00    +0.000 C 
ATOM     10  C   UNL     1       6.049   5.825  16.388  0.00  0.00    +0.000 C 
ATOM     11  C   UNL     1       4.737   5.039  16.251  0.00  0.00    +0.000 C 
ATOM     12  C   UNL     1       4.646   3.889  17.255  0.00  0.00    +0.000 C 
BRANCH  10  13
ATOM     13  C   UNL     1       7.243   5.003  15.889  0.00  0.00    +0.000 C 
BRANCH  13  14
ATOM     14  O   UNL     1       7.679   5.480  14.623  0.00  0.00    +0.000 OA
ATOM     15  H   UNL     1       7.023   6.127  14.310  0.00  0.00    +0.000 HD
ENDBRANCH  13  14
ENDBRANCH  10  13
ENDBRANCH   6   7
BRANCH   1  18
ATOM     16  O   UNL     1       1.741   5.665  18.081  0.00  0.00    +0.000 OA
ATOM     17  C   UNL     1       2.177   6.456  18.915  0.00  0.00    +0.000 C 
ATOM     18  N   UNL     1       2.849   6.047  20.061  0.00  0.00    +0.000 N 
ATOM     19  H   UNL     1       3.470   6.707  20.510  0.00  0.00    +0.000 HD
BRANCH  17  20
ATOM     20  C   UNL     1       2.042   7.885  18.692  0.00  0.00    +0.000 A 
ATOM     21  C   UNL     1       2.536   8.619  17.621  0.00  0.00    +0.000 A 
ATOM     22  C   UNL     1       2.146   9.962  17.811  0.00  0.00    +0.000 A 
ATOM     23  C   UNL     1       1.454   9.966  18.999  0.00  0.00    +0.000 A 
ATOM     24  O   UNL     1       1.375   8.723  19.559  0.00  0.00    +0.000 OA
BRANCH  23  25
ATOM     25  N   UNL     1       0.825  11.050  19.684  0.00  0.00    +0.000 N 
ATOM     26  O   UNL     1      -0.106  10.750  20.449  0.00  0.00    +0.000 OA
ATOM     27  O   UNL     1       1.244  12.191  19.468  0.00  0.00    +0.000 OA
ENDBRANCH  23  25
ENDBRANCH  17  20
ENDBRANCH   1  18
TORSDOF 6
ENDMDL
MODEL 7
REMARK VINA RESULT:      -7.2      1.340      1.764
REMARK  Name = 
REMARK  6 active torsions:
REMARK  status: ('A' for Active; 'I' for Inactive)
REMARK    1  A    between atoms: C_2  and  C_18
REMARK    2  A    between atoms: N_3  and  C_4
REMARK    3  A    between atoms: C_9  and  N_10
REMARK    4  A    between atoms: C_13  and  C_14
REMARK    5  A    between atoms: C_14  and  O_15
REMARK    6  A    between atoms: C_21  and  N_22
REMARK                            x       y       z     vdW  Elec       q    Type
REMARK                         _______ _______ _______ _____ _____    ______ ____
ROOT
ATOM      1  C   UNL     1       2.170   4.247  18.288  0.00  0.00    +0.000 A 
ATOM      2  C   UNL     1       1.078   3.496  18.771  0.00  0.00    +0.000 A 
ATOM      3  C   UNL     1       1.183   2.127  19.001  0.00  0.00    +0.000 A 
ATOM      4  C   UNL     1       2.377   1.482  18.726  0.00  0.00    +0.000 A 
ATOM      5  C   UNL     1       3.463   2.219  18.248  0.00  0.00    +0.000 A 
ATOM      6  C   UNL     1       3.412   3.618  18.040  0.00  0.00    +0.000 A 
ENDROOT
BRANCH   6   7
ATOM      7  N   UNL     1       4.544   4.239  17.520  0.00  0.00    +0.000 N 
ATOM      8  C   UNL     1       5.755   4.467  18.305  0.00  0.00    +0.000 C 
ATOM      9  C   UNL     1       6.331   5.846  17.983  0.00  0.00    +0.000 C 
ATOM     10  C   UNL     1       6.518   6.074  16.474  0.00  0.00    +0.000 C 
ATOM     11  C   UNL     1       5.200   5.786  15.741  0.00  0.00    +0.000 C 
ATOM     12  C   UNL     1       4.650   4.398  16.067  0.00  0.00    +0.000 C 
BRANCH  10  13
ATOM     13  C   UNL     1       7.668   5.240  15.895  0.00  0.00    +0.000 C 
BRANCH  13  14
ATOM     14  O   UNL     1       7.712   5.369  14.481  0.00  0.00    +0.000 OA
ATOM     15  H   UNL     1       8.513   5.875  14.256  0.00  0.00    +0.000 HD
ENDBRANCH  13  14
ENDBRANCH  10  13
ENDBRANCH   6   7
BRANCH   1  18
ATOM     16  O   UNL     1       2.830   6.163  20.194  0.00  0.00    +0.000 OA
ATOM     17  C   UNL     1       2.339   6.532  19.129  0.00  0.00    +0.000 C 
ATOM     18  N   UNL     1       1.982   5.647  18.118  0.00  0.00    +0.000 N 
ATOM     19  H   UNL     1       1.290   5.947  17.445  0.00  0.00    +0.000 HD
BRANCH  17  20
ATOM     20  C   UNL     1       2.066   7.942  18.911  0.00  0.00    +0.000 A 
ATOM     21  C   UNL     1       2.274   8.667  17.744  0.00  0.00    +0.000 A 
ATOM     22  C   UNL     1       1.844   9.989  17.985  0.00  0.00    +0.000 A 
ATOM     23  C   UNL     1       1.418   9.992  19.291  0.00  0.00    +0.000 A 
ATOM     24  O   UNL     1       1.541   8.767  19.881  0.00  0.00    +0.000 OA
BRANCH  23  25
ATOM     25  N   UNL     1       0.876  11.059  20.072  0.00  0.00    +0.000 N 
ATOM     26  O   UNL     1       1.039  10.978  21.300  0.00  0.00    +0.000 OA
ATOM     27  O   UNL     1       0.292  11.970  19.479  0.00  0.00    +0.000 OA
ENDBRANCH  23  25
ENDBRANCH  17  20
ENDBRANCH   1  18
TORSDOF 6
ENDMDL
MODEL 8
REMARK VINA RESULT:      -7.2      2.325      4.200
REMARK  Name = 
REMARK  6 active torsions:
REMARK  status: ('A' for Active; 'I' for Inactive)
REMARK    1  A    between atoms: C_2  and  C_18
REMARK    2  A    between atoms: N_3  and  C_4
REMARK    3  A    between atoms: C_9  and  N_10
REMARK    4  A    between atoms: C_13  and  C_14
REMARK    5  A    between atoms: C_14  and  O_15
REMARK    6  A    between atoms: C_21  and  N_22
REMARK                            x       y       z     vdW  Elec       q    Type
REMARK                         _______ _______ _______ _____ _____    ______ ____
ROOT
ATOM      1  C   UNL     1       4.217   6.205  17.264  0.00  0.00    +0.000 A 
ATOM      2  C   UNL     1       5.084   6.595  16.221  0.00  0.00    +0.000 A 
ATOM      3  C   UNL     1       5.666   5.658  15.372  0.00  0.00    +0.000 A 
ATOM      4  C   UNL     1       5.410   4.312  15.569  0.00  0.00    +0.000 A 
ATOM      5  C   UNL     1       4.552   3.918  16.600  0.00  0.00    +0.000 A 
ATOM      6  C   UNL     1       3.907   4.840  17.459  0.00  0.00    +0.000 A 
ENDROOT
BRANCH   6   7
ATOM      7  N   UNL     1       3.108   4.328  18.477  0.00  0.00    +0.000 N 
ATOM      8  C   UNL     1       2.106   3.288  18.252  0.00  0.00    +0.000 C 
ATOM      9  C   UNL     1       0.848   3.595  19.064  0.00  0.00    +0.000 C 
ATOM     10  C   UNL     1       1.148   3.857  20.549  0.00  0.00    +0.000 C 
ATOM     11  C   UNL     1       2.225   4.944  20.675  0.00  0.00    +0.000 C 
ATOM     12  C   UNL     1       3.478   4.610  19.866  0.00  0.00    +0.000 C 
BRANCH  10  13
ATOM     13  C   UNL     1       1.557   2.581  21.296  0.00  0.00    +0.000 C 
BRANCH  13  14
ATOM     14  O   UNL     1       2.435   2.894  22.368  0.00  0.00    +0.000 OA
ATOM     15  H   UNL     1       2.039   2.544  23.185  0.00  0.00    +0.000 HD
ENDBRANCH  13  14
ENDBRANCH  10  13
ENDBRANCH   6   7
BRANCH   1  18
ATOM     16  O   UNL     1       1.515   6.866  17.254  0.00  0.00    +0.000 OA
ATOM     17  C   UNL     1       2.276   7.497  17.986  0.00  0.00    +0.000 C 
ATOM     18  N   UNL     1       3.639   7.234  18.058  0.00  0.00    +0.000 N 
ATOM     19  H   UNL     1       4.249   7.972  18.384  0.00  0.00    +0.000 HD
BRANCH  17  20
ATOM     20  C   UNL     1       1.764   8.599  18.781  0.00  0.00    +0.000 A 
ATOM     21  C   UNL     1       1.398   9.861  18.330  0.00  0.00    +0.000 A 
ATOM     22  C   UNL     1       0.937  10.592  19.445  0.00  0.00    +0.000 A 
ATOM     23  C   UNL     1       1.068   9.735  20.512  0.00  0.00    +0.000 A 
ATOM     24  O   UNL     1       1.568   8.519  20.142  0.00  0.00    +0.000 OA
BRANCH  23  25
ATOM     25  N   UNL     1       0.752   9.938  21.890  0.00  0.00    +0.000 N 
ATOM     26  O   UNL     1      -0.211  10.686  22.128  0.00  0.00    +0.000 OA
ATOM     27  O   UNL     1       1.450   9.368  22.733  0.00  0.00    +0.000 OA
ENDBRANCH  23  25
ENDBRANCH  17  20
ENDBRANCH   1  18
TORSDOF 6
ENDMDL
MODEL 9
REMARK VINA RESULT:      -7.1      2.416      4.437
REMARK  Name = 
REMARK  6 active torsions:
REMARK  status: ('A' for Active; 'I' for Inactive)
REMARK    1  A    between atoms: C_2  and  C_18
REMARK    2  A    between atoms: N_3  and  C_4
REMARK    3  A    between atoms: C_9  and  N_10
REMARK    4  A    between atoms: C_13  and  C_14
REMARK    5  A    between atoms: C_14  and  O_15
REMARK    6  A    between atoms: C_21  and  N_22
REMARK                            x       y       z     vdW  Elec       q    Type
REMARK                         _______ _______ _______ _____ _____    ______ ____
ROOT
ATOM      1  C   UNL     1       3.692   6.586  17.768  0.00  0.00    +0.000 A 
ATOM      2  C   UNL     1       4.481   7.281  16.828  0.00  0.00    +0.000 A 
ATOM      3  C   UNL     1       5.233   6.606  15.870  0.00  0.00    +0.000 A 
ATOM      4  C   UNL     1       5.226   5.222  15.854  0.00  0.00    +0.000 A 
ATOM      5  C   UNL     1       4.446   4.526  16.782  0.00  0.00    +0.000 A 
ATOM      6  C   UNL     1       3.636   5.174  17.745  0.00  0.00    +0.000 A 
ENDROOT
BRANCH   6   7
ATOM      7  N   UNL     1       2.935   4.376  18.644  0.00  0.00    +0.000 N 
ATOM      8  C   UNL     1       2.467   3.031  18.315  0.00  0.00    +0.000 C 
ATOM      9  C   UNL     1       1.069   2.812  18.893  0.00  0.00    +0.000 C 
ATOM     10  C   UNL     1       0.986   3.148  20.392  0.00  0.00    +0.000 C 
ATOM     11  C   UNL     1       1.520   4.567  20.633  0.00  0.00    +0.000 C 
ATOM     12  C   UNL     1       2.924   4.760  20.058  0.00  0.00    +0.000 C 
BRANCH  10  13
ATOM     13  C   UNL     1       1.722   2.122  21.262  0.00  0.00    +0.000 C 
BRANCH  13  14
ATOM     14  O   UNL     1       2.370   2.768  22.349  0.00  0.00    +0.000 OA
ATOM     15  H   UNL     1       3.234   2.338  22.474  0.00  0.00    +0.000 HD
ENDBRANCH  13  14
ENDBRANCH  10  13
ENDBRANCH   6   7
BRANCH   1  18
ATOM     16  O   UNL     1       2.089   8.744  17.050  0.00  0.00    +0.000 OA
ATOM     17  C   UNL     1       2.156   8.424  18.235  0.00  0.00    +0.000 C 
ATOM     18  N   UNL     1       2.927   7.360  18.685  0.00  0.00    +0.000 N 
ATOM     19  H   UNL     1       3.219   7.359  19.654  0.00  0.00    +0.000 HD
BRANCH  17  20
ATOM     20  C   UNL     1       1.447   9.206  19.234  0.00  0.00    +0.000 A 
ATOM     21  C   UNL     1       1.035  10.529  19.127  0.00  0.00    +0.000 A 
ATOM     22  C   UNL     1       0.367  10.862  20.325  0.00  0.00    +0.000 A 
ATOM     23  C   UNL     1       0.431   9.725  21.095  0.00  0.00    +0.000 A 
ATOM     24  O   UNL     1       1.081   8.704  20.463  0.00  0.00    +0.000 OA
BRANCH  23  25
ATOM     25  N   UNL     1      -0.082   9.482  22.406  0.00  0.00    +0.000 N 
ATOM     26  O   UNL     1      -0.923   8.573  22.507  0.00  0.00    +0.000 OA
ATOM     27  O   UNL     1       0.337  10.184  23.331  0.00  0.00    +0.000 OA
ENDBRANCH  23  25
ENDBRANCH  17  20
ENDBRANCH   1  18
TORSDOF 6
ENDMDL
