MODEL 1
REMARK VINA RESULT:      -6.6      0.000      0.000
REMARK  Name = 
REMARK  7 active torsions:
REMARK  status: ('A' for Active; 'I' for Inactive)
REMARK    1  A    between atoms: C_1  and  O_2
REMARK    2  A    between atoms: O_2  and  C_3
REMARK    3  A    between atoms: C_3  and  C_5
REMARK    4  A    between atoms: N_15  and  S_16
REMARK    5  A    between atoms: S_16  and  C_19
REMARK    6  A    between atoms: C_27  and  O_29
REMARK    7  A    between atoms: O_29  and  C_30
REMARK                            x       y       z     vdW  Elec       q    Type
REMARK                         _______ _______ _______ _____ _____    ______ ____
ROOT
ATOM      1  C   UNL     1      -5.600  13.243  22.202  0.00  0.00    +0.000 C 
ATOM      2  C   UNL     1      -5.732  12.238  21.057  0.00  0.00    +0.000 C 
ATOM      3  C   UNL     1      -5.114  12.951  19.850  0.00  0.00    +0.000 C 
ATOM      4 BR   UNL     1      -6.430  13.930  18.823  0.00  0.00    +0.000 Br
ATOM      5  C   UNL     1      -4.291  12.027  19.007  0.00  0.00    +0.000 A 
ATOM      6  C   UNL     1      -4.715  11.085  18.078  0.00  0.00    +0.000 A 
ATOM      7  C   UNL     1      -3.762  10.240  17.514  0.00  0.00    +0.000 A 
ATOM      8  C   UNL     1      -2.414  10.345  17.885  0.00  0.00    +0.000 A 
ATOM      9  C   UNL     1      -1.999  11.281  18.843  0.00  0.00    +0.000 A 
ATOM     10  C   UNL     1      -2.950  12.107  19.412  0.00  0.00    +0.000 A 
ATOM     11  N   UNL     1      -2.845  13.038  20.494  0.00  0.00    +0.000 N 
ATOM     12  C   UNL     1      -4.050  13.906  20.473  0.00  0.00    +0.000 C 
ATOM     13  N   UNL     1      -4.654  14.257  21.733  0.00  0.00    +0.000 N 
ATOM     14  C   UNL     1      -4.732  15.569  22.144  0.00  0.00    +0.000 C 
ATOM     15  O   UNL     1      -4.131  16.489  21.606  0.00  0.00    +0.000 OA
ENDROOT
BRANCH  11  16
ATOM     16  S   UNL     1      -1.465  13.331  21.381  0.00  0.00    +0.000 S 
ATOM     17  O   UNL     1      -0.495  13.999  20.545  0.00  0.00    +0.000 OA
ATOM     18  O   UNL     1      -1.856  13.937  22.643  0.00  0.00    +0.000 OA
BRANCH  16  19
ATOM     19  C   UNL     1      -0.766  11.738  21.769  0.00  0.00    +0.000 A 
ATOM     20  C   UNL     1       0.356  11.291  21.070  0.00  0.00    +0.000 A 
ATOM     21  C   UNL     1       0.968  10.091  21.442  0.00  0.00    +0.000 A 
ATOM     22  C   UNL     1       0.477   9.357  22.523  0.00  0.00    +0.000 A 
ATOM     23  C   UNL     1      -0.619   9.827  23.248  0.00  0.00    +0.000 A 
ATOM     24  C   UNL     1      -1.241  11.020  22.876  0.00  0.00    +0.000 A 
ENDBRANCH  16  19
ENDBRANCH  11  16
BRANCH   1  25
ATOM     25  C   UNL     1      -5.178  12.585  23.526  0.00  0.00    +0.000 C 
ATOM     26  O   UNL     1      -4.014  12.335  23.817  0.00  0.00    +0.000 OA
BRANCH  25  28
ATOM     27  C   UNL     1      -7.380  13.079  24.217  0.00  0.00    +0.000 C 
ATOM     28  O   UNL     1      -6.257  12.203  24.261  0.00  0.00    +0.000 OA
ENDBRANCH  25  28
ENDBRANCH   1  25
BRANCH  14  29
ATOM     29  O   UNL     1      -5.615  15.718  23.167  0.00  0.00    +0.000 OA
ATOM     30  C   UNL     1      -6.087  17.041  23.425  0.00  0.00    +0.000 C 
ENDBRANCH  14  29
TORSDOF 5
ENDMDL
MODEL 2
REMARK VINA RESULT:      -6.3      2.725      5.593
REMARK  Name = 
REMARK  7 active torsions:
REMARK  status: ('A' for Active; 'I' for Inactive)
REMARK    1  A    between atoms: C_1  and  O_2
REMARK    2  A    between atoms: O_2  and  C_3
REMARK    3  A    between atoms: C_3  and  C_5
REMARK    4  A    between atoms: N_15  and  S_16
REMARK    5  A    between atoms: S_16  and  C_19
REMARK    6  A    between atoms: C_27  and  O_29
REMARK    7  A    between atoms: O_29  and  C_30
REMARK                            x       y       z     vdW  Elec       q    Type
REMARK                         _______ _______ _______ _____ _____    ______ ____
ROOT
ATOM      1  C   UNL     1       0.149  13.927  19.465  0.00  0.00    +0.000 C 
ATOM      2  C   UNL     1      -0.485  13.012  18.418  0.00  0.00    +0.000 C 
ATOM      3  C   UNL     1      -1.158  11.904  19.236  0.00  0.00    +0.000 C 
ATOM      4 BR   UNL     1       0.005  10.383  19.510  0.00  0.00    +0.000 Br
ATOM      5  C   UNL     1      -2.493  11.520  18.677  0.00  0.00    +0.000 A 
ATOM      6  C   UNL     1      -2.780  10.715  17.581  0.00  0.00    +0.000 A 
ATOM      7  C   UNL     1      -4.105  10.613  17.166  0.00  0.00    +0.000 A 
ATOM      8  C   UNL     1      -5.115  11.311  17.844  0.00  0.00    +0.000 A 
ATOM      9  C   UNL     1      -4.813  12.143  18.932  0.00  0.00    +0.000 A 
ATOM     10  C   UNL     1      -3.494  12.254  19.330  0.00  0.00    +0.000 A 
ATOM     11  N   UNL     1      -2.885  13.117  20.295  0.00  0.00    +0.000 N 
ATOM     12  C   UNL     1      -1.525  12.595  20.585  0.00  0.00    +0.000 C 
ATOM     13  N   UNL     1      -0.454  13.545  20.743  0.00  0.00    +0.000 N 
ATOM     14  C   UNL     1       0.234  13.652  21.932  0.00  0.00    +0.000 C 
ATOM     15  O   UNL     1      -0.127  13.129  22.978  0.00  0.00    +0.000 OA
ENDROOT
BRANCH  11  16
ATOM     16  S   UNL     1      -3.681  14.273  21.192  0.00  0.00    +0.000 S 
ATOM     17  O   UNL     1      -2.711  15.129  21.834  0.00  0.00    +0.000 OA
ATOM     18  O   UNL     1      -4.712  14.867  20.357  0.00  0.00    +0.000 OA
BRANCH  16  19
ATOM     19  C   UNL     1      -4.519  13.407  22.504  0.00  0.00    +0.000 A 
ATOM     20  C   UNL     1      -3.787  12.949  23.602  0.00  0.00    +0.000 A 
ATOM     21  C   UNL     1      -4.455  12.362  24.680  0.00  0.00    +0.000 A 
ATOM     22  C   UNL     1      -5.847  12.258  24.672  0.00  0.00    +0.000 A 
ATOM     23  C   UNL     1      -6.579  12.755  23.594  0.00  0.00    +0.000 A 
ATOM     24  C   UNL     1      -5.918  13.334  22.509  0.00  0.00    +0.000 A 
ENDBRANCH  16  19
ENDBRANCH  11  16
BRANCH   1  25
ATOM     25  C   UNL     1      -0.021  15.419  19.134  0.00  0.00    +0.000 C 
ATOM     26  O   UNL     1      -1.052  16.046  19.349  0.00  0.00    +0.000 OA
BRANCH  25  28
ATOM     27  C   UNL     1       2.293  15.246  18.706  0.00  0.00    +0.000 C 
ATOM     28  O   UNL     1       1.055  15.909  18.463  0.00  0.00    +0.000 OA
ENDBRANCH  25  28
ENDBRANCH   1  25
BRANCH  14  29
ATOM     29  O   UNL     1       1.395  14.343  21.775  0.00  0.00    +0.000 OA
ATOM     30  C   UNL     1       1.478  15.619  22.410  0.00  0.00    +0.000 C 
ENDBRANCH  14  29
TORSDOF 5
ENDMDL
MODEL 3
REMARK VINA RESULT:      -6.2      1.708      2.347
REMARK  Name = 
REMARK  7 active torsions:
REMARK  status: ('A' for Active; 'I' for Inactive)
REMARK    1  A    between atoms: C_1  and  O_2
REMARK    2  A    between atoms: O_2  and  C_3
REMARK    3  A    between atoms: C_3  and  C_5
REMARK    4  A    between atoms: N_15  and  S_16
REMARK    5  A    between atoms: S_16  and  C_19
REMARK    6  A    between atoms: C_27  and  O_29
REMARK    7  A    between atoms: O_29  and  C_30
REMARK                            x       y       z     vdW  Elec       q    Type
REMARK                         _______ _______ _______ _____ _____    ______ ____
ROOT
ATOM      1  C   UNL     1      -5.211  13.261  22.513  0.00  0.00    +0.000 C 
ATOM      2  C   UNL     1      -5.477  12.375  21.295  0.00  0.00    +0.000 C 
ATOM      3  C   UNL     1      -4.850  13.139  20.123  0.00  0.00    +0.000 C 
ATOM      4 BR   UNL     1      -6.118  14.309  19.248  0.00  0.00    +0.000 Br
ATOM      5  C   UNL     1      -4.144  12.229  19.167  0.00  0.00    +0.000 A 
ATOM      6  C   UNL     1      -4.686  11.410  18.183  0.00  0.00    +0.000 A 
ATOM      7  C   UNL     1      -3.833  10.542  17.504  0.00  0.00    +0.000 A 
ATOM      8  C   UNL     1      -2.467  10.504  17.817  0.00  0.00    +0.000 A 
ATOM      9  C   UNL     1      -1.934  11.314  18.830  0.00  0.00    +0.000 A 
ATOM     10  C   UNL     1      -2.786  12.162  19.512  0.00  0.00    +0.000 A 
ATOM     11  N   UNL     1      -2.557  12.982  20.662  0.00  0.00    +0.000 N 
ATOM     12  C   UNL     1      -3.683  13.944  20.772  0.00  0.00    +0.000 C 
ATOM     13  N   UNL     1      -4.203  14.231  22.086  0.00  0.00    +0.000 N 
ATOM     14  C   UNL     1      -4.150  15.504  22.610  0.00  0.00    +0.000 C 
ATOM     15  O   UNL     1      -3.495  16.416  22.123  0.00  0.00    +0.000 OA
ENDROOT
BRANCH  11  16
ATOM     16  S   UNL     1      -1.122  13.081  21.503  0.00  0.00    +0.000 S 
ATOM     17  O   UNL     1      -1.194  14.181  22.437  0.00  0.00    +0.000 OA
ATOM     18  O   UNL     1      -0.787  11.754  21.990  0.00  0.00    +0.000 OA
BRANCH  16  19
ATOM     19  C   UNL     1       0.130  13.525  20.316  0.00  0.00    +0.000 A 
ATOM     20  C   UNL     1       0.085  14.780  19.704  0.00  0.00    +0.000 A 
ATOM     21  C   UNL     1       1.121  15.170  18.853  0.00  0.00    +0.000 A 
ATOM     22  C   UNL     1       2.208  14.323  18.635  0.00  0.00    +0.000 A 
ATOM     23  C   UNL     1       2.273  13.088  19.279  0.00  0.00    +0.000 A 
ATOM     24  C   UNL     1       1.237  12.687  20.124  0.00  0.00    +0.000 A 
ENDBRANCH  16  19
ENDBRANCH  11  16
BRANCH   1  25
ATOM     25  C   UNL     1      -4.794  12.456  23.755  0.00  0.00    +0.000 C 
ATOM     26  O   UNL     1      -3.666  12.006  23.922  0.00  0.00    +0.000 OA
BRANCH  25  28
ATOM     27  C   UNL     1      -7.065  12.877  24.237  0.00  0.00    +0.000 C 
ATOM     28  O   UNL     1      -5.855  12.201  24.566  0.00  0.00    +0.000 OA
ENDBRANCH  25  28
ENDBRANCH   1  25
BRANCH  14  29
ATOM     29  O   UNL     1      -4.974  15.634  23.683  0.00  0.00    +0.000 OA
ATOM     30  C   UNL     1      -4.747  16.754  24.539  0.00  0.00    +0.000 C 
ENDBRANCH  14  29
TORSDOF 5
ENDMDL
MODEL 4
REMARK VINA RESULT:      -6.2      1.678      2.406
REMARK  Name = 
REMARK  7 active torsions:
REMARK  status: ('A' for Active; 'I' for Inactive)
REMARK    1  A    between atoms: C_1  and  O_2
REMARK    2  A    between atoms: O_2  and  C_3
REMARK    3  A    between atoms: C_3  and  C_5
REMARK    4  A    between atoms: N_15  and  S_16
REMARK    5  A    between atoms: S_16  and  C_19
REMARK    6  A    between atoms: C_27  and  O_29
REMARK    7  A    between atoms: O_29  and  C_30
REMARK                            x       y       z     vdW  Elec       q    Type
REMARK                         _______ _______ _______ _____ _____    ______ ____
ROOT
ATOM      1  C   UNL     1      -6.160  13.019  21.752  0.00  0.00    +0.000 C 
ATOM      2  C   UNL     1      -6.088  12.013  20.602  0.00  0.00    +0.000 C 
ATOM      3  C   UNL     1      -5.349  12.761  19.487  0.00  0.00    +0.000 C 
ATOM      4 BR   UNL     1      -6.560  13.677  18.290  0.00  0.00    +0.000 Br
ATOM      5  C   UNL     1      -4.375  11.881  18.766  0.00  0.00    +0.000 A 
ATOM      6  C   UNL     1      -4.623  10.923  17.790  0.00  0.00    +0.000 A 
ATOM      7  C   UNL     1      -3.563  10.127  17.362  0.00  0.00    +0.000 A 
ATOM      8  C   UNL     1      -2.284  10.298  17.911  0.00  0.00    +0.000 A 
ATOM      9  C   UNL     1      -2.048  11.248  18.915  0.00  0.00    +0.000 A 
ATOM     10  C   UNL     1      -3.106  12.025  19.348  0.00  0.00    +0.000 A 
ATOM     11  N   UNL     1      -3.193  12.955  20.431  0.00  0.00    +0.000 N 
ATOM     12  C   UNL     1      -4.426  13.763  20.246  0.00  0.00    +0.000 C 
ATOM     13  N   UNL     1      -5.211  14.079  21.412  0.00  0.00    +0.000 N 
ATOM     14  C   UNL     1      -5.408  15.384  21.806  0.00  0.00    +0.000 C 
ATOM     15  O   UNL     1      -4.786  16.335  21.351  0.00  0.00    +0.000 OA
ENDROOT
BRANCH  11  16
ATOM     16  S   UNL     1      -1.962  13.312  21.496  0.00  0.00    +0.000 S 
ATOM     17  O   UNL     1      -2.295  14.516  22.223  0.00  0.00    +0.000 OA
ATOM     18  O   UNL     1      -1.634  12.103  22.233  0.00  0.00    +0.000 OA
BRANCH  16  19
ATOM     19  C   UNL     1      -0.537  13.714  20.504  0.00  0.00    +0.000 A 
ATOM     20  C   UNL     1      -0.606  14.776  19.600  0.00  0.00    +0.000 A 
ATOM     21  C   UNL     1       0.539  15.159  18.898  0.00  0.00    +0.000 A 
ATOM     22  C   UNL     1       1.751  14.502  19.118  0.00  0.00    +0.000 A 
ATOM     23  C   UNL     1       1.828  13.470  20.053  0.00  0.00    +0.000 A 
ATOM     24  C   UNL     1       0.685  13.075  20.751  0.00  0.00    +0.000 A 
ENDBRANCH  16  19
ENDBRANCH  11  16
BRANCH   1  25
ATOM     25  C   UNL     1      -5.890  12.377  23.123  0.00  0.00    +0.000 C 
ATOM     26  O   UNL     1      -6.775  12.081  23.918  0.00  0.00    +0.000 OA
BRANCH  25  28
ATOM     27  C   UNL     1      -4.169  12.655  24.713  0.00  0.00    +0.000 C 
ATOM     28  O   UNL     1      -4.558  12.304  23.388  0.00  0.00    +0.000 OA
ENDBRANCH  25  28
ENDBRANCH   1  25
BRANCH  14  29
ATOM     29  O   UNL     1      -6.427  15.487  22.700  0.00  0.00    +0.000 OA
ATOM     30  C   UNL     1      -6.118  16.065  23.968  0.00  0.00    +0.000 C 
ENDBRANCH  14  29
TORSDOF 5
ENDMDL
MODEL 5
REMARK VINA RESULT:      -6.2      3.465      4.952
REMARK  Name = 
REMARK  7 active torsions:
REMARK  status: ('A' for Active; 'I' for Inactive)
REMARK    1  A    between atoms: C_1  and  O_2
REMARK    2  A    between atoms: O_2  and  C_3
REMARK    3  A    between atoms: C_3  and  C_5
REMARK    4  A    between atoms: N_15  and  S_16
REMARK    5  A    between atoms: S_16  and  C_19
REMARK    6  A    between atoms: C_27  and  O_29
REMARK    7  A    between atoms: O_29  and  C_30
REMARK                            x       y       z     vdW  Elec       q    Type
REMARK                         _______ _______ _______ _____ _____    ______ ____
ROOT
ATOM      1  C   UNL     1      -0.535  13.896  21.512  0.00  0.00    +0.000 C 
ATOM      2  C   UNL     1      -1.569  13.685  20.405  0.00  0.00    +0.000 C 
ATOM      3  C   UNL     1      -0.758  13.139  19.225  0.00  0.00    +0.000 C 
ATOM      4 BR   UNL     1      -0.138  14.544  18.048  0.00  0.00    +0.000 Br
ATOM      5  C   UNL     1      -1.482  12.050  18.497  0.00  0.00    +0.000 A 
ATOM      6  C   UNL     1      -2.518  12.157  17.576  0.00  0.00    +0.000 A 
ATOM      7  C   UNL     1      -3.130  10.987  17.133  0.00  0.00    +0.000 A 
ATOM      8  C   UNL     1      -2.704   9.740  17.613  0.00  0.00    +0.000 A 
ATOM      9  C   UNL     1      -1.676   9.643  18.562  0.00  0.00    +0.000 A 
ATOM     10  C   UNL     1      -1.083  10.808  19.011  0.00  0.00    +0.000 A 
ATOM     11  N   UNL     1      -0.129  11.021  20.056  0.00  0.00    +0.000 N 
ATOM     12  C   UNL     1       0.432  12.387  19.894  0.00  0.00    +0.000 C 
ATOM     13  N   UNL     1       0.660  13.170  21.082  0.00  0.00    +0.000 N 
ATOM     14  C   UNL     1       1.927  13.587  21.428  0.00  0.00    +0.000 C 
ATOM     15  O   UNL     1       2.950  13.167  20.904  0.00  0.00    +0.000 OA
ENDROOT
BRANCH  11  16
ATOM     16  S   UNL     1       0.498   9.835  21.044  0.00  0.00    +0.000 S 
ATOM     17  O   UNL     1       1.413  10.437  21.988  0.00  0.00    +0.000 OA
ATOM     18  O   UNL     1      -0.602   9.025  21.538  0.00  0.00    +0.000 OA
BRANCH  16  19
ATOM     19  C   UNL     1       1.488   8.781  20.003  0.00  0.00    +0.000 A 
ATOM     20  C   UNL     1       1.784   7.482  20.423  0.00  0.00    +0.000 A 
ATOM     21  C   UNL     1       2.470   6.620  19.565  0.00  0.00    +0.000 A 
ATOM     22  C   UNL     1       2.835   7.044  18.286  0.00  0.00    +0.000 A 
ATOM     23  C   UNL     1       2.501   8.327  17.853  0.00  0.00    +0.000 A 
ATOM     24  C   UNL     1       1.824   9.198  18.708  0.00  0.00    +0.000 A 
ENDBRANCH  16  19
ENDBRANCH  11  16
BRANCH   1  25
ATOM     25  C   UNL     1      -1.047  13.459  22.895  0.00  0.00    +0.000 C 
ATOM     26  O   UNL     1      -0.935  14.145  23.906  0.00  0.00    +0.000 OA
BRANCH  25  28
ATOM     27  C   UNL     1      -2.784  11.974  23.484  0.00  0.00    +0.000 C 
ATOM     28  O   UNL     1      -1.511  12.181  22.877  0.00  0.00    +0.000 OA
ENDBRANCH  25  28
ENDBRANCH   1  25
BRANCH  14  29
ATOM     29  O   UNL     1       1.889  14.572  22.364  0.00  0.00    +0.000 OA
ATOM     30  C   UNL     1       2.693  15.726  22.121  0.00  0.00    +0.000 C 
ENDBRANCH  14  29
TORSDOF 5
ENDMDL
MODEL 6
REMARK VINA RESULT:      -6.1      0.828      1.448
REMARK  Name = 
REMARK  7 active torsions:
REMARK  status: ('A' for Active; 'I' for Inactive)
REMARK    1  A    between atoms: C_1  and  O_2
REMARK    2  A    between atoms: O_2  and  C_3
REMARK    3  A    between atoms: C_3  and  C_5
REMARK    4  A    between atoms: N_15  and  S_16
REMARK    5  A    between atoms: S_16  and  C_19
REMARK    6  A    between atoms: C_27  and  O_29
REMARK    7  A    between atoms: O_29  and  C_30
REMARK                            x       y       z     vdW  Elec       q    Type
REMARK                         _______ _______ _______ _____ _____    ______ ____
ROOT
ATOM      1  C   UNL     1      -5.116  13.576  22.402  0.00  0.00    +0.000 C 
ATOM      2  C   UNL     1      -5.417  12.497  21.361  0.00  0.00    +0.000 C 
ATOM      3  C   UNL     1      -4.965  13.112  20.032  0.00  0.00    +0.000 C 
ATOM      4 BR   UNL     1      -6.401  14.044  19.129  0.00  0.00    +0.000 Br
ATOM      5  C   UNL     1      -4.277  12.115  19.153  0.00  0.00    +0.000 A 
ATOM      6  C   UNL     1      -4.836  11.120  18.360  0.00  0.00    +0.000 A 
ATOM      7  C   UNL     1      -3.981  10.218  17.732  0.00  0.00    +0.000 A 
ATOM      8  C   UNL     1      -2.593  10.321  17.905  0.00  0.00    +0.000 A 
ATOM      9  C   UNL     1      -2.038  11.312  18.728  0.00  0.00    +0.000 A 
ATOM     10  C   UNL     1      -2.892  12.195  19.362  0.00  0.00    +0.000 A 
ATOM     11  N   UNL     1      -2.627  13.197  20.349  0.00  0.00    +0.000 N 
ATOM     12  C   UNL     1      -3.815  14.085  20.432  0.00  0.00    +0.000 C 
ATOM     13  N   UNL     1      -4.234  14.535  21.736  0.00  0.00    +0.000 N 
ATOM     14  C   UNL     1      -4.240  15.874  22.059  0.00  0.00    +0.000 C 
ATOM     15  O   UNL     1      -3.710  16.743  21.379  0.00  0.00    +0.000 OA
ENDROOT
BRANCH  11  16
ATOM     16  S   UNL     1      -1.135  13.522  21.014  0.00  0.00    +0.000 S 
ATOM     17  O   UNL     1      -0.215  13.888  19.962  0.00  0.00    +0.000 OA
ATOM     18  O   UNL     1      -1.324  14.422  22.139  0.00  0.00    +0.000 OA
BRANCH  16  19
ATOM     19  C   UNL     1      -0.533  11.983  21.682  0.00  0.00    +0.000 A 
ATOM     20  C   UNL     1      -1.243  11.353  22.706  0.00  0.00    +0.000 A 
ATOM     21  C   UNL     1      -0.831  10.098  23.159  0.00  0.00    +0.000 A 
ATOM     22  C   UNL     1       0.266   9.464  22.574  0.00  0.00    +0.000 A 
ATOM     23  C   UNL     1       0.948  10.076  21.523  0.00  0.00    +0.000 A 
ATOM     24  C   UNL     1       0.549  11.335  21.071  0.00  0.00    +0.000 A 
ENDBRANCH  16  19
ENDBRANCH  11  16
BRANCH   1  25
ATOM     25  C   UNL     1      -4.522  13.003  23.699  0.00  0.00    +0.000 C 
ATOM     26  O   UNL     1      -5.121  12.223  24.431  0.00  0.00    +0.000 OA
BRANCH  25  28
ATOM     27  C   UNL     1      -3.204  14.143  25.291  0.00  0.00    +0.000 C 
ATOM     28  O   UNL     1      -3.320  13.568  23.992  0.00  0.00    +0.000 OA
ENDBRANCH  25  28
ENDBRANCH   1  25
BRANCH  14  29
ATOM     29  O   UNL     1      -4.970  16.112  23.181  0.00  0.00    +0.000 OA
ATOM     30  C   UNL     1      -4.634  17.277  23.935  0.00  0.00    +0.000 C 
ENDBRANCH  14  29
TORSDOF 5
ENDMDL
MODEL 7
REMARK VINA RESULT:      -6.1      1.276      1.593
REMARK  Name = 
REMARK  7 active torsions:
REMARK  status: ('A' for Active; 'I' for Inactive)
REMARK    1  A    between atoms: C_1  and  O_2
REMARK    2  A    between atoms: O_2  and  C_3
REMARK    3  A    between atoms: C_3  and  C_5
REMARK    4  A    between atoms: N_15  and  S_16
REMARK    5  A    between atoms: S_16  and  C_19
REMARK    6  A    between atoms: C_27  and  O_29
REMARK    7  A    between atoms: O_29  and  C_30
REMARK                            x       y       z     vdW  Elec       q    Type
REMARK                         _______ _______ _______ _____ _____    ______ ____
ROOT
ATOM      1  C   UNL     1      -4.411  13.281  22.741  0.00  0.00    +0.000 C 
ATOM      2  C   UNL     1      -4.911  12.449  21.560  0.00  0.00    +0.000 C 
ATOM      3  C   UNL     1      -4.421  13.210  20.323  0.00  0.00    +0.000 C 
ATOM      4 BR   UNL     1      -5.731  14.477  19.674  0.00  0.00    +0.000 Br
ATOM      5  C   UNL     1      -3.925  12.289  19.252  0.00  0.00    +0.000 A 
ATOM      6  C   UNL     1      -4.658  11.533  18.345  0.00  0.00    +0.000 A 
ATOM      7  C   UNL     1      -3.973  10.637  17.527  0.00  0.00    +0.000 A 
ATOM      8  C   UNL     1      -2.580  10.510  17.627  0.00  0.00    +0.000 A 
ATOM      9  C   UNL     1      -1.851  11.257  18.564  0.00  0.00    +0.000 A 
ATOM     10  C   UNL     1      -2.537  12.133  19.385  0.00  0.00    +0.000 A 
ATOM     11  N   UNL     1      -2.087  12.903  20.504  0.00  0.00    +0.000 N 
ATOM     12  C   UNL     1      -3.122  13.926  20.804  0.00  0.00    +0.000 C 
ATOM     13  N   UNL     1      -3.420  14.203  22.186  0.00  0.00    +0.000 N 
ATOM     14  C   UNL     1      -3.210  15.454  22.722  0.00  0.00    +0.000 C 
ATOM     15  O   UNL     1      -2.580  16.341  22.161  0.00  0.00    +0.000 OA
ENDROOT
BRANCH  11  16
ATOM     16  S   UNL     1      -0.539  12.894  21.119  0.00  0.00    +0.000 S 
ATOM     17  O   UNL     1       0.365  13.455  20.141  0.00  0.00    +0.000 OA
ATOM     18  O   UNL     1      -0.578  13.457  22.458  0.00  0.00    +0.000 OA
BRANCH  16  19
ATOM     19  C   UNL     1      -0.075  11.182  21.293  0.00  0.00    +0.000 A 
ATOM     20  C   UNL     1      -0.701  10.395  22.262  0.00  0.00    +0.000 A 
ATOM     21  C   UNL     1      -0.415   9.030  22.331  0.00  0.00    +0.000 A 
ATOM     22  C   UNL     1       0.472   8.450  21.422  0.00  0.00    +0.000 A 
ATOM     23  C   UNL     1       1.064   9.229  20.429  0.00  0.00    +0.000 A 
ATOM     24  C   UNL     1       0.790  10.597  20.359  0.00  0.00    +0.000 A 
ENDBRANCH  16  19
ENDBRANCH  11  16
BRANCH   1  25
ATOM     25  C   UNL     1      -3.863  12.417  23.889  0.00  0.00    +0.000 C 
ATOM     26  O   UNL     1      -2.894  11.674  23.773  0.00  0.00    +0.000 OA
BRANCH  25  28
ATOM     27  C   UNL     1      -6.042  12.216  24.772  0.00  0.00    +0.000 C 
ATOM     28  O   UNL     1      -4.659  12.482  24.989  0.00  0.00    +0.000 OA
ENDBRANCH  25  28
ENDBRANCH   1  25
BRANCH  14  29
ATOM     29  O   UNL     1      -3.854  15.601  23.911  0.00  0.00    +0.000 OA
ATOM     30  C   UNL     1      -3.118  16.206  24.974  0.00  0.00    +0.000 C 
ENDBRANCH  14  29
TORSDOF 5
ENDMDL
MODEL 8
REMARK VINA RESULT:      -6.1      3.332      4.887
REMARK  Name = 
REMARK  7 active torsions:
REMARK  status: ('A' for Active; 'I' for Inactive)
REMARK    1  A    between atoms: C_1  and  O_2
REMARK    2  A    between atoms: O_2  and  C_3
REMARK    3  A    between atoms: C_3  and  C_5
REMARK    4  A    between atoms: N_15  and  S_16
REMARK    5  A    between atoms: S_16  and  C_19
REMARK    6  A    between atoms: C_27  and  O_29
REMARK    7  A    between atoms: O_29  and  C_30
REMARK                            x       y       z     vdW  Elec       q    Type
REMARK                         _______ _______ _______ _____ _____    ______ ____
ROOT
ATOM      1  C   UNL     1      -0.577  13.785  21.618  0.00  0.00    +0.000 C 
ATOM      2  C   UNL     1      -1.636  13.573  20.536  0.00  0.00    +0.000 C 
ATOM      3  C   UNL     1      -0.845  13.084  19.318  0.00  0.00    +0.000 C 
ATOM      4 BR   UNL     1      -0.301  14.539  18.164  0.00  0.00    +0.000 Br
ATOM      5  C   UNL     1      -1.557  11.994  18.581  0.00  0.00    +0.000 A 
ATOM      6  C   UNL     1      -2.622  12.094  17.693  0.00  0.00    +0.000 A 
ATOM      7  C   UNL     1      -3.212  10.918  17.235  0.00  0.00    +0.000 A 
ATOM      8  C   UNL     1      -2.735   9.672  17.667  0.00  0.00    +0.000 A 
ATOM      9  C   UNL     1      -1.677   9.581  18.583  0.00  0.00    +0.000 A 
ATOM     10  C   UNL     1      -1.106  10.751  19.047  0.00  0.00    +0.000 A 
ATOM     11  N   UNL     1      -0.128  10.965  20.071  0.00  0.00    +0.000 N 
ATOM     12  C   UNL     1       0.387  12.351  19.932  0.00  0.00    +0.000 C 
ATOM     13  N   UNL     1       0.627  13.108  21.134  0.00  0.00    +0.000 N 
ATOM     14  C   UNL     1       1.890  13.554  21.455  0.00  0.00    +0.000 C 
ATOM     15  O   UNL     1       2.909  13.180  20.890  0.00  0.00    +0.000 OA
ENDROOT
BRANCH  11  16
ATOM     16  S   UNL     1       0.563   9.772  21.007  0.00  0.00    +0.000 S 
ATOM     17  O   UNL     1       1.587  10.357  21.842  0.00  0.00    +0.000 OA
ATOM     18  O   UNL     1      -0.504   9.001  21.623  0.00  0.00    +0.000 OA
BRANCH  16  19
ATOM     19  C   UNL     1       1.409   8.676  19.886  0.00  0.00    +0.000 A 
ATOM     20  C   UNL     1       1.801   9.144  18.630  0.00  0.00    +0.000 A 
ATOM     21  C   UNL     1       2.555   8.321  17.791  0.00  0.00    +0.000 A 
ATOM     22  C   UNL     1       2.936   7.046  18.214  0.00  0.00    +0.000 A 
ATOM     23  C   UNL     1       2.580   6.596  19.485  0.00  0.00    +0.000 A 
ATOM     24  C   UNL     1       1.818   7.410  20.326  0.00  0.00    +0.000 A 
ENDBRANCH  16  19
ENDBRANCH  11  16
BRANCH   1  25
ATOM     25  C   UNL     1      -1.034  13.295  23.002  0.00  0.00    +0.000 C 
ATOM     26  O   UNL     1      -1.074  12.112  23.323  0.00  0.00    +0.000 OA
BRANCH  25  28
ATOM     27  C   UNL     1      -2.903  14.286  24.047  0.00  0.00    +0.000 C 
ATOM     28  O   UNL     1      -1.507  14.317  23.765  0.00  0.00    +0.000 OA
ENDBRANCH  25  28
ENDBRANCH   1  25
BRANCH  14  29
ATOM     29  O   UNL     1       1.850  14.511  22.419  0.00  0.00    +0.000 OA
ATOM     30  C   UNL     1       2.590  15.707  22.174  0.00  0.00    +0.000 C 
ENDBRANCH  14  29
TORSDOF 5
ENDMDL
MODEL 9
REMARK VINA RESULT:      -6.0      1.513      1.744
REMARK  Name = 
REMARK  7 active torsions:
REMARK  status: ('A' for Active; 'I' for Inactive)
REMARK    1  A    between atoms: C_1  and  O_2
REMARK    2  A    between atoms: O_2  and  C_3
REMARK    3  A    between atoms: C_3  and  C_5
REMARK    4  A    between atoms: N_15  and  S_16
REMARK    5  A    between atoms: S_16  and  C_19
REMARK    6  A    between atoms: C_27  and  O_29
REMARK    7  A    between atoms: O_29  and  C_30
REMARK                            x       y       z     vdW  Elec       q    Type
REMARK                         _______ _______ _______ _____ _____    ______ ____
ROOT
ATOM      1  C   UNL     1      -3.824  13.578  22.511  0.00  0.00    +0.000 C 
ATOM      2  C   UNL     1      -4.639  12.655  21.606  0.00  0.00    +0.000 C 
ATOM      3  C   UNL     1      -4.438  13.225  20.198  0.00  0.00    +0.000 C 
ATOM      4 BR   UNL     1      -5.809  14.505  19.722  0.00  0.00    +0.000 Br
ATOM      5  C   UNL     1      -4.266  12.150  19.171  0.00  0.00    +0.000 A 
ATOM      6  C   UNL     1      -5.235  11.352  18.575  0.00  0.00    +0.000 A 
ATOM      7  C   UNL     1      -4.817  10.317  17.742  0.00  0.00    +0.000 A 
ATOM      8  C   UNL     1      -3.450  10.096  17.520  0.00  0.00    +0.000 A 
ATOM      9  C   UNL     1      -2.478  10.889  18.147  0.00  0.00    +0.000 A 
ATOM     10  C   UNL     1      -2.898  11.904  18.985  0.00  0.00    +0.000 A 
ATOM     11  N   UNL     1      -2.149  12.764  19.850  0.00  0.00    +0.000 N 
ATOM     12  C   UNL     1      -3.029  13.891  20.253  0.00  0.00    +0.000 C 
ATOM     13  N   UNL     1      -2.961  14.350  21.617  0.00  0.00    +0.000 N 
ATOM     14  C   UNL     1      -2.568  15.636  21.917  0.00  0.00    +0.000 C 
ATOM     15  O   UNL     1      -2.057  16.399  21.108  0.00  0.00    +0.000 OA
ENDROOT
BRANCH  11  16
ATOM     16  S   UNL     1      -0.499  12.708  20.071  0.00  0.00    +0.000 S 
ATOM     17  O   UNL     1       0.158  12.883  18.795  0.00  0.00    +0.000 OA
ATOM     18  O   UNL     1      -0.156  13.589  21.174  0.00  0.00    +0.000 OA
BRANCH  16  19
ATOM     19  C   UNL     1      -0.115  11.049  20.598  0.00  0.00    +0.000 A 
ATOM     20  C   UNL     1       0.737  10.261  19.822  0.00  0.00    +0.000 A 
ATOM     21  C   UNL     1       1.121   9.000  20.284  0.00  0.00    +0.000 A 
ATOM     22  C   UNL     1       0.678   8.541  21.526  0.00  0.00    +0.000 A 
ATOM     23  C   UNL     1      -0.138   9.347  22.319  0.00  0.00    +0.000 A 
ATOM     24  C   UNL     1      -0.535  10.605  21.859  0.00  0.00    +0.000 A 
ENDBRANCH  16  19
ENDBRANCH  11  16
BRANCH   1  25
ATOM     25  C   UNL     1      -3.048  12.815  23.597  0.00  0.00    +0.000 C 
ATOM     26  O   UNL     1      -1.849  12.965  23.804  0.00  0.00    +0.000 OA
BRANCH  25  28
ATOM     27  C   UNL     1      -4.852  12.366  25.051  0.00  0.00    +0.000 C 
ATOM     28  O   UNL     1      -3.823  11.872  24.198  0.00  0.00    +0.000 OA
ENDBRANCH  25  28
ENDBRANCH   1  25
BRANCH  14  29
ATOM     29  O   UNL     1      -2.889  15.969  23.195  0.00  0.00    +0.000 OA
ATOM     30  C   UNL     1      -3.015  17.361  23.488  0.00  0.00    +0.000 C 
ENDBRANCH  14  29
TORSDOF 5
ENDMDL
