MODEL 1
REMARK VINA RESULT:      -6.9      0.000      0.000
REMARK  Name = 
REMARK  8 active torsions:
REMARK  status: ('A' for Active; 'I' for Inactive)
REMARK    1  A    between atoms: C_1  and  C_2
REMARK    2  A    between atoms: C_2  and  N_3
REMARK    3  A    between atoms: C_6  and  N_7
REMARK    4  A    between atoms: N_7  and  C_8
REMARK    5  A    between atoms: C_10  and  O_11
REMARK    6  A    between atoms: O_11  and  C_12
REMARK    7  A    between atoms: C_15  and  O_16
REMARK    8  A    between atoms: O_16  and  C_17
REMARK                            x       y       z     vdW  Elec       q    Type
REMARK                         _______ _______ _______ _____ _____    ______ ____
ROOT
ATOM      1  N   UNL     1       5.757   4.181  18.904  0.00  0.00    +0.000 N 
ATOM      2  H   UNL     1       5.948   3.191  19.041  0.00  0.00    +0.000 HD
ENDROOT
BRANCH   1   6
ATOM      3  N   UNL     1       6.168   3.305  14.198  0.00  0.00    +0.000 N 
ATOM      4  C   UNL     1       6.403   4.160  15.291  0.00  0.00    +0.000 A 
ATOM      5  C   UNL     1       5.959   3.753  16.535  0.00  0.00    +0.000 A 
ATOM      6  C   UNL     1       6.195   4.586  17.614  0.00  0.00    +0.000 A 
ATOM      7  N   UNL     1       6.904   5.718  17.469  0.00  0.00    +0.000 NA
ATOM      8  C   UNL     1       7.298   6.028  16.229  0.00  0.00    +0.000 A 
ATOM      9  N   UNL     1       7.063   5.313  15.122  0.00  0.00    +0.000 NA
ATOM     10  H   UNL     1       6.685   2.444  14.362  0.00  0.00    +0.000 HD
BRANCH   3  12
ATOM     11  C   UNL     1       5.481   3.283  11.867  0.00  0.00    +0.000 C 
ATOM     12  C   UNL     1       6.449   3.873  12.882  0.00  0.00    +0.000 C 
ENDBRANCH   3  12
ENDBRANCH   1   6
BRANCH   1  13
ATOM     13  C   UNL     1       4.446   4.415  19.415  0.00  0.00    +0.000 A 
ATOM     14  C   UNL     1       3.923   5.724  19.429  0.00  0.00    +0.000 A 
ATOM     15  C   UNL     1       2.604   5.995  19.803  0.00  0.00    +0.000 A 
ATOM     16  C   UNL     1       1.758   4.944  20.124  0.00  0.00    +0.000 A 
ATOM     17  C   UNL     1       2.237   3.632  20.074  0.00  0.00    +0.000 A 
ATOM     18  C   UNL     1       3.571   3.360  19.725  0.00  0.00    +0.000 A 
BRANCH  15  19
ATOM     19  O   UNL     1       2.245   7.315  19.761  0.00  0.00    +0.000 OA
ATOM     20  C   UNL     1       2.320   7.928  18.479  0.00  0.00    +0.000 C 
ENDBRANCH  15  19
BRANCH  18  21
ATOM     21  O   UNL     1       3.855   2.019  19.656  0.00  0.00    +0.000 OA
ATOM     22  C   UNL     1       3.589   1.384  18.410  0.00  0.00    +0.000 C 
ENDBRANCH  18  21
ENDBRANCH   1  13
TORSDOF 5
ENDMDL
MODEL 2
REMARK VINA RESULT:      -6.8      1.448      1.659
REMARK  Name = 
REMARK  8 active torsions:
REMARK  status: ('A' for Active; 'I' for Inactive)
REMARK    1  A    between atoms: C_1  and  C_2
REMARK    2  A    between atoms: C_2  and  N_3
REMARK    3  A    between atoms: C_6  and  N_7
REMARK    4  A    between atoms: N_7  and  C_8
REMARK    5  A    between atoms: C_10  and  O_11
REMARK    6  A    between atoms: O_11  and  C_12
REMARK    7  A    between atoms: C_15  and  O_16
REMARK    8  A    between atoms: O_16  and  C_17
REMARK                            x       y       z     vdW  Elec       q    Type
REMARK                         _______ _______ _______ _____ _____    ______ ____
ROOT
ATOM      1  N   UNL     1       4.265   3.750  18.617  0.00  0.00    +0.000 N 
ATOM      2  H   UNL     1       3.616   3.148  18.117  0.00  0.00    +0.000 HD
ENDROOT
BRANCH   1   6
ATOM      3  N   UNL     1       6.156   4.152  14.218  0.00  0.00    +0.000 N 
ATOM      4  C   UNL     1       6.306   4.279  15.612  0.00  0.00    +0.000 A 
ATOM      5  C   UNL     1       5.220   3.964  16.408  0.00  0.00    +0.000 A 
ATOM      6  C   UNL     1       5.365   4.080  17.779  0.00  0.00    +0.000 A 
ATOM      7  N   UNL     1       6.549   4.410  18.322  0.00  0.00    +0.000 NA
ATOM      8  C   UNL     1       7.544   4.691  17.473  0.00  0.00    +0.000 A 
ATOM      9  N   UNL     1       7.476   4.663  16.137  0.00  0.00    +0.000 NA
ATOM     10  H   UNL     1       5.991   3.169  14.013  0.00  0.00    +0.000 HD
BRANCH   3  12
ATOM     11  C   UNL     1       7.161   4.135  12.006  0.00  0.00    +0.000 C 
ATOM     12  C   UNL     1       7.242   4.705  13.414  0.00  0.00    +0.000 C 
ENDBRANCH   3  12
ENDBRANCH   1   6
BRANCH   1  13
ATOM     13  C   UNL     1       3.473   4.711  19.312  0.00  0.00    +0.000 A 
ATOM     14  C   UNL     1       3.273   5.991  18.755  0.00  0.00    +0.000 A 
ATOM     15  C   UNL     1       2.409   6.927  19.330  0.00  0.00    +0.000 A 
ATOM     16  C   UNL     1       1.682   6.579  20.458  0.00  0.00    +0.000 A 
ATOM     17  C   UNL     1       1.826   5.301  21.006  0.00  0.00    +0.000 A 
ATOM     18  C   UNL     1       2.714   4.368  20.445  0.00  0.00    +0.000 A 
BRANCH  15  19
ATOM     19  O   UNL     1       2.320   8.122  18.668  0.00  0.00    +0.000 OA
ATOM     20  C   UNL     1       1.413   9.064  19.229  0.00  0.00    +0.000 C 
ENDBRANCH  15  19
BRANCH  18  21
ATOM     21  O   UNL     1       2.680   3.143  21.061  0.00  0.00    +0.000 OA
ATOM     22  C   UNL     1       1.407   2.709  21.527  0.00  0.00    +0.000 C 
ENDBRANCH  18  21
ENDBRANCH   1  13
TORSDOF 5
ENDMDL
MODEL 3
REMARK VINA RESULT:      -6.7      1.293      3.209
REMARK  Name = 
REMARK  8 active torsions:
REMARK  status: ('A' for Active; 'I' for Inactive)
REMARK    1  A    between atoms: C_1  and  C_2
REMARK    2  A    between atoms: C_2  and  N_3
REMARK    3  A    between atoms: C_6  and  N_7
REMARK    4  A    between atoms: N_7  and  C_8
REMARK    5  A    between atoms: C_10  and  O_11
REMARK    6  A    between atoms: O_11  and  C_12
REMARK    7  A    between atoms: C_15  and  O_16
REMARK    8  A    between atoms: O_16  and  C_17
REMARK                            x       y       z     vdW  Elec       q    Type
REMARK                         _______ _______ _______ _____ _____    ______ ____
ROOT
ATOM      1  N   UNL     1       4.245   6.276  18.312  0.00  0.00    +0.000 N 
ATOM      2  H   UNL     1       4.693   6.851  19.022  0.00  0.00    +0.000 HD
ENDROOT
BRANCH   1   6
ATOM      3  N   UNL     1       5.502   4.316  14.110  0.00  0.00    +0.000 N 
ATOM      4  C   UNL     1       5.857   4.695  15.418  0.00  0.00    +0.000 A 
ATOM      5  C   UNL     1       4.888   5.298  16.199  0.00  0.00    +0.000 A 
ATOM      6  C   UNL     1       5.229   5.665  17.488  0.00  0.00    +0.000 A 
ATOM      7  N   UNL     1       6.439   5.372  17.992  0.00  0.00    +0.000 NA
ATOM      8  C   UNL     1       7.309   4.783  17.164  0.00  0.00    +0.000 A 
ATOM      9  N   UNL     1       7.086   4.447  15.888  0.00  0.00    +0.000 NA
ATOM     10  H   UNL     1       4.779   3.603  14.180  0.00  0.00    +0.000 HD
BRANCH   3  12
ATOM     11  C   UNL     1       6.054   3.119  12.068  0.00  0.00    +0.000 C 
ATOM     12  C   UNL     1       6.609   3.894  13.255  0.00  0.00    +0.000 C 
ENDBRANCH   3  12
ENDBRANCH   1   6
BRANCH   1  13
ATOM     13  C   UNL     1       3.198   5.564  18.971  0.00  0.00    +0.000 A 
ATOM     14  C   UNL     1       3.140   4.158  18.877  0.00  0.00    +0.000 A 
ATOM     15  C   UNL     1       2.213   3.402  19.599  0.00  0.00    +0.000 A 
ATOM     16  C   UNL     1       1.350   4.040  20.477  0.00  0.00    +0.000 A 
ATOM     17  C   UNL     1       1.416   5.429  20.624  0.00  0.00    +0.000 A 
ATOM     18  C   UNL     1       2.329   6.193  19.879  0.00  0.00    +0.000 A 
BRANCH  15  19
ATOM     19  O   UNL     1       2.286   2.049  19.404  0.00  0.00    +0.000 OA
ATOM     20  C   UNL     1       3.430   1.596  18.690  0.00  0.00    +0.000 C 
ENDBRANCH  15  19
BRANCH  18  21
ATOM     21  O   UNL     1       2.311   7.528  20.197  0.00  0.00    +0.000 OA
ATOM     22  C   UNL     1       1.220   7.968  20.997  0.00  0.00    +0.000 C 
ENDBRANCH  18  21
ENDBRANCH   1  13
TORSDOF 5
ENDMDL
MODEL 4
REMARK VINA RESULT:      -6.6      3.670      6.802
REMARK  Name = 
REMARK  8 active torsions:
REMARK  status: ('A' for Active; 'I' for Inactive)
REMARK    1  A    between atoms: C_1  and  C_2
REMARK    2  A    between atoms: C_2  and  N_3
REMARK    3  A    between atoms: C_6  and  N_7
REMARK    4  A    between atoms: N_7  and  C_8
REMARK    5  A    between atoms: C_10  and  O_11
REMARK    6  A    between atoms: O_11  and  C_12
REMARK    7  A    between atoms: C_15  and  O_16
REMARK    8  A    between atoms: O_16  and  C_17
REMARK                            x       y       z     vdW  Elec       q    Type
REMARK                         _______ _______ _______ _____ _____    ______ ____
ROOT
ATOM      1  N   UNL     1       3.049   6.380  17.698  0.00  0.00    +0.000 N 
ATOM      2  H   UNL     1       2.521   5.524  17.852  0.00  0.00    +0.000 HD
ENDROOT
BRANCH   1   6
ATOM      3  N   UNL     1       1.344   8.362  21.728  0.00  0.00    +0.000 N 
ATOM      4  C   UNL     1       1.569   8.452  20.342  0.00  0.00    +0.000 A 
ATOM      5  C   UNL     1       2.198   7.388  19.722  0.00  0.00    +0.000 A 
ATOM      6  C   UNL     1       2.415   7.467  18.358  0.00  0.00    +0.000 A 
ATOM      7  N   UNL     1       1.957   8.510  17.646  0.00  0.00    +0.000 NA
ATOM      8  C   UNL     1       1.355   9.490  18.331  0.00  0.00    +0.000 A 
ATOM      9  N   UNL     1       1.157   9.524  19.654  0.00  0.00    +0.000 NA
ATOM     10  H   UNL     1       0.705   7.586  21.888  0.00  0.00    +0.000 HD
BRANCH   3  12
ATOM     11  C   UNL     1      -0.519   9.377  22.914  0.00  0.00    +0.000 C 
ATOM     12  C   UNL     1       0.887   9.591  22.373  0.00  0.00    +0.000 C 
ENDBRANCH   3  12
ENDBRANCH   1   6
BRANCH   1  13
ATOM     13  C   UNL     1       4.425   6.040  17.857  0.00  0.00    +0.000 A 
ATOM     14  C   UNL     1       5.421   6.872  17.307  0.00  0.00    +0.000 A 
ATOM     15  C   UNL     1       6.783   6.655  17.535  0.00  0.00    +0.000 A 
ATOM     16  C   UNL     1       7.176   5.619  18.369  0.00  0.00    +0.000 A 
ATOM     17  C   UNL     1       6.208   4.806  18.964  0.00  0.00    +0.000 A 
ATOM     18  C   UNL     1       4.840   5.006  18.714  0.00  0.00    +0.000 A 
BRANCH  15  19
ATOM     19  O   UNL     1       7.625   7.552  16.935  0.00  0.00    +0.000 OA
ATOM     20  C   UNL     1       7.995   8.670  17.734  0.00  0.00    +0.000 C 
ENDBRANCH  15  19
BRANCH  18  21
ATOM     21  O   UNL     1       4.026   4.167  19.432  0.00  0.00    +0.000 OA
ATOM     22  C   UNL     1       4.488   2.832  19.598  0.00  0.00    +0.000 C 
ENDBRANCH  18  21
ENDBRANCH   1  13
TORSDOF 5
ENDMDL
MODEL 5
REMARK VINA RESULT:      -6.6      3.665      6.551
REMARK  Name = 
REMARK  8 active torsions:
REMARK  status: ('A' for Active; 'I' for Inactive)
REMARK    1  A    between atoms: C_1  and  C_2
REMARK    2  A    between atoms: C_2  and  N_3
REMARK    3  A    between atoms: C_6  and  N_7
REMARK    4  A    between atoms: N_7  and  C_8
REMARK    5  A    between atoms: C_10  and  O_11
REMARK    6  A    between atoms: O_11  and  C_12
REMARK    7  A    between atoms: C_15  and  O_16
REMARK    8  A    between atoms: O_16  and  C_17
REMARK                            x       y       z     vdW  Elec       q    Type
REMARK                         _______ _______ _______ _____ _____    ______ ____
ROOT
ATOM      1  N   UNL     1       3.231   6.386  17.747  0.00  0.00    +0.000 N 
ATOM      2  H   UNL     1       2.770   5.479  17.766  0.00  0.00    +0.000 HD
ENDROOT
BRANCH   1   6
ATOM      3  N   UNL     1       0.890  10.575  17.992  0.00  0.00    +0.000 N 
ATOM      4  C   UNL     1       1.322   9.395  18.627  0.00  0.00    +0.000 A 
ATOM      5  C   UNL     1       2.044   8.486  17.876  0.00  0.00    +0.000 A 
ATOM      6  C   UNL     1       2.477   7.329  18.498  0.00  0.00    +0.000 A 
ATOM      7  N   UNL     1       2.271   7.133  19.811  0.00  0.00    +0.000 NA
ATOM      8  C   UNL     1       1.568   8.070  20.457  0.00  0.00    +0.000 A 
ATOM      9  N   UNL     1       1.061   9.187  19.924  0.00  0.00    +0.000 NA
ATOM     10  H   UNL     1       1.718  11.100  17.719  0.00  0.00    +0.000 HD
BRANCH   3  12
ATOM     11  C   UNL     1      -1.454  11.183  18.198  0.00  0.00    +0.000 C 
ATOM     12  C   UNL     1      -0.053  11.391  18.753  0.00  0.00    +0.000 C 
ENDBRANCH   3  12
ENDBRANCH   1   6
BRANCH   1  13
ATOM     13  C   UNL     1       4.622   6.138  17.941  0.00  0.00    +0.000 A 
ATOM     14  C   UNL     1       5.575   7.005  17.368  0.00  0.00    +0.000 A 
ATOM     15  C   UNL     1       6.943   6.882  17.625  0.00  0.00    +0.000 A 
ATOM     16  C   UNL     1       7.384   5.910  18.511  0.00  0.00    +0.000 A 
ATOM     17  C   UNL     1       6.457   5.066  19.129  0.00  0.00    +0.000 A 
ATOM     18  C   UNL     1       5.084   5.171  18.850  0.00  0.00    +0.000 A 
BRANCH  15  19
ATOM     19  O   UNL     1       7.740   7.801  16.998  0.00  0.00    +0.000 OA
ATOM     20  C   UNL     1       8.138   8.909  17.796  0.00  0.00    +0.000 C 
ENDBRANCH  15  19
BRANCH  18  21
ATOM     21  O   UNL     1       4.309   4.317  19.594  0.00  0.00    +0.000 OA
ATOM     22  C   UNL     1       4.245   2.970  19.139  0.00  0.00    +0.000 C 
ENDBRANCH  18  21
ENDBRANCH   1  13
TORSDOF 5
ENDMDL
MODEL 6
REMARK VINA RESULT:      -6.5      1.258      1.307
REMARK  Name = 
REMARK  8 active torsions:
REMARK  status: ('A' for Active; 'I' for Inactive)
REMARK    1  A    between atoms: C_1  and  C_2
REMARK    2  A    between atoms: C_2  and  N_3
REMARK    3  A    between atoms: C_6  and  N_7
REMARK    4  A    between atoms: N_7  and  C_8
REMARK    5  A    between atoms: C_10  and  O_11
REMARK    6  A    between atoms: O_11  and  C_12
REMARK    7  A    between atoms: C_15  and  O_16
REMARK    8  A    between atoms: O_16  and  C_17
REMARK                            x       y       z     vdW  Elec       q    Type
REMARK                         _______ _______ _______ _____ _____    ______ ____
ROOT
ATOM      1  N   UNL     1       4.858   4.377  18.678  0.00  0.00    +0.000 N 
ATOM      2  H   UNL     1       5.336   3.495  18.846  0.00  0.00    +0.000 HD
ENDROOT
BRANCH   1   6
ATOM      3  N   UNL     1       6.203   3.403  14.169  0.00  0.00    +0.000 N 
ATOM      4  C   UNL     1       5.767   4.343  15.121  0.00  0.00    +0.000 A 
ATOM      5  C   UNL     1       5.524   3.894  16.406  0.00  0.00    +0.000 A 
ATOM      6  C   UNL     1       5.102   4.815  17.347  0.00  0.00    +0.000 A 
ATOM      7  N   UNL     1       5.009   6.120  17.042  0.00  0.00    +0.000 NA
ATOM      8  C   UNL     1       5.270   6.463  15.776  0.00  0.00    +0.000 A 
ATOM      9  N   UNL     1       5.624   5.632  14.788  0.00  0.00    +0.000 NA
ATOM     10  H   UNL     1       7.111   3.055  14.472  0.00  0.00    +0.000 HD
BRANCH   3  12
ATOM     11  C   UNL     1       6.312   2.672  11.854  0.00  0.00    +0.000 C 
ATOM     12  C   UNL     1       6.229   3.872  12.786  0.00  0.00    +0.000 C 
ENDBRANCH   3  12
ENDBRANCH   1   6
BRANCH   1  13
ATOM     13  C   UNL     1       3.559   4.249  19.253  0.00  0.00    +0.000 A 
ATOM     14  C   UNL     1       3.003   5.325  19.974  0.00  0.00    +0.000 A 
ATOM     15  C   UNL     1       1.690   5.302  20.453  0.00  0.00    +0.000 A 
ATOM     16  C   UNL     1       0.883   4.210  20.172  0.00  0.00    +0.000 A 
ATOM     17  C   UNL     1       1.394   3.148  19.420  0.00  0.00    +0.000 A 
ATOM     18  C   UNL     1       2.722   3.159  18.961  0.00  0.00    +0.000 A 
BRANCH  15  19
ATOM     19  O   UNL     1       1.296   6.424  21.130  0.00  0.00    +0.000 OA
ATOM     20  C   UNL     1       1.700   7.659  20.552  0.00  0.00    +0.000 C 
ENDBRANCH  15  19
BRANCH  18  21
ATOM     21  O   UNL     1       3.038   2.076  18.179  0.00  0.00    +0.000 OA
ATOM     22  C   UNL     1       3.842   1.073  18.791  0.00  0.00    +0.000 C 
ENDBRANCH  18  21
ENDBRANCH   1  13
TORSDOF 5
ENDMDL
MODEL 7
REMARK VINA RESULT:      -6.5      4.026      7.209
REMARK  Name = 
REMARK  8 active torsions:
REMARK  status: ('A' for Active; 'I' for Inactive)
REMARK    1  A    between atoms: C_1  and  C_2
REMARK    2  A    between atoms: C_2  and  N_3
REMARK    3  A    between atoms: C_6  and  N_7
REMARK    4  A    between atoms: N_7  and  C_8
REMARK    5  A    between atoms: C_10  and  O_11
REMARK    6  A    between atoms: O_11  and  C_12
REMARK    7  A    between atoms: C_15  and  O_16
REMARK    8  A    between atoms: O_16  and  C_17
REMARK                            x       y       z     vdW  Elec       q    Type
REMARK                         _______ _______ _______ _____ _____    ______ ____
ROOT
ATOM      1  N   UNL     1       2.822   6.342  19.960  0.00  0.00    +0.000 N 
ATOM      2  H   UNL     1       3.816   6.532  20.069  0.00  0.00    +0.000 HD
ENDROOT
BRANCH   1   6
ATOM      3  N   UNL     1      -0.113   9.624  21.884  0.00  0.00    +0.000 N 
ATOM      4  C   UNL     1       0.655   9.187  20.788  0.00  0.00    +0.000 A 
ATOM      5  C   UNL     1       1.354   8.002  20.923  0.00  0.00    +0.000 A 
ATOM      6  C   UNL     1       2.104   7.564  19.847  0.00  0.00    +0.000 A 
ATOM      7  N   UNL     1       2.089   8.229  18.679  0.00  0.00    +0.000 NA
ATOM      8  C   UNL     1       1.379   9.362  18.640  0.00  0.00    +0.000 A 
ATOM      9  N   UNL     1       0.674   9.890  19.648  0.00  0.00    +0.000 NA
ATOM     10  H   UNL     1      -0.845   8.935  22.043  0.00  0.00    +0.000 HD
BRANCH   3  12
ATOM     11  C   UNL     1      -1.389  11.324  23.062  0.00  0.00    +0.000 C 
ATOM     12  C   UNL     1      -0.647  10.979  21.779  0.00  0.00    +0.000 C 
ENDBRANCH   3  12
ENDBRANCH   1   6
BRANCH   1  13
ATOM     13  C   UNL     1       2.715   5.263  19.033  0.00  0.00    +0.000 A 
ATOM     14  C   UNL     1       3.638   5.155  17.973  0.00  0.00    +0.000 A 
ATOM     15  C   UNL     1       3.656   4.055  17.111  0.00  0.00    +0.000 A 
ATOM     16  C   UNL     1       2.774   3.007  17.326  0.00  0.00    +0.000 A 
ATOM     17  C   UNL     1       1.879   3.067  18.397  0.00  0.00    +0.000 A 
ATOM     18  C   UNL     1       1.841   4.184  19.249  0.00  0.00    +0.000 A 
BRANCH  15  19
ATOM     19  O   UNL     1       4.614   4.096  16.134  0.00  0.00    +0.000 OA
ATOM     20  C   UNL     1       5.948   4.279  16.594  0.00  0.00    +0.000 C 
ENDBRANCH  15  19
BRANCH  18  21
ATOM     21  O   UNL     1       0.956   4.048  20.289  0.00  0.00    +0.000 OA
ATOM     22  C   UNL     1       1.233   3.007  21.219  0.00  0.00    +0.000 C 
ENDBRANCH  18  21
ENDBRANCH   1  13
TORSDOF 5
ENDMDL
MODEL 8
REMARK VINA RESULT:      -6.5      1.136      3.141
REMARK  Name = 
REMARK  8 active torsions:
REMARK  status: ('A' for Active; 'I' for Inactive)
REMARK    1  A    between atoms: C_1  and  C_2
REMARK    2  A    between atoms: C_2  and  N_3
REMARK    3  A    between atoms: C_6  and  N_7
REMARK    4  A    between atoms: N_7  and  C_8
REMARK    5  A    between atoms: C_10  and  O_11
REMARK    6  A    between atoms: O_11  and  C_12
REMARK    7  A    between atoms: C_15  and  O_16
REMARK    8  A    between atoms: O_16  and  C_17
REMARK                            x       y       z     vdW  Elec       q    Type
REMARK                         _______ _______ _______ _____ _____    ______ ____
ROOT
ATOM      1  N   UNL     1       4.668   6.399  18.289  0.00  0.00    +0.000 N 
ATOM      2  H   UNL     1       5.210   6.962  18.940  0.00  0.00    +0.000 HD
ENDROOT
BRANCH   1   6
ATOM      3  N   UNL     1       5.470   4.327  14.029  0.00  0.00    +0.000 N 
ATOM      4  C   UNL     1       5.942   4.678  15.307  0.00  0.00    +0.000 A 
ATOM      5  C   UNL     1       5.083   5.363  16.146  0.00  0.00    +0.000 A 
ATOM      6  C   UNL     1       5.540   5.705  17.406  0.00  0.00    +0.000 A 
ATOM      7  N   UNL     1       6.752   5.311  17.830  0.00  0.00    +0.000 NA
ATOM      8  C   UNL     1       7.511   4.646  16.952  0.00  0.00    +0.000 A 
ATOM      9  N   UNL     1       7.175   4.327  15.697  0.00  0.00    +0.000 NA
ATOM     10  H   UNL     1       4.695   3.678  14.153  0.00  0.00    +0.000 HD
BRANCH   3  12
ATOM     11  C   UNL     1       5.786   3.002  12.016  0.00  0.00    +0.000 C 
ATOM     12  C   UNL     1       6.476   3.810  13.105  0.00  0.00    +0.000 C 
ENDBRANCH   3  12
ENDBRANCH   1   6
BRANCH   1  13
ATOM     13  C   UNL     1       3.638   5.775  19.052  0.00  0.00    +0.000 A 
ATOM     14  C   UNL     1       3.788   4.436  19.470  0.00  0.00    +0.000 A 
ATOM     15  C   UNL     1       2.871   3.814  20.321  0.00  0.00    +0.000 A 
ATOM     16  C   UNL     1       1.800   4.543  20.817  0.00  0.00    +0.000 A 
ATOM     17  C   UNL     1       1.651   5.885  20.455  0.00  0.00    +0.000 A 
ATOM     18  C   UNL     1       2.558   6.504  19.578  0.00  0.00    +0.000 A 
BRANCH  15  19
ATOM     19  O   UNL     1       3.159   2.514  20.638  0.00  0.00    +0.000 OA
ATOM     20  C   UNL     1       4.444   2.057  20.234  0.00  0.00    +0.000 C 
ENDBRANCH  15  19
BRANCH  18  21
ATOM     21  O   UNL     1       2.306   7.839  19.387  0.00  0.00    +0.000 OA
ATOM     22  C   UNL     1       1.959   8.229  18.063  0.00  0.00    +0.000 C 
ENDBRANCH  18  21
ENDBRANCH   1  13
TORSDOF 5
ENDMDL
MODEL 9
REMARK VINA RESULT:      -6.5      2.839      6.206
REMARK  Name = 
REMARK  8 active torsions:
REMARK  status: ('A' for Active; 'I' for Inactive)
REMARK    1  A    between atoms: C_1  and  C_2
REMARK    2  A    between atoms: C_2  and  N_3
REMARK    3  A    between atoms: C_6  and  N_7
REMARK    4  A    between atoms: N_7  and  C_8
REMARK    5  A    between atoms: C_10  and  O_11
REMARK    6  A    between atoms: O_11  and  C_12
REMARK    7  A    between atoms: C_15  and  O_16
REMARK    8  A    between atoms: O_16  and  C_17
REMARK                            x       y       z     vdW  Elec       q    Type
REMARK                         _______ _______ _______ _____ _____    ______ ____
ROOT
ATOM      1  N   UNL     1       3.921   4.184  18.474  0.00  0.00    +0.000 N 
ATOM      2  H   UNL     1       4.252   3.637  19.266  0.00  0.00    +0.000 HD
ENDROOT
BRANCH   1   6
ATOM      3  N   UNL     1       2.436   8.702  17.792  0.00  0.00    +0.000 N 
ATOM      4  C   UNL     1       2.475   7.555  18.607  0.00  0.00    +0.000 A 
ATOM      5  C   UNL     1       3.162   6.452  18.135  0.00  0.00    +0.000 A 
ATOM      6  C   UNL     1       3.209   5.325  18.935  0.00  0.00    +0.000 A 
ATOM      7  N   UNL     1       2.673   5.330  20.167  0.00  0.00    +0.000 NA
ATOM      8  C   UNL     1       2.033   6.444  20.541  0.00  0.00    +0.000 A 
ATOM      9  N   UNL     1       1.887   7.556  19.810  0.00  0.00    +0.000 NA
ATOM     10  H   UNL     1       3.390   9.044  17.694  0.00  0.00    +0.000 HD
BRANCH   3  12
ATOM     11  C   UNL     1       2.190  11.106  18.047  0.00  0.00    +0.000 C 
ATOM     12  C   UNL     1       1.518   9.752  18.226  0.00  0.00    +0.000 C 
ENDBRANCH   3  12
ENDBRANCH   1   6
BRANCH   1  13
ATOM     13  C   UNL     1       4.997   4.235  17.540  0.00  0.00    +0.000 A 
ATOM     14  C   UNL     1       4.733   4.136  16.159  0.00  0.00    +0.000 A 
ATOM     15  C   UNL     1       5.731   4.302  15.195  0.00  0.00    +0.000 A 
ATOM     16  C   UNL     1       7.018   4.625  15.598  0.00  0.00    +0.000 A 
ATOM     17  C   UNL     1       7.299   4.775  16.958  0.00  0.00    +0.000 A 
ATOM     18  C   UNL     1       6.303   4.582  17.930  0.00  0.00    +0.000 A 
BRANCH  15  19
ATOM     19  O   UNL     1       5.315   4.179  13.897  0.00  0.00    +0.000 OA
ATOM     20  C   UNL     1       6.278   3.649  12.995  0.00  0.00    +0.000 C 
ENDBRANCH  15  19
BRANCH  18  21
ATOM     21  O   UNL     1       6.730   4.838  19.209  0.00  0.00    +0.000 OA
ATOM     22  C   UNL     1       7.735   5.835  19.347  0.00  0.00    +0.000 C 
ENDBRANCH  18  21
ENDBRANCH   1  13
TORSDOF 5
ENDMDL
