MODEL 1
REMARK VINA RESULT:      -7.3      0.000      0.000
REMARK  Name = 
REMARK  12 active torsions:
REMARK  status: ('A' for Active; 'I' for Inactive)
REMARK    1  A    between atoms: C_2  and  O_3
REMARK    2  A    between atoms: C_2  and  C_4
REMARK    3  A    between atoms: C_4  and  C_5
REMARK    4  A    between atoms: C_5  and  C_6
REMARK    5  A    between atoms: C_6  and  C_7
REMARK    6  A    between atoms: C_7  and  C_8
REMARK    7  A    between atoms: C_8  and  C_9
REMARK    8  A    between atoms: C_9  and  C_10
REMARK    9  A    between atoms: C_11  and  C_12
REMARK   10  A    between atoms: C_15  and  C_16
REMARK   11  A    between atoms: C_16  and  O_17
REMARK   12  A    between atoms: C_20  and  O_21
REMARK                            x       y       z     vdW  Elec       q    Type
REMARK                         _______ _______ _______ _____ _____    ______ ____
ROOT
ATOM      1  C   UNL     1       3.072   4.484  18.658  0.00  0.00    +0.000 C 
ATOM      2  C   UNL     1       2.811   5.308  19.956  0.00  0.00    +0.000 C 
ATOM      3  C   UNL     1       1.793   4.485  20.786  0.00  0.00    +0.000 C 
ATOM      4  C   UNL     1       1.349   3.334  19.897  0.00  0.00    +0.000 C 
ATOM      5  C   UNL     1       2.550   3.078  19.002  0.00  0.00    +0.000 C 
ATOM      6 CL   UNL     1       2.031   2.136  17.583  0.00  0.00    +0.000 Cl
ENDROOT
BRANCH   2   7
ATOM      7  C   UNL     1       2.311   6.711  19.652  0.00  0.00    +0.000 A 
ATOM      8  C   UNL     1       1.744   7.517  20.649  0.00  0.00    +0.000 A 
ATOM      9  C   UNL     1       1.269   8.797  20.355  0.00  0.00    +0.000 A 
ATOM     10  C   UNL     1       1.360   9.313  19.058  0.00  0.00    +0.000 A 
ATOM     11  C   UNL     1       1.919   8.509  18.057  0.00  0.00    +0.000 A 
ATOM     12  C   UNL     1       2.398   7.226  18.351  0.00  0.00    +0.000 A 
BRANCH  10  13
ATOM     13  C   UNL     1       0.784  10.673  18.757  0.00  0.00    +0.000 C 
BRANCH  13  14
ATOM     14  O   UNL     1      -0.289  11.004  19.628  0.00  0.00    +0.000 OA
ATOM     15  H   UNL     1      -0.147  11.925  19.905  0.00  0.00    +0.000 HD
ENDBRANCH  13  14
ENDBRANCH  10  13
ENDBRANCH   2   7
BRANCH   3  16
ATOM     16  O   UNL     1       2.398   3.971  21.974  0.00  0.00    +0.000 OA
ATOM     17  H   UNL     1       1.817   4.134  22.735  0.00  0.00    +0.000 HD
ENDBRANCH   3  16
BRANCH   1  18
ATOM     18  C   UNL     1       4.560   4.539  18.245  0.00  0.00    +0.000 C 
BRANCH  18  19
ATOM     19  C   UNL     1       4.777   4.227  16.766  0.00  0.00    +0.000 C 
BRANCH  19  20
ATOM     20  C   UNL     1       5.547   5.316  16.023  0.00  0.00    +0.000 C 
BRANCH  20  21
ATOM     21  C   UNL     1       5.816   6.490  16.970  0.00  0.00    +0.000 C 
BRANCH  21  22
ATOM     22  C   UNL     1       7.304   6.812  17.064  0.00  0.00    +0.000 C 
BRANCH  22  23
ATOM     23  C   UNL     1       7.764   6.877  18.521  0.00  0.00    +0.000 C 
BRANCH  23  25
ATOM     24  O   UNL     1       8.006   4.464  18.460  0.00  0.00    +0.000 OA
ATOM     25  C   UNL     1       7.977   5.499  19.100  0.00  0.00    +0.000 C 
BRANCH  25  26
ATOM     26  O   UNL     1       8.142   5.521  20.442  0.00  0.00    +0.000 OA
ATOM     27  H   UNL     1       7.866   4.695  20.882  0.00  0.00    +0.000 HD
ENDBRANCH  25  26
ENDBRANCH  23  25
ENDBRANCH  22  23
ENDBRANCH  21  22
ENDBRANCH  20  21
ENDBRANCH  19  20
ENDBRANCH  18  19
ENDBRANCH   1  18
TORSDOF 12
ENDMDL
MODEL 2
REMARK VINA RESULT:      -7.2      2.379      4.932
REMARK  Name = 
REMARK  12 active torsions:
REMARK  status: ('A' for Active; 'I' for Inactive)
REMARK    1  A    between atoms: C_2  and  O_3
REMARK    2  A    between atoms: C_2  and  C_4
REMARK    3  A    between atoms: C_4  and  C_5
REMARK    4  A    between atoms: C_5  and  C_6
REMARK    5  A    between atoms: C_6  and  C_7
REMARK    6  A    between atoms: C_7  and  C_8
REMARK    7  A    between atoms: C_8  and  C_9
REMARK    8  A    between atoms: C_9  and  C_10
REMARK    9  A    between atoms: C_11  and  C_12
REMARK   10  A    between atoms: C_15  and  C_16
REMARK   11  A    between atoms: C_16  and  O_17
REMARK   12  A    between atoms: C_20  and  O_21
REMARK                            x       y       z     vdW  Elec       q    Type
REMARK                         _______ _______ _______ _____ _____    ______ ____
ROOT
ATOM      1  C   UNL     1       5.318   5.534  18.697  0.00  0.00    +0.000 C 
ATOM      2  C   UNL     1       4.385   6.158  17.613  0.00  0.00    +0.000 C 
ATOM      3  C   UNL     1       5.317   6.918  16.636  0.00  0.00    +0.000 C 
ATOM      4  C   UNL     1       6.705   6.887  17.256  0.00  0.00    +0.000 C 
ATOM      5  C   UNL     1       6.717   5.596  18.060  0.00  0.00    +0.000 C 
ATOM      6 CL   UNL     1       8.045   5.659  19.245  0.00  0.00    +0.000 Cl
ENDROOT
BRANCH   2   7
ATOM      7  C   UNL     1       3.325   7.060  18.223  0.00  0.00    +0.000 A 
ATOM      8  C   UNL     1       2.844   8.187  17.540  0.00  0.00    +0.000 A 
ATOM      9  C   UNL     1       1.883   9.020  18.117  0.00  0.00    +0.000 A 
ATOM     10  C   UNL     1       1.366   8.744  19.388  0.00  0.00    +0.000 A 
ATOM     11  C   UNL     1       1.849   7.624  20.076  0.00  0.00    +0.000 A 
ATOM     12  C   UNL     1       2.811   6.786  19.497  0.00  0.00    +0.000 A 
BRANCH  10  13
ATOM     13  C   UNL     1       0.377   9.695  20.010  0.00  0.00    +0.000 C 
BRANCH  13  14
ATOM     14  O   UNL     1       0.962  10.954  20.313  0.00  0.00    +0.000 OA
ATOM     15  H   UNL     1       0.290  11.463  20.798  0.00  0.00    +0.000 HD
ENDBRANCH  13  14
ENDBRANCH  10  13
ENDBRANCH   2   7
BRANCH   3  16
ATOM     16  O   UNL     1       5.346   6.281  15.358  0.00  0.00    +0.000 OA
ATOM     17  H   UNL     1       5.353   6.952  14.656  0.00  0.00    +0.000 HD
ENDBRANCH   3  16
BRANCH   1  18
ATOM     18  C   UNL     1       4.850   4.116  19.094  0.00  0.00    +0.000 C 
BRANCH  18  19
ATOM     19  C   UNL     1       4.168   3.374  17.946  0.00  0.00    +0.000 C 
BRANCH  19  20
ATOM     20  C   UNL     1       3.388   2.142  18.400  0.00  0.00    +0.000 C 
BRANCH  20  21
ATOM     21  C   UNL     1       1.895   2.349  18.124  0.00  0.00    +0.000 C 
BRANCH  21  22
ATOM     22  C   UNL     1       1.351   3.576  18.848  0.00  0.00    +0.000 C 
BRANCH  22  23
ATOM     23  C   UNL     1       0.698   3.189  20.175  0.00  0.00    +0.000 C 
BRANCH  23  25
ATOM     24  O   UNL     1       2.334   4.319  21.566  0.00  0.00    +0.000 OA
ATOM     25  C   UNL     1       1.658   3.334  21.331  0.00  0.00    +0.000 C 
BRANCH  25  26
ATOM     26  O   UNL     1       1.696   2.232  22.114  0.00  0.00    +0.000 OA
ATOM     27  H   UNL     1       1.182   1.483  21.758  0.00  0.00    +0.000 HD
ENDBRANCH  25  26
ENDBRANCH  23  25
ENDBRANCH  22  23
ENDBRANCH  21  22
ENDBRANCH  20  21
ENDBRANCH  19  20
ENDBRANCH  18  19
ENDBRANCH   1  18
TORSDOF 12
ENDMDL
MODEL 3
REMARK VINA RESULT:      -7.2      2.409      4.740
REMARK  Name = 
REMARK  12 active torsions:
REMARK  status: ('A' for Active; 'I' for Inactive)
REMARK    1  A    between atoms: C_2  and  O_3
REMARK    2  A    between atoms: C_2  and  C_4
REMARK    3  A    between atoms: C_4  and  C_5
REMARK    4  A    between atoms: C_5  and  C_6
REMARK    5  A    between atoms: C_6  and  C_7
REMARK    6  A    between atoms: C_7  and  C_8
REMARK    7  A    between atoms: C_8  and  C_9
REMARK    8  A    between atoms: C_9  and  C_10
REMARK    9  A    between atoms: C_11  and  C_12
REMARK   10  A    between atoms: C_15  and  C_16
REMARK   11  A    between atoms: C_16  and  O_17
REMARK   12  A    between atoms: C_20  and  O_21
REMARK                            x       y       z     vdW  Elec       q    Type
REMARK                         _______ _______ _______ _____ _____    ______ ____
ROOT
ATOM      1  C   UNL     1       5.108   5.551  18.540  0.00  0.00    +0.000 C 
ATOM      2  C   UNL     1       4.214   6.304  17.507  0.00  0.00    +0.000 C 
ATOM      3  C   UNL     1       5.187   7.086  16.590  0.00  0.00    +0.000 C 
ATOM      4  C   UNL     1       6.569   6.934  17.205  0.00  0.00    +0.000 C 
ATOM      5  C   UNL     1       6.511   5.588  17.909  0.00  0.00    +0.000 C 
ATOM      6 CL   UNL     1       7.836   5.491  19.095  0.00  0.00    +0.000 Cl
ENDROOT
BRANCH   2   7
ATOM      7  C   UNL     1       3.200   7.212  18.183  0.00  0.00    +0.000 A 
ATOM      8  C   UNL     1       2.687   6.917  19.455  0.00  0.00    +0.000 A 
ATOM      9  C   UNL     1       1.741   7.748  20.059  0.00  0.00    +0.000 A 
ATOM     10  C   UNL     1       1.290   8.905  19.415  0.00  0.00    +0.000 A 
ATOM     11  C   UNL     1       1.794   9.200  18.142  0.00  0.00    +0.000 A 
ATOM     12  C   UNL     1       2.745   8.369  17.536  0.00  0.00    +0.000 A 
BRANCH  10  13
ATOM     13  C   UNL     1       0.225   9.749  20.065  0.00  0.00    +0.000 C 
BRANCH  13  14
ATOM     14  O   UNL     1       0.174   9.557  21.472  0.00  0.00    +0.000 OA
ATOM     15  H   UNL     1      -0.454   8.832  21.630  0.00  0.00    +0.000 HD
ENDBRANCH  13  14
ENDBRANCH  10  13
ENDBRANCH   2   7
BRANCH   3  16
ATOM     16  O   UNL     1       5.188   6.546  15.267  0.00  0.00    +0.000 OA
ATOM     17  H   UNL     1       4.379   6.027  15.124  0.00  0.00    +0.000 HD
ENDBRANCH   3  16
BRANCH   1  18
ATOM     18  C   UNL     1       4.565   4.134  18.829  0.00  0.00    +0.000 C 
BRANCH  18  19
ATOM     19  C   UNL     1       4.064   3.424  17.573  0.00  0.00    +0.000 C 
BRANCH  19  20
ATOM     20  C   UNL     1       2.554   3.531  17.379  0.00  0.00    +0.000 C 
BRANCH  20  21
ATOM     21  C   UNL     1       1.839   2.702  18.451  0.00  0.00    +0.000 C 
BRANCH  21  22
ATOM     22  C   UNL     1       0.993   3.575  19.370  0.00  0.00    +0.000 C 
BRANCH  22  23
ATOM     23  C   UNL     1       0.927   2.990  20.782  0.00  0.00    +0.000 C 
BRANCH  23  25
ATOM     24  O   UNL     1       2.927   2.386  22.014  0.00  0.00    +0.000 OA
ATOM     25  C   UNL     1       2.200   3.246  21.551  0.00  0.00    +0.000 C 
BRANCH  25  26
ATOM     26  O   UNL     1       2.472   4.565  21.680  0.00  0.00    +0.000 OA
ATOM     27  H   UNL     1       3.005   4.926  20.948  0.00  0.00    +0.000 HD
ENDBRANCH  25  26
ENDBRANCH  23  25
ENDBRANCH  22  23
ENDBRANCH  21  22
ENDBRANCH  20  21
ENDBRANCH  19  20
ENDBRANCH  18  19
ENDBRANCH   1  18
TORSDOF 12
ENDMDL
MODEL 4
REMARK VINA RESULT:      -7.0      0.942      1.429
REMARK  Name = 
REMARK  12 active torsions:
REMARK  status: ('A' for Active; 'I' for Inactive)
REMARK    1  A    between atoms: C_2  and  O_3
REMARK    2  A    between atoms: C_2  and  C_4
REMARK    3  A    between atoms: C_4  and  C_5
REMARK    4  A    between atoms: C_5  and  C_6
REMARK    5  A    between atoms: C_6  and  C_7
REMARK    6  A    between atoms: C_7  and  C_8
REMARK    7  A    between atoms: C_8  and  C_9
REMARK    8  A    between atoms: C_9  and  C_10
REMARK    9  A    between atoms: C_11  and  C_12
REMARK   10  A    between atoms: C_15  and  C_16
REMARK   11  A    between atoms: C_16  and  O_17
REMARK   12  A    between atoms: C_20  and  O_21
REMARK                            x       y       z     vdW  Elec       q    Type
REMARK                         _______ _______ _______ _____ _____    ______ ____
ROOT
ATOM      1  C   UNL     1       3.219   4.176  18.940  0.00  0.00    +0.000 C 
ATOM      2  C   UNL     1       2.752   4.986  20.189  0.00  0.00    +0.000 C 
ATOM      3  C   UNL     1       1.608   4.160  20.829  0.00  0.00    +0.000 C 
ATOM      4  C   UNL     1       1.310   3.023  19.865  0.00  0.00    +0.000 C 
ATOM      5  C   UNL     1       2.641   2.770  19.175  0.00  0.00    +0.000 C 
ATOM      6 CL   UNL     1       2.357   1.849  17.677  0.00  0.00    +0.000 Cl
ENDROOT
BRANCH   2   7
ATOM      7  C   UNL     1       2.315   6.396  19.826  0.00  0.00    +0.000 A 
ATOM      8  C   UNL     1       2.537   6.923  18.546  0.00  0.00    +0.000 A 
ATOM      9  C   UNL     1       2.149   8.227  18.228  0.00  0.00    +0.000 A 
ATOM     10  C   UNL     1       1.515   9.036  19.177  0.00  0.00    +0.000 A 
ATOM     11  C   UNL     1       1.297   8.516  20.459  0.00  0.00    +0.000 A 
ATOM     12  C   UNL     1       1.683   7.208  20.778  0.00  0.00    +0.000 A 
BRANCH  10  13
ATOM     13  C   UNL     1       1.163  10.458  18.824  0.00  0.00    +0.000 C 
BRANCH  13  14
ATOM     14  O   UNL     1       1.886  10.923  17.693  0.00  0.00    +0.000 OA
ATOM     15  H   UNL     1       1.252  11.408  17.138  0.00  0.00    +0.000 HD
ENDBRANCH  13  14
ENDBRANCH  10  13
ENDBRANCH   2   7
BRANCH   3  16
ATOM     16  O   UNL     1       2.008   3.627  22.093  0.00  0.00    +0.000 OA
ATOM     17  H   UNL     1       1.336   3.004  22.414  0.00  0.00    +0.000 HD
ENDBRANCH   3  16
BRANCH   1  18
ATOM     18  C   UNL     1       4.754   4.227  18.777  0.00  0.00    +0.000 C 
BRANCH  18  19
ATOM     19  C   UNL     1       5.224   3.693  17.425  0.00  0.00    +0.000 C 
BRANCH  19  20
ATOM     20  C   UNL     1       4.670   4.478  16.238  0.00  0.00    +0.000 C 
BRANCH  20  21
ATOM     21  C   UNL     1       5.169   5.926  16.303  0.00  0.00    +0.000 C 
BRANCH  21  22
ATOM     22  C   UNL     1       6.688   5.997  16.409  0.00  0.00    +0.000 C 
BRANCH  22  23
ATOM     23  C   UNL     1       7.123   7.089  17.386  0.00  0.00    +0.000 C 
BRANCH  23  25
ATOM     24  O   UNL     1       7.949   5.356  18.869  0.00  0.00    +0.000 OA
ATOM     25  C   UNL     1       7.932   6.525  18.529  0.00  0.00    +0.000 C 
BRANCH  25  26
ATOM     26  O   UNL     1       8.667   7.469  19.160  0.00  0.00    +0.000 OA
ATOM     27  H   UNL     1       9.388   7.102  19.703  0.00  0.00    +0.000 HD
ENDBRANCH  25  26
ENDBRANCH  23  25
ENDBRANCH  22  23
ENDBRANCH  21  22
ENDBRANCH  20  21
ENDBRANCH  19  20
ENDBRANCH  18  19
ENDBRANCH   1  18
TORSDOF 12
ENDMDL
MODEL 5
REMARK VINA RESULT:      -7.0      2.385      3.271
REMARK  Name = 
REMARK  12 active torsions:
REMARK  status: ('A' for Active; 'I' for Inactive)
REMARK    1  A    between atoms: C_2  and  O_3
REMARK    2  A    between atoms: C_2  and  C_4
REMARK    3  A    between atoms: C_4  and  C_5
REMARK    4  A    between atoms: C_5  and  C_6
REMARK    5  A    between atoms: C_6  and  C_7
REMARK    6  A    between atoms: C_7  and  C_8
REMARK    7  A    between atoms: C_8  and  C_9
REMARK    8  A    between atoms: C_9  and  C_10
REMARK    9  A    between atoms: C_11  and  C_12
REMARK   10  A    between atoms: C_15  and  C_16
REMARK   11  A    between atoms: C_16  and  O_17
REMARK   12  A    between atoms: C_20  and  O_21
REMARK                            x       y       z     vdW  Elec       q    Type
REMARK                         _______ _______ _______ _____ _____    ______ ____
ROOT
ATOM      1  C   UNL     1       3.455   5.350  18.405  0.00  0.00    +0.000 C 
ATOM      2  C   UNL     1       2.840   5.946  19.709  0.00  0.00    +0.000 C 
ATOM      3  C   UNL     1       1.790   4.916  20.195  0.00  0.00    +0.000 C 
ATOM      4  C   UNL     1       1.679   3.868  19.098  0.00  0.00    +0.000 C 
ATOM      5  C   UNL     1       3.056   3.864  18.455  0.00  0.00    +0.000 C 
ATOM      6 CL   UNL     1       2.950   3.093  16.853  0.00  0.00    +0.000 Cl
ENDROOT
BRANCH   2   7
ATOM      7  C   UNL     1       2.237   7.322  19.479  0.00  0.00    +0.000 A 
ATOM      8  C   UNL     1       1.616   8.031  20.517  0.00  0.00    +0.000 A 
ATOM      9  C   UNL     1       1.048   9.287  20.291  0.00  0.00    +0.000 A 
ATOM     10  C   UNL     1       1.096   9.876  19.023  0.00  0.00    +0.000 A 
ATOM     11  C   UNL     1       1.710   9.169  17.981  0.00  0.00    +0.000 A 
ATOM     12  C   UNL     1       2.282   7.910  18.207  0.00  0.00    +0.000 A 
BRANCH  10  13
ATOM     13  C   UNL     1       0.422  11.204  18.794  0.00  0.00    +0.000 C 
BRANCH  13  14
ATOM     14  O   UNL     1       1.272  12.129  18.131  0.00  0.00    +0.000 OA
ATOM     15  H   UNL     1       1.774  11.621  17.472  0.00  0.00    +0.000 HD
ENDBRANCH  13  14
ENDBRANCH  10  13
ENDBRANCH   2   7
BRANCH   3  16
ATOM     16  O   UNL     1       2.209   4.295  21.412  0.00  0.00    +0.000 OA
ATOM     17  H   UNL     1       1.922   3.367  21.423  0.00  0.00    +0.000 HD
ENDBRANCH   3  16
BRANCH   1  18
ATOM     18  C   UNL     1       4.976   5.610  18.328  0.00  0.00    +0.000 C 
BRANCH  18  19
ATOM     19  C   UNL     1       5.349   6.630  17.254  0.00  0.00    +0.000 C 
BRANCH  19  20
ATOM     20  C   UNL     1       5.229   6.084  15.833  0.00  0.00    +0.000 C 
BRANCH  20  21
ATOM     21  C   UNL     1       6.476   5.260  15.493  0.00  0.00    +0.000 C 
BRANCH  21  22
ATOM     22  C   UNL     1       6.114   3.867  14.992  0.00  0.00    +0.000 C 
BRANCH  22  23
ATOM     23  C   UNL     1       5.426   3.931  13.628  0.00  0.00    +0.000 C 
BRANCH  23  25
ATOM     24  O   UNL     1       7.211   4.271  12.020  0.00  0.00    +0.000 OA
ATOM     25  C   UNL     1       6.365   3.545  12.511  0.00  0.00    +0.000 C 
BRANCH  25  26
ATOM     26  O   UNL     1       6.178   2.273  12.093  0.00  0.00    +0.000 OA
ATOM     27  H   UNL     1       5.426   2.171  11.480  0.00  0.00    +0.000 HD
ENDBRANCH  25  26
ENDBRANCH  23  25
ENDBRANCH  22  23
ENDBRANCH  21  22
ENDBRANCH  20  21
ENDBRANCH  19  20
ENDBRANCH  18  19
ENDBRANCH   1  18
TORSDOF 12
ENDMDL
MODEL 6
REMARK VINA RESULT:      -6.9      1.078      1.640
REMARK  Name = 
REMARK  12 active torsions:
REMARK  status: ('A' for Active; 'I' for Inactive)
REMARK    1  A    between atoms: C_2  and  O_3
REMARK    2  A    between atoms: C_2  and  C_4
REMARK    3  A    between atoms: C_4  and  C_5
REMARK    4  A    between atoms: C_5  and  C_6
REMARK    5  A    between atoms: C_6  and  C_7
REMARK    6  A    between atoms: C_7  and  C_8
REMARK    7  A    between atoms: C_8  and  C_9
REMARK    8  A    between atoms: C_9  and  C_10
REMARK    9  A    between atoms: C_11  and  C_12
REMARK   10  A    between atoms: C_15  and  C_16
REMARK   11  A    between atoms: C_16  and  O_17
REMARK   12  A    between atoms: C_20  and  O_21
REMARK                            x       y       z     vdW  Elec       q    Type
REMARK                         _______ _______ _______ _____ _____    ______ ____
ROOT
ATOM      1  C   UNL     1       2.513   3.795  18.843  0.00  0.00    +0.000 C 
ATOM      2  C   UNL     1       2.691   4.795  20.026  0.00  0.00    +0.000 C 
ATOM      3  C   UNL     1       1.792   4.265  21.172  0.00  0.00    +0.000 C 
ATOM      4  C   UNL     1       0.987   3.116  20.586  0.00  0.00    +0.000 C 
ATOM      5  C   UNL     1       1.890   2.552  19.502  0.00  0.00    +0.000 C 
ATOM      6 CL   UNL     1       0.917   1.560  18.388  0.00  0.00    +0.000 Cl
ENDROOT
BRANCH   2   7
ATOM      7  C   UNL     1       2.342   6.220  19.628  0.00  0.00    +0.000 A 
ATOM      8  C   UNL     1       2.595   6.700  18.335  0.00  0.00    +0.000 A 
ATOM      9  C   UNL     1       2.288   8.017  17.985  0.00  0.00    +0.000 A 
ATOM     10  C   UNL     1       1.706   8.888  18.913  0.00  0.00    +0.000 A 
ATOM     11  C   UNL     1       1.458   8.414  20.208  0.00  0.00    +0.000 A 
ATOM     12  C   UNL     1       1.763   7.093  20.559  0.00  0.00    +0.000 A 
BRANCH  10  13
ATOM     13  C   UNL     1       1.443  10.319  18.525  0.00  0.00    +0.000 C 
BRANCH  13  14
ATOM     14  O   UNL     1       2.268  10.742  17.448  0.00  0.00    +0.000 OA
ATOM     15  H   UNL     1       3.071  10.195  17.482  0.00  0.00    +0.000 HD
ENDBRANCH  13  14
ENDBRANCH  10  13
ENDBRANCH   2   7
BRANCH   3  16
ATOM     16  O   UNL     1       2.581   3.792  22.264  0.00  0.00    +0.000 OA
ATOM     17  H   UNL     1       2.526   4.419  23.005  0.00  0.00    +0.000 HD
ENDBRANCH   3  16
BRANCH   1  18
ATOM     18  C   UNL     1       3.852   3.540  18.115  0.00  0.00    +0.000 C 
BRANCH  18  19
ATOM     19  C   UNL     1       3.788   3.871  16.625  0.00  0.00    +0.000 C 
BRANCH  19  20
ATOM     20  C   UNL     1       5.152   4.183  16.015  0.00  0.00    +0.000 C 
BRANCH  20  21
ATOM     21  C   UNL     1       5.317   5.701  15.877  0.00  0.00    +0.000 C 
BRANCH  21  22
ATOM     22  C   UNL     1       6.526   6.211  16.654  0.00  0.00    +0.000 C 
BRANCH  22  23
ATOM     23  C   UNL     1       6.459   5.787  18.121  0.00  0.00    +0.000 C 
BRANCH  23  25
ATOM     24  O   UNL     1       8.334   5.311  19.584  0.00  0.00    +0.000 OA
ATOM     25  C   UNL     1       7.722   5.085  18.556  0.00  0.00    +0.000 C 
BRANCH  25  26
ATOM     26  O   UNL     1       8.124   4.145  17.671  0.00  0.00    +0.000 OA
ATOM     27  H   UNL     1       8.518   4.517  16.860  0.00  0.00    +0.000 HD
ENDBRANCH  25  26
ENDBRANCH  23  25
ENDBRANCH  22  23
ENDBRANCH  21  22
ENDBRANCH  20  21
ENDBRANCH  19  20
ENDBRANCH  18  19
ENDBRANCH   1  18
TORSDOF 12
ENDMDL
MODEL 7
REMARK VINA RESULT:      -6.9      2.636      5.215
REMARK  Name = 
REMARK  12 active torsions:
REMARK  status: ('A' for Active; 'I' for Inactive)
REMARK    1  A    between atoms: C_2  and  O_3
REMARK    2  A    between atoms: C_2  and  C_4
REMARK    3  A    between atoms: C_4  and  C_5
REMARK    4  A    between atoms: C_5  and  C_6
REMARK    5  A    between atoms: C_6  and  C_7
REMARK    6  A    between atoms: C_7  and  C_8
REMARK    7  A    between atoms: C_8  and  C_9
REMARK    8  A    between atoms: C_9  and  C_10
REMARK    9  A    between atoms: C_11  and  C_12
REMARK   10  A    between atoms: C_15  and  C_16
REMARK   11  A    between atoms: C_16  and  O_17
REMARK   12  A    between atoms: C_20  and  O_21
REMARK                            x       y       z     vdW  Elec       q    Type
REMARK                         _______ _______ _______ _____ _____    ______ ____
ROOT
ATOM      1  C   UNL     1       5.120   5.421  18.389  0.00  0.00    +0.000 C 
ATOM      2  C   UNL     1       4.226   6.267  17.430  0.00  0.00    +0.000 C 
ATOM      3  C   UNL     1       5.199   7.142  16.601  0.00  0.00    +0.000 C 
ATOM      4  C   UNL     1       6.578   6.939  17.207  0.00  0.00    +0.000 C 
ATOM      5  C   UNL     1       6.526   5.530  17.773  0.00  0.00    +0.000 C 
ATOM      6 CL   UNL     1       7.844   5.324  18.952  0.00  0.00    +0.000 Cl
ENDROOT
BRANCH   2   7
ATOM      7  C   UNL     1       3.201   7.096  18.187  0.00  0.00    +0.000 A 
ATOM      8  C   UNL     1       2.646   8.257  17.630  0.00  0.00    +0.000 A 
ATOM      9  C   UNL     1       1.720   9.023  18.341  0.00  0.00    +0.000 A 
ATOM     10  C   UNL     1       1.313   8.644  19.625  0.00  0.00    +0.000 A 
ATOM     11  C   UNL     1       1.871   7.489  20.188  0.00  0.00    +0.000 A 
ATOM     12  C   UNL     1       2.798   6.719  19.475  0.00  0.00    +0.000 A 
BRANCH  10  13
ATOM     13  C   UNL     1       0.360   9.523  20.393  0.00  0.00    +0.000 C 
BRANCH  13  14
ATOM     14  O   UNL     1      -0.266   8.828  21.463  0.00  0.00    +0.000 OA
ATOM     15  H   UNL     1       0.360   8.142  21.751  0.00  0.00    +0.000 HD
ENDBRANCH  13  14
ENDBRANCH  10  13
ENDBRANCH   2   7
BRANCH   3  16
ATOM     16  O   UNL     1       5.211   6.737  15.231  0.00  0.00    +0.000 OA
ATOM     17  H   UNL     1       4.524   7.218  14.741  0.00  0.00    +0.000 HD
ENDBRANCH   3  16
BRANCH   1  18
ATOM     18  C   UNL     1       4.585   3.978  18.532  0.00  0.00    +0.000 C 
BRANCH  18  19
ATOM     19  C   UNL     1       4.660   3.459  19.966  0.00  0.00    +0.000 C 
BRANCH  19  20
ATOM     20  C   UNL     1       3.680   2.324  20.252  0.00  0.00    +0.000 C 
BRANCH  20  21
ATOM     21  C   UNL     1       2.719   2.746  21.368  0.00  0.00    +0.000 C 
BRANCH  21  22
ATOM     22  C   UNL     1       1.263   2.677  20.919  0.00  0.00    +0.000 C 
BRANCH  22  23
ATOM     23  C   UNL     1       0.941   3.789  19.920  0.00  0.00    +0.000 C 
BRANCH  23  25
ATOM     24  O   UNL     1       1.206   3.950  17.514  0.00  0.00    +0.000 OA
ATOM     25  C   UNL     1       0.950   3.281  18.498  0.00  0.00    +0.000 C 
BRANCH  25  26
ATOM     26  O   UNL     1       0.640   1.967  18.415  0.00  0.00    +0.000 OA
ATOM     27  H   UNL     1       1.312   1.438  17.946  0.00  0.00    +0.000 HD
ENDBRANCH  25  26
ENDBRANCH  23  25
ENDBRANCH  22  23
ENDBRANCH  21  22
ENDBRANCH  20  21
ENDBRANCH  19  20
ENDBRANCH  18  19
ENDBRANCH   1  18
TORSDOF 12
ENDMDL
MODEL 8
REMARK VINA RESULT:      -6.9      2.344      3.137
REMARK  Name = 
REMARK  12 active torsions:
REMARK  status: ('A' for Active; 'I' for Inactive)
REMARK    1  A    between atoms: C_2  and  O_3
REMARK    2  A    between atoms: C_2  and  C_4
REMARK    3  A    between atoms: C_4  and  C_5
REMARK    4  A    between atoms: C_5  and  C_6
REMARK    5  A    between atoms: C_6  and  C_7
REMARK    6  A    between atoms: C_7  and  C_8
REMARK    7  A    between atoms: C_8  and  C_9
REMARK    8  A    between atoms: C_9  and  C_10
REMARK    9  A    between atoms: C_11  and  C_12
REMARK   10  A    between atoms: C_15  and  C_16
REMARK   11  A    between atoms: C_16  and  O_17
REMARK   12  A    between atoms: C_20  and  O_21
REMARK                            x       y       z     vdW  Elec       q    Type
REMARK                         _______ _______ _______ _____ _____    ______ ____
ROOT
ATOM      1  C   UNL     1       3.667   4.242  19.073  0.00  0.00    +0.000 C 
ATOM      2  C   UNL     1       2.978   4.962  20.273  0.00  0.00    +0.000 C 
ATOM      3  C   UNL     1       1.843   4.017  20.742  0.00  0.00    +0.000 C 
ATOM      4  C   UNL     1       1.770   2.896  19.718  0.00  0.00    +0.000 C 
ATOM      5  C   UNL     1       3.193   2.783  19.196  0.00  0.00    +0.000 C 
ATOM      6 CL   UNL     1       3.181   1.899  17.650  0.00  0.00    +0.000 Cl
ENDROOT
BRANCH   2   7
ATOM      7  C   UNL     1       2.465   6.341  19.895  0.00  0.00    +0.000 A 
ATOM      8  C   UNL     1       1.812   7.160  20.828  0.00  0.00    +0.000 A 
ATOM      9  C   UNL     1       1.327   8.418  20.465  0.00  0.00    +0.000 A 
ATOM     10  C   UNL     1       1.491   8.900  19.161  0.00  0.00    +0.000 A 
ATOM     11  C   UNL     1       2.136   8.082  18.224  0.00  0.00    +0.000 A 
ATOM     12  C   UNL     1       2.626   6.821  18.588  0.00  0.00    +0.000 A 
BRANCH  10  13
ATOM     13  C   UNL     1       0.904  10.234  18.783  0.00  0.00    +0.000 C 
BRANCH  13  14
ATOM     14  O   UNL     1       0.219  10.184  17.538  0.00  0.00    +0.000 OA
ATOM     15  H   UNL     1      -0.530   9.577  17.658  0.00  0.00    +0.000 HD
ENDBRANCH  13  14
ENDBRANCH  10  13
ENDBRANCH   2   7
BRANCH   3  16
ATOM     16  O   UNL     1       2.129   3.473  22.032  0.00  0.00    +0.000 OA
ATOM     17  H   UNL     1       1.359   2.980  22.358  0.00  0.00    +0.000 HD
ENDBRANCH   3  16
BRANCH   1  18
ATOM     18  C   UNL     1       5.200   4.430  19.107  0.00  0.00    +0.000 C 
BRANCH  18  19
ATOM     19  C   UNL     1       5.744   5.092  17.843  0.00  0.00    +0.000 C 
BRANCH  19  20
ATOM     20  C   UNL     1       4.866   4.865  16.615  0.00  0.00    +0.000 C 
BRANCH  20  21
ATOM     21  C   UNL     1       5.393   5.703  15.445  0.00  0.00    +0.000 C 
BRANCH  21  22
ATOM     22  C   UNL     1       6.547   5.012  14.729  0.00  0.00    +0.000 C 
BRANCH  22  23
ATOM     23  C   UNL     1       6.103   3.680  14.123  0.00  0.00    +0.000 C 
BRANCH  23  25
ATOM     24  O   UNL     1       7.206   4.227  12.032  0.00  0.00    +0.000 OA
ATOM     25  C   UNL     1       6.315   3.649  12.629  0.00  0.00    +0.000 C 
BRANCH  25  26
ATOM     26  O   UNL     1       5.395   2.891  11.990  0.00  0.00    +0.000 OA
ATOM     27  H   UNL     1       5.781   2.271  11.344  0.00  0.00    +0.000 HD
ENDBRANCH  25  26
ENDBRANCH  23  25
ENDBRANCH  22  23
ENDBRANCH  21  22
ENDBRANCH  20  21
ENDBRANCH  19  20
ENDBRANCH  18  19
ENDBRANCH   1  18
TORSDOF 12
ENDMDL
MODEL 9
REMARK VINA RESULT:      -6.8      1.958      2.557
REMARK  Name = 
REMARK  12 active torsions:
REMARK  status: ('A' for Active; 'I' for Inactive)
REMARK    1  A    between atoms: C_2  and  O_3
REMARK    2  A    between atoms: C_2  and  C_4
REMARK    3  A    between atoms: C_4  and  C_5
REMARK    4  A    between atoms: C_5  and  C_6
REMARK    5  A    between atoms: C_6  and  C_7
REMARK    6  A    between atoms: C_7  and  C_8
REMARK    7  A    between atoms: C_8  and  C_9
REMARK    8  A    between atoms: C_9  and  C_10
REMARK    9  A    between atoms: C_11  and  C_12
REMARK   10  A    between atoms: C_15  and  C_16
REMARK   11  A    between atoms: C_16  and  O_17
REMARK   12  A    between atoms: C_20  and  O_21
REMARK                            x       y       z     vdW  Elec       q    Type
REMARK                         _______ _______ _______ _____ _____    ______ ____
ROOT
ATOM      1  C   UNL     1       3.344   4.023  19.071  0.00  0.00    +0.000 C 
ATOM      2  C   UNL     1       2.403   4.727  20.097  0.00  0.00    +0.000 C 
ATOM      3  C   UNL     1       1.105   3.882  20.135  0.00  0.00    +0.000 C 
ATOM      4  C   UNL     1       1.234   2.850  19.026  0.00  0.00    +0.000 C 
ATOM      5  C   UNL     1       2.733   2.620  18.913  0.00  0.00    +0.000 C 
ATOM      6 CL   UNL     1       3.089   1.852  17.346  0.00  0.00    +0.000 Cl
ENDROOT
BRANCH   2   7
ATOM      7  C   UNL     1       2.139   6.178  19.728  0.00  0.00    +0.000 A 
ATOM      8  C   UNL     1       2.376   6.657  18.431  0.00  0.00    +0.000 A 
ATOM      9  C   UNL     1       2.148   7.997  18.108  0.00  0.00    +0.000 A 
ATOM     10  C   UNL     1       1.664   8.892  19.068  0.00  0.00    +0.000 A 
ATOM     11  C   UNL     1       1.434   8.420  20.366  0.00  0.00    +0.000 A 
ATOM     12  C   UNL     1       1.659   7.076  20.691  0.00  0.00    +0.000 A 
BRANCH  10  13
ATOM     13  C   UNL     1       1.487  10.344  18.706  0.00  0.00    +0.000 C 
BRANCH  13  14
ATOM     14  O   UNL     1       2.117  10.670  17.474  0.00  0.00    +0.000 OA
ATOM     15  H   UNL     1       2.866  10.058  17.376  0.00  0.00    +0.000 HD
ENDBRANCH  13  14
ENDBRANCH  10  13
ENDBRANCH   2   7
BRANCH   3  16
ATOM     16  O   UNL     1       0.963   3.221  21.394  0.00  0.00    +0.000 OA
ATOM     17  H   UNL     1       1.701   2.604  21.526  0.00  0.00    +0.000 HD
ENDBRANCH   3  16
BRANCH   1  18
ATOM     18  C   UNL     1       4.813   4.040  19.549  0.00  0.00    +0.000 C 
BRANCH  18  19
ATOM     19  C   UNL     1       5.491   5.391  19.332  0.00  0.00    +0.000 C 
BRANCH  19  20
ATOM     20  C   UNL     1       7.008   5.291  19.189  0.00  0.00    +0.000 C 
BRANCH  20  21
ATOM     21  C   UNL     1       7.519   6.449  18.324  0.00  0.00    +0.000 C 
BRANCH  21  22
ATOM     22  C   UNL     1       7.170   6.253  16.853  0.00  0.00    +0.000 C 
BRANCH  22  23
ATOM     23  C   UNL     1       7.196   4.772  16.471  0.00  0.00    +0.000 C 
BRANCH  23  25
ATOM     24  O   UNL     1       6.287   3.718  14.485  0.00  0.00    +0.000 OA
ATOM     25  C   UNL     1       6.989   4.575  14.989  0.00  0.00    +0.000 C 
BRANCH  25  26
ATOM     26  O   UNL     1       7.677   5.472  14.246  0.00  0.00    +0.000 OA
ATOM     27  H   UNL     1       8.070   6.193  14.772  0.00  0.00    +0.000 HD
ENDBRANCH  25  26
ENDBRANCH  23  25
ENDBRANCH  22  23
ENDBRANCH  21  22
ENDBRANCH  20  21
ENDBRANCH  19  20
ENDBRANCH  18  19
ENDBRANCH   1  18
TORSDOF 12
ENDMDL
