MODEL 1
REMARK VINA RESULT:      -7.7      0.000      0.000
REMARK  Name = 
REMARK  2 active torsions:
REMARK  status: ('A' for Active; 'I' for Inactive)
REMARK    1  A    between atoms: C_1  and  O_2
REMARK    2  A    between atoms: O_2  and  C_3
REMARK                            x       y       z     vdW  Elec       q    Type
REMARK                         _______ _______ _______ _____ _____    ______ ____
ROOT
ATOM      1  C   UNL     1       2.488   3.778  19.368  0.00  0.00    +0.000 A 
ATOM      2  C   UNL     1       3.081   4.818  20.074  0.00  0.00    +0.000 A 
ATOM      3  C   UNL     1       4.166   5.516  19.516  0.00  0.00    +0.000 A 
ATOM      4  C   UNL     1       4.686   5.199  18.267  0.00  0.00    +0.000 A 
ATOM      5  N   UNL     1       5.755   5.880  17.816  0.00  0.00    +0.000 NA
ATOM      6  C   UNL     1       6.207   5.456  16.617  0.00  0.00    +0.000 A 
ATOM      7  N   UNL     1       7.294   5.921  15.942  0.00  0.00    +0.000 N 
ATOM      8  N   UNL     1       7.527   5.287  14.771  0.00  0.00    +0.000 NA
ATOM      9  C   UNL     1       6.535   4.401  14.698  0.00  0.00    +0.000 A 
ATOM     10  N   UNL     1       6.389   3.530  13.687  0.00  0.00    +0.000 N 
ATOM     11  C   UNL     1       5.679   4.455  15.824  0.00  0.00    +0.000 A 
ATOM     12  C   UNL     1       4.543   3.788  16.291  0.00  0.00    +0.000 A 
ATOM     13  C   UNL     1       4.057   4.150  17.553  0.00  0.00    +0.000 A 
ATOM     14  C   UNL     1       2.974   3.456  18.105  0.00  0.00    +0.000 A 
ATOM     15  H   UNL     1       7.926   6.654  16.238  0.00  0.00    +0.000 HD
ATOM     16  H   UNL     1       7.189   3.403  13.077  0.00  0.00    +0.000 HD
ATOM     17  H   UNL     1       5.821   2.700  13.800  0.00  0.00    +0.000 HD
ENDROOT
BRANCH   1  19
ATOM     18  C   UNL     1       1.327   2.835  21.210  0.00  0.00    +0.000 C 
ATOM     19  O   UNL     1       1.476   2.973  19.804  0.00  0.00    +0.000 OA
ENDBRANCH   1  19
TORSDOF 1
ENDMDL
MODEL 2
REMARK VINA RESULT:      -7.5      1.560      2.683
REMARK  Name = 
REMARK  2 active torsions:
REMARK  status: ('A' for Active; 'I' for Inactive)
REMARK    1  A    between atoms: C_1  and  O_2
REMARK    2  A    between atoms: O_2  and  C_3
REMARK                            x       y       z     vdW  Elec       q    Type
REMARK                         _______ _______ _______ _____ _____    ______ ____
ROOT
ATOM      1  C   UNL     1       2.452   2.792  19.406  0.00  0.00    +0.000 A 
ATOM      2  C   UNL     1       2.050   2.744  18.076  0.00  0.00    +0.000 A 
ATOM      3  C   UNL     1       2.827   3.370  17.087  0.00  0.00    +0.000 A 
ATOM      4  C   UNL     1       3.998   4.055  17.387  0.00  0.00    +0.000 A 
ATOM      5  N   UNL     1       4.666   4.670  16.394  0.00  0.00    +0.000 NA
ATOM      6  C   UNL     1       5.758   5.345  16.806  0.00  0.00    +0.000 A 
ATOM      7  N   UNL     1       6.594   6.096  16.036  0.00  0.00    +0.000 N 
ATOM      8  N   UNL     1       7.596   6.685  16.725  0.00  0.00    +0.000 NA
ATOM      9  C   UNL     1       7.394   6.272  17.975  0.00  0.00    +0.000 A 
ATOM     10  N   UNL     1       8.160   6.642  19.014  0.00  0.00    +0.000 N 
ATOM     11  C   UNL     1       6.258   5.436  18.091  0.00  0.00    +0.000 A 
ATOM     12  C   UNL     1       5.574   4.755  19.102  0.00  0.00    +0.000 A 
ATOM     13  C   UNL     1       4.403   4.077  18.744  0.00  0.00    +0.000 A 
ATOM     14  C   UNL     1       3.633   3.451  19.731  0.00  0.00    +0.000 A 
ATOM     15  H   UNL     1       6.520   6.260  15.040  0.00  0.00    +0.000 HD
ATOM     16  H   UNL     1       8.774   7.434  18.867  0.00  0.00    +0.000 HD
ATOM     17  H   UNL     1       7.818   6.556  19.963  0.00  0.00    +0.000 HD
ENDROOT
BRANCH   1  19
ATOM     18  C   UNL     1       1.890   3.003  21.701  0.00  0.00    +0.000 C 
ATOM     19  O   UNL     1       1.774   2.290  20.479  0.00  0.00    +0.000 OA
ENDBRANCH   1  19
TORSDOF 1
ENDMDL
MODEL 3
REMARK VINA RESULT:      -7.4      1.070      1.073
REMARK  Name = 
REMARK  2 active torsions:
REMARK  status: ('A' for Active; 'I' for Inactive)
REMARK    1  A    between atoms: C_1  and  O_2
REMARK    2  A    between atoms: O_2  and  C_3
REMARK                            x       y       z     vdW  Elec       q    Type
REMARK                         _______ _______ _______ _____ _____    ______ ____
ROOT
ATOM      1  C   UNL     1       1.737   4.083  19.714  0.00  0.00    +0.000 A 
ATOM      2  C   UNL     1       1.890   5.419  20.068  0.00  0.00    +0.000 A 
ATOM      3  C   UNL     1       2.772   6.239  19.344  0.00  0.00    +0.000 A 
ATOM      4  C   UNL     1       3.519   5.761  18.275  0.00  0.00    +0.000 A 
ATOM      5  N   UNL     1       4.379   6.593  17.657  0.00  0.00    +0.000 NA
ATOM      6  C   UNL     1       5.087   6.011  16.668  0.00  0.00    +0.000 A 
ATOM      7  N   UNL     1       6.057   6.590  15.907  0.00  0.00    +0.000 N 
ATOM      8  N   UNL     1       6.619   5.756  15.005  0.00  0.00    +0.000 NA
ATOM      9  C   UNL     1       5.963   4.612  15.192  0.00  0.00    +0.000 A 
ATOM     10  N   UNL     1       6.219   3.486  14.507  0.00  0.00    +0.000 N 
ATOM     11  C   UNL     1       4.995   4.707  16.221  0.00  0.00    +0.000 A 
ATOM     12  C   UNL     1       4.066   3.870  16.846  0.00  0.00    +0.000 A 
ATOM     13  C   UNL     1       3.336   4.404  17.915  0.00  0.00    +0.000 A 
ATOM     14  C   UNL     1       2.455   3.585  18.631  0.00  0.00    +0.000 A 
ATOM     15  H   UNL     1       6.392   7.543  15.971  0.00  0.00    +0.000 HD
ATOM     16  H   UNL     1       7.090   3.457  13.989  0.00  0.00    +0.000 HD
ATOM     17  H   UNL     1       5.922   2.587  14.863  0.00  0.00    +0.000 HD
ENDROOT
BRANCH   1  19
ATOM     18  C   UNL     1       1.454   2.682  21.607  0.00  0.00    +0.000 C 
ATOM     19  O   UNL     1       0.973   3.154  20.357  0.00  0.00    +0.000 OA
ENDBRANCH   1  19
TORSDOF 1
ENDMDL
MODEL 4
REMARK VINA RESULT:      -7.1      1.484      2.056
REMARK  Name = 
REMARK  2 active torsions:
REMARK  status: ('A' for Active; 'I' for Inactive)
REMARK    1  A    between atoms: C_1  and  O_2
REMARK    2  A    between atoms: O_2  and  C_3
REMARK                            x       y       z     vdW  Elec       q    Type
REMARK                         _______ _______ _______ _____ _____    ______ ____
ROOT
ATOM      1  C   UNL     1       4.500   4.155  18.856  0.00  0.00    +0.000 A 
ATOM      2  C   UNL     1       5.361   5.201  19.170  0.00  0.00    +0.000 A 
ATOM      3  C   UNL     1       6.205   5.734  18.180  0.00  0.00    +0.000 A 
ATOM      4  C   UNL     1       6.222   5.246  16.880  0.00  0.00    +0.000 A 
ATOM      5  N   UNL     1       7.090   5.775  15.998  0.00  0.00    +0.000 NA
ATOM      6  C   UNL     1       7.057   5.192  14.781  0.00  0.00    +0.000 A 
ATOM      7  N   UNL     1       7.849   5.484  13.713  0.00  0.00    +0.000 N 
ATOM      8  N   UNL     1       7.610   4.717  12.626  0.00  0.00    +0.000 NA
ATOM      9  C   UNL     1       6.615   3.925  13.021  0.00  0.00    +0.000 A 
ATOM     10  N   UNL     1       6.069   2.974  12.246  0.00  0.00    +0.000 N 
ATOM     11  C   UNL     1       6.228   4.171  14.360  0.00  0.00    +0.000 A 
ATOM     12  C   UNL     1       5.304   3.663  15.277  0.00  0.00    +0.000 A 
ATOM     13  C   UNL     1       5.325   4.194  16.573  0.00  0.00    +0.000 A 
ATOM     14  C   UNL     1       4.481   3.663  17.555  0.00  0.00    +0.000 A 
ATOM     15  H   UNL     1       8.582   6.181  13.671  0.00  0.00    +0.000 HD
ATOM     16  H   UNL     1       6.587   2.712  11.415  0.00  0.00    +0.000 HD
ATOM     17  H   UNL     1       5.539   2.216  12.657  0.00  0.00    +0.000 HD
ENDROOT
BRANCH   1  19
ATOM     18  C   UNL     1       3.019   2.339  19.221  0.00  0.00    +0.000 C 
ATOM     19  O   UNL     1       3.675   3.495  19.720  0.00  0.00    +0.000 OA
ENDBRANCH   1  19
TORSDOF 1
ENDMDL
MODEL 5
REMARK VINA RESULT:      -7.1      3.476      5.748
REMARK  Name = 
REMARK  2 active torsions:
REMARK  status: ('A' for Active; 'I' for Inactive)
REMARK    1  A    between atoms: C_1  and  O_2
REMARK    2  A    between atoms: O_2  and  C_3
REMARK                            x       y       z     vdW  Elec       q    Type
REMARK                         _______ _______ _______ _____ _____    ______ ____
ROOT
ATOM      1  C   UNL     1       6.064   6.421  16.769  0.00  0.00    +0.000 A 
ATOM      2  C   UNL     1       6.442   5.303  16.033  0.00  0.00    +0.000 A 
ATOM      3  C   UNL     1       5.694   4.117  16.127  0.00  0.00    +0.000 A 
ATOM      4  C   UNL     1       4.577   4.009  16.945  0.00  0.00    +0.000 A 
ATOM      5  N   UNL     1       3.936   2.828  17.020  0.00  0.00    +0.000 NA
ATOM      6  C   UNL     1       2.898   2.822  17.881  0.00  0.00    +0.000 A 
ATOM      7  N   UNL     1       2.103   1.762  18.196  0.00  0.00    +0.000 N 
ATOM      8  N   UNL     1       1.153   2.042  19.116  0.00  0.00    +0.000 NA
ATOM      9  C   UNL     1       1.346   3.334  19.374  0.00  0.00    +0.000 A 
ATOM     10  N   UNL     1       0.621   4.031  20.264  0.00  0.00    +0.000 N 
ATOM     11  C   UNL     1       2.425   3.877  18.636  0.00  0.00    +0.000 A 
ATOM     12  C   UNL     1       3.076   5.108  18.513  0.00  0.00    +0.000 A 
ATOM     13  C   UNL     1       4.194   5.163  17.671  0.00  0.00    +0.000 A 
ATOM     14  C   UNL     1       4.935   6.347  17.577  0.00  0.00    +0.000 A 
ATOM     15  H   UNL     1       2.172   0.820  17.833  0.00  0.00    +0.000 HD
ATOM     16  H   UNL     1       0.059   3.493  20.914  0.00  0.00    +0.000 HD
ATOM     17  H   UNL     1       0.971   4.902  20.644  0.00  0.00    +0.000 HD
ENDROOT
BRANCH   1  19
ATOM     18  C   UNL     1       7.786   7.711  17.767  0.00  0.00    +0.000 C 
ATOM     19  O   UNL     1       6.724   7.614  16.830  0.00  0.00    +0.000 OA
ENDBRANCH   1  19
TORSDOF 1
ENDMDL
MODEL 6
REMARK VINA RESULT:      -7.0      3.436      5.580
REMARK  Name = 
REMARK  2 active torsions:
REMARK  status: ('A' for Active; 'I' for Inactive)
REMARK    1  A    between atoms: C_1  and  O_2
REMARK    2  A    between atoms: O_2  and  C_3
REMARK                            x       y       z     vdW  Elec       q    Type
REMARK                         _______ _______ _______ _____ _____    ______ ____
ROOT
ATOM      1  C   UNL     1       5.657   5.543  15.598  0.00  0.00    +0.000 A 
ATOM      2  C   UNL     1       5.535   6.722  16.324  0.00  0.00    +0.000 A 
ATOM      3  C   UNL     1       4.658   6.781  17.421  0.00  0.00    +0.000 A 
ATOM      4  C   UNL     1       3.888   5.694  17.814  0.00  0.00    +0.000 A 
ATOM      5  N   UNL     1       3.036   5.838  18.846  0.00  0.00    +0.000 NA
ATOM      6  C   UNL     1       2.303   4.736  19.108  0.00  0.00    +0.000 A 
ATOM      7  N   UNL     1       1.334   4.605  20.055  0.00  0.00    +0.000 N 
ATOM      8  N   UNL     1       0.744   3.390  20.073  0.00  0.00    +0.000 NA
ATOM      9  C   UNL     1       1.381   2.724  19.112  0.00  0.00    +0.000 A 
ATOM     10  N   UNL     1       1.094   1.458  18.767  0.00  0.00    +0.000 N 
ATOM     11  C   UNL     1       2.364   3.513  18.468  0.00  0.00    +0.000 A 
ATOM     12  C   UNL     1       3.285   3.369  17.427  0.00  0.00    +0.000 A 
ATOM     13  C   UNL     1       4.040   4.495  17.076  0.00  0.00    +0.000 A 
ATOM     14  C   UNL     1       4.915   4.432  15.985  0.00  0.00    +0.000 A 
ATOM     15  H   UNL     1       1.018   5.314  20.704  0.00  0.00    +0.000 HD
ATOM     16  H   UNL     1       0.215   1.083  19.106  0.00  0.00    +0.000 HD
ATOM     17  H   UNL     1       1.379   1.091  17.868  0.00  0.00    +0.000 HD
ENDROOT
BRANCH   1  19
ATOM     18  C   UNL     1       6.356   4.068  13.877  0.00  0.00    +0.000 C 
ATOM     19  O   UNL     1       6.413   5.353  14.478  0.00  0.00    +0.000 OA
ENDBRANCH   1  19
TORSDOF 1
ENDMDL
MODEL 7
REMARK VINA RESULT:      -7.0      3.376      5.595
REMARK  Name = 
REMARK  2 active torsions:
REMARK  status: ('A' for Active; 'I' for Inactive)
REMARK    1  A    between atoms: C_1  and  O_2
REMARK    2  A    between atoms: O_2  and  C_3
REMARK                            x       y       z     vdW  Elec       q    Type
REMARK                         _______ _______ _______ _____ _____    ______ ____
ROOT
ATOM      1  C   UNL     1       6.367   4.929  15.792  0.00  0.00    +0.000 A 
ATOM      2  C   UNL     1       7.146   5.167  16.919  0.00  0.00    +0.000 A 
ATOM      3  C   UNL     1       6.686   4.767  18.185  0.00  0.00    +0.000 A 
ATOM      4  C   UNL     1       5.461   4.137  18.363  0.00  0.00    +0.000 A 
ATOM      5  N   UNL     1       5.065   3.824  19.611  0.00  0.00    +0.000 NA
ATOM      6  C   UNL     1       3.839   3.263  19.672  0.00  0.00    +0.000 A 
ATOM      7  N   UNL     1       3.166   2.890  20.795  0.00  0.00    +0.000 N 
ATOM      8  N   UNL     1       1.938   2.379  20.554  0.00  0.00    +0.000 NA
ATOM      9  C   UNL     1       1.844   2.415  19.226  0.00  0.00    +0.000 A 
ATOM     10  N   UNL     1       0.758   2.013  18.546  0.00  0.00    +0.000 N 
ATOM     11  C   UNL     1       2.999   2.961  18.618  0.00  0.00    +0.000 A 
ATOM     12  C   UNL     1       3.445   3.255  17.326  0.00  0.00    +0.000 A 
ATOM     13  C   UNL     1       4.690   3.884  17.203  0.00  0.00    +0.000 A 
ATOM     14  C   UNL     1       5.146   4.279  15.940  0.00  0.00    +0.000 A 
ATOM     15  H   UNL     1       3.483   2.977  21.751  0.00  0.00    +0.000 HD
ATOM     16  H   UNL     1      -0.094   1.888  19.082  0.00  0.00    +0.000 HD
ATOM     17  H   UNL     1       0.604   2.318  17.594  0.00  0.00    +0.000 HD
ENDROOT
BRANCH   1  19
ATOM     18  C   UNL     1       6.609   4.305  13.516  0.00  0.00    +0.000 C 
ATOM     19  O   UNL     1       6.649   5.315  14.514  0.00  0.00    +0.000 OA
ENDBRANCH   1  19
TORSDOF 1
ENDMDL
MODEL 8
REMARK VINA RESULT:      -7.0      3.262      5.514
REMARK  Name = 
REMARK  2 active torsions:
REMARK  status: ('A' for Active; 'I' for Inactive)
REMARK    1  A    between atoms: C_1  and  O_2
REMARK    2  A    between atoms: O_2  and  C_3
REMARK                            x       y       z     vdW  Elec       q    Type
REMARK                         _______ _______ _______ _____ _____    ______ ____
ROOT
ATOM      1  C   UNL     1       6.479   4.731  16.008  0.00  0.00    +0.000 A 
ATOM      2  C   UNL     1       6.899   5.661  16.953  0.00  0.00    +0.000 A 
ATOM      3  C   UNL     1       6.145   5.861  18.122  0.00  0.00    +0.000 A 
ATOM      4  C   UNL     1       4.972   5.161  18.375  0.00  0.00    +0.000 A 
ATOM      5  N   UNL     1       4.277   5.439  19.495  0.00  0.00    +0.000 NA
ATOM      6  C   UNL     1       3.130   4.738  19.614  0.00  0.00    +0.000 A 
ATOM      7  N   UNL     1       2.208   4.844  20.611  0.00  0.00    +0.000 N 
ATOM      8  N   UNL     1       1.138   4.034  20.456  0.00  0.00    +0.000 NA
ATOM      9  C   UNL     1       1.407   3.378  19.328  0.00  0.00    +0.000 A 
ATOM     10  N   UNL     1       0.584   2.470  18.781  0.00  0.00    +0.000 N 
ATOM     11  C   UNL     1       2.637   3.778  18.753  0.00  0.00    +0.000 A 
ATOM     12  C   UNL     1       3.393   3.473  17.618  0.00  0.00    +0.000 A 
ATOM     13  C   UNL     1       4.570   4.204  17.413  0.00  0.00    +0.000 A 
ATOM     14  C   UNL     1       5.320   4.000  16.249  0.00  0.00    +0.000 A 
ATOM     15  H   UNL     1       2.244   5.464  21.410  0.00  0.00    +0.000 HD
ATOM     16  H   UNL     1      -0.368   2.452  19.127  0.00  0.00    +0.000 HD
ATOM     17  H   UNL     1       0.672   2.216  17.805  0.00  0.00    +0.000 HD
ENDROOT
BRANCH   1  19
ATOM     18  C   UNL     1       6.230   3.955  13.781  0.00  0.00    +0.000 C 
ATOM     19  O   UNL     1       7.067   4.475  14.804  0.00  0.00    +0.000 OA
ENDBRANCH   1  19
TORSDOF 1
ENDMDL
MODEL 9
REMARK VINA RESULT:      -7.0      3.644      5.505
REMARK  Name = 
REMARK  2 active torsions:
REMARK  status: ('A' for Active; 'I' for Inactive)
REMARK    1  A    between atoms: C_1  and  O_2
REMARK    2  A    between atoms: O_2  and  C_3
REMARK                            x       y       z     vdW  Elec       q    Type
REMARK                         _______ _______ _______ _____ _____    ______ ____
ROOT
ATOM      1  C   UNL     1       7.368   7.308  17.711  0.00  0.00    +0.000 A 
ATOM      2  C   UNL     1       8.042   6.500  18.620  0.00  0.00    +0.000 A 
ATOM      3  C   UNL     1       7.407   5.367  19.156  0.00  0.00    +0.000 A 
ATOM      4  C   UNL     1       6.106   5.018  18.816  0.00  0.00    +0.000 A 
ATOM      5  N   UNL     1       5.545   3.945  19.405  0.00  0.00    +0.000 NA
ATOM      6  C   UNL     1       4.265   3.728  19.040  0.00  0.00    +0.000 A 
ATOM      7  N   UNL     1       3.436   2.753  19.506  0.00  0.00    +0.000 N 
ATOM      8  N   UNL     1       2.192   2.792  18.981  0.00  0.00    +0.000 NA
ATOM      9  C   UNL     1       2.246   3.821  18.137  0.00  0.00    +0.000 A 
ATOM     10  N   UNL     1       1.201   4.237  17.403  0.00  0.00    +0.000 N 
ATOM     11  C   UNL     1       3.514   4.449  18.132  0.00  0.00    +0.000 A 
ATOM     12  C   UNL     1       4.127   5.534  17.499  0.00  0.00    +0.000 A 
ATOM     13  C   UNL     1       5.441   5.840  17.875  0.00  0.00    +0.000 A 
ATOM     14  C   UNL     1       6.073   6.967  17.336  0.00  0.00    +0.000 A 
ATOM     15  H   UNL     1       3.656   2.046  20.196  0.00  0.00    +0.000 HD
ATOM     16  H   UNL     1       0.289   3.889  17.673  0.00  0.00    +0.000 HD
ATOM     17  H   UNL     1       1.187   5.170  17.010  0.00  0.00    +0.000 HD
ENDROOT
BRANCH   1  19
ATOM     18  C   UNL     1       8.354   9.439  18.051  0.00  0.00    +0.000 C 
ATOM     19  O   UNL     1       7.827   8.468  17.159  0.00  0.00    +0.000 OA
ENDBRANCH   1  19
TORSDOF 1
ENDMDL
