MODEL 1
REMARK VINA RESULT:      -8.5      0.000      0.000
REMARK  Name = 
REMARK  6 active torsions:
REMARK  status: ('A' for Active; 'I' for Inactive)
REMARK    1  A    between atoms: C_2  and  C_3
REMARK    2  A    between atoms: C_3  and  C_4
REMARK    3  A    between atoms: C_4  and  C_5
REMARK    4  A    between atoms: N_12  and  C_13
REMARK    5  A    between atoms: N_17  and  C_18
REMARK    6  A    between atoms: C_18  and  C_19
REMARK                            x       y       z     vdW  Elec       q    Type
REMARK                         _______ _______ _______ _____ _____    ______ ____
ROOT
ATOM      1  C   UNL     1       4.606   3.318  19.212  0.00  0.00    +0.000 C 
ATOM      2  C   UNL     1       3.621   2.232  18.767  0.00  0.00    +0.000 C 
ATOM      3  C   UNL     1       2.400   2.843  18.085  0.00  0.00    +0.000 C 
ATOM      4  C   UNL     1       1.762   3.950  18.930  0.00  0.00    +0.000 C 
ATOM      5  N   UNL     1       2.733   4.993  19.324  0.00  0.00    +0.000 NA
ATOM      6  C   UNL     1       3.866   4.372  20.060  0.00  0.00    +0.000 C 
ENDROOT
BRANCH   1   9
ATOM      7  O   UNL     1       7.103   4.719  19.159  0.00  0.00    +0.000 OA
ATOM      8  C   UNL     1       6.464   4.584  18.119  0.00  0.00    +0.000 C 
ATOM      9  N   UNL     1       5.235   3.965  18.065  0.00  0.00    +0.000 N 
ATOM     10  H   UNL     1       4.804   3.776  17.162  0.00  0.00    +0.000 HD
BRANCH   8  11
ATOM     11  C   UNL     1       6.911   5.137  16.781  0.00  0.00    +0.000 C 
BRANCH  11  12
ATOM     12  C   UNL     1       5.782   5.068  15.757  0.00  0.00    +0.000 C 
BRANCH  12  13
ATOM     13  C   UNL     1       6.280   4.721  14.374  0.00  0.00    +0.000 A 
ATOM     14  C   UNL     1       7.367   5.408  13.815  0.00  0.00    +0.000 A 
ATOM     15  C   UNL     1       7.842   5.073  12.545  0.00  0.00    +0.000 A 
ATOM     16  C   UNL     1       7.232   4.053  11.816  0.00  0.00    +0.000 A 
ATOM     17  C   UNL     1       6.144   3.374  12.360  0.00  0.00    +0.000 A 
ATOM     18 CL   UNL     1       5.389   2.114  11.463  0.00  0.00    +0.000 Cl
ATOM     19  C   UNL     1       5.663   3.706  13.630  0.00  0.00    +0.000 A 
ENDBRANCH  12  13
ENDBRANCH  11  12
ENDBRANCH   8  11
ENDBRANCH   1   9
BRANCH   5  20
ATOM     20  C   UNL     1       2.106   6.007  20.209  0.00  0.00    +0.000 C 
BRANCH  20  21
ATOM     21  C   UNL     1       1.934   7.372  19.585  0.00  0.00    +0.000 A 
ATOM     22  C   UNL     1       2.377   7.643  18.283  0.00  0.00    +0.000 A 
ATOM     23  C   UNL     1       2.172   8.905  17.714  0.00  0.00    +0.000 A 
ATOM     24  C   UNL     1       1.522   9.908  18.438  0.00  0.00    +0.000 A 
ATOM     25  C   UNL     1       1.106   9.657  19.742  0.00  0.00    +0.000 A 
ATOM     26  C   UNL     1       1.322   8.403  20.307  0.00  0.00    +0.000 A 
ATOM     27  F   UNL     1       0.923   8.192  21.571  0.00  0.00    +0.000 F 
ENDBRANCH  20  21
ENDBRANCH   5  20
TORSDOF 6
ENDMDL
MODEL 2
REMARK VINA RESULT:      -8.3      5.386      7.115
REMARK  Name = 
REMARK  6 active torsions:
REMARK  status: ('A' for Active; 'I' for Inactive)
REMARK    1  A    between atoms: C_2  and  C_3
REMARK    2  A    between atoms: C_3  and  C_4
REMARK    3  A    between atoms: C_4  and  C_5
REMARK    4  A    between atoms: N_12  and  C_13
REMARK    5  A    between atoms: N_17  and  C_18
REMARK    6  A    between atoms: C_18  and  C_19
REMARK                            x       y       z     vdW  Elec       q    Type
REMARK                         _______ _______ _______ _____ _____    ______ ____
ROOT
ATOM      1  C   UNL     1       7.344   5.786  17.025  0.00  0.00    +0.000 C 
ATOM      2  C   UNL     1       6.705   5.357  15.700  0.00  0.00    +0.000 C 
ATOM      3  C   UNL     1       5.279   5.889  15.580  0.00  0.00    +0.000 C 
ATOM      4  C   UNL     1       4.434   5.552  16.813  0.00  0.00    +0.000 C 
ATOM      5  N   UNL     1       5.067   5.997  18.073  0.00  0.00    +0.000 NA
ATOM      6  C   UNL     1       6.419   5.393  18.195  0.00  0.00    +0.000 C 
ENDROOT
BRANCH   1   9
ATOM      7  O   UNL     1       8.578   7.296  19.123  0.00  0.00    +0.000 OA
ATOM      8  C   UNL     1       8.230   7.866  18.093  0.00  0.00    +0.000 C 
ATOM      9  N   UNL     1       7.588   7.224  17.056  0.00  0.00    +0.000 N 
ATOM     10  H   UNL     1       7.429   7.716  16.179  0.00  0.00    +0.000 HD
BRANCH   8  11
ATOM     11  C   UNL     1       8.399   9.353  17.857  0.00  0.00    +0.000 C 
BRANCH  11  12
ATOM     12  C   UNL     1       8.755  10.075  19.154  0.00  0.00    +0.000 C 
BRANCH  12  13
ATOM     13  C   UNL     1       9.934  11.003  18.990  0.00  0.00    +0.000 A 
ATOM     14  C   UNL     1      10.861  11.169  20.029  0.00  0.00    +0.000 A 
ATOM     15  C   UNL     1      11.964  12.010  19.870  0.00  0.00    +0.000 A 
ATOM     16  C   UNL     1      12.151  12.701  18.672  0.00  0.00    +0.000 A 
ATOM     17  C   UNL     1      11.228  12.550  17.640  0.00  0.00    +0.000 A 
ATOM     18 CL   UNL     1      11.456  13.400  16.161  0.00  0.00    +0.000 Cl
ATOM     19  C   UNL     1      10.122  11.711  17.794  0.00  0.00    +0.000 A 
ENDBRANCH  12  13
ENDBRANCH  11  12
ENDBRANCH   8  11
ENDBRANCH   1   9
BRANCH   5  20
ATOM     20  C   UNL     1       4.266   5.586  19.253  0.00  0.00    +0.000 C 
BRANCH  20  21
ATOM     21  C   UNL     1       3.309   4.444  19.003  0.00  0.00    +0.000 A 
ATOM     22  C   UNL     1       2.012   4.668  18.521  0.00  0.00    +0.000 A 
ATOM     23  C   UNL     1       1.157   3.591  18.261  0.00  0.00    +0.000 A 
ATOM     24  C   UNL     1       1.589   2.280  18.479  0.00  0.00    +0.000 A 
ATOM     25  C   UNL     1       2.864   2.050  18.985  0.00  0.00    +0.000 A 
ATOM     26  C   UNL     1       3.707   3.126  19.252  0.00  0.00    +0.000 A 
ATOM     27  F   UNL     1       4.926   2.876  19.753  0.00  0.00    +0.000 F 
ENDBRANCH  20  21
ENDBRANCH   5  20
TORSDOF 6
ENDMDL
MODEL 3
REMARK VINA RESULT:      -8.1      3.583      7.531
REMARK  Name = 
REMARK  6 active torsions:
REMARK  status: ('A' for Active; 'I' for Inactive)
REMARK    1  A    between atoms: C_2  and  C_3
REMARK    2  A    between atoms: C_3  and  C_4
REMARK    3  A    between atoms: C_4  and  C_5
REMARK    4  A    between atoms: N_12  and  C_13
REMARK    5  A    between atoms: N_17  and  C_18
REMARK    6  A    between atoms: C_18  and  C_19
REMARK                            x       y       z     vdW  Elec       q    Type
REMARK                         _______ _______ _______ _____ _____    ______ ____
ROOT
ATOM      1  C   UNL     1       5.166   6.442  17.742  0.00  0.00    +0.000 C 
ATOM      2  C   UNL     1       6.114   6.320  16.545  0.00  0.00    +0.000 C 
ATOM      3  C   UNL     1       5.527   5.408  15.471  0.00  0.00    +0.000 C 
ATOM      4  C   UNL     1       5.075   4.061  16.043  0.00  0.00    +0.000 C 
ATOM      5  N   UNL     1       4.144   4.213  17.182  0.00  0.00    +0.000 NA
ATOM      6  C   UNL     1       4.782   5.035  18.243  0.00  0.00    +0.000 C 
ENDROOT
BRANCH   1   9
ATOM      7  O   UNL     1       2.860   6.891  19.381  0.00  0.00    +0.000 OA
ATOM      8  C   UNL     1       2.910   7.387  18.259  0.00  0.00    +0.000 C 
ATOM      9  N   UNL     1       3.959   7.183  17.390  0.00  0.00    +0.000 N 
ATOM     10  H   UNL     1       4.006   7.712  16.521  0.00  0.00    +0.000 HD
BRANCH   8  11
ATOM     11  C   UNL     1       1.799   8.228  17.662  0.00  0.00    +0.000 C 
BRANCH  11  12
ATOM     12  C   UNL     1       1.951   9.694  18.059  0.00  0.00    +0.000 C 
BRANCH  12  13
ATOM     13  C   UNL     1       0.643  10.309  18.495  0.00  0.00    +0.000 A 
ATOM     14  C   UNL     1       0.622  11.336  19.451  0.00  0.00    +0.000 A 
ATOM     15  C   UNL     1      -0.586  11.920  19.840  0.00  0.00    +0.000 A 
ATOM     16  C   UNL     1      -1.787  11.481  19.283  0.00  0.00    +0.000 A 
ATOM     17  C   UNL     1      -1.774  10.453  18.342  0.00  0.00    +0.000 A 
ATOM     18 CL   UNL     1      -3.255   9.909  17.653  0.00  0.00    +0.000 Cl
ATOM     19  C   UNL     1      -0.569   9.864  17.951  0.00  0.00    +0.000 A 
ENDBRANCH  12  13
ENDBRANCH  11  12
ENDBRANCH   8  11
ENDBRANCH   1   9
BRANCH   5  20
ATOM     20  C   UNL     1       3.788   2.896  17.766  0.00  0.00    +0.000 C 
BRANCH  20  21
ATOM     21  C   UNL     1       2.935   2.965  19.010  0.00  0.00    +0.000 A 
ATOM     22  C   UNL     1       3.406   2.504  20.247  0.00  0.00    +0.000 A 
ATOM     23  C   UNL     1       2.611   2.613  21.393  0.00  0.00    +0.000 A 
ATOM     24  C   UNL     1       1.339   3.185  21.317  0.00  0.00    +0.000 A 
ATOM     25  C   UNL     1       0.851   3.618  20.087  0.00  0.00    +0.000 A 
ATOM     26  C   UNL     1       1.642   3.497  18.948  0.00  0.00    +0.000 A 
ATOM     27  F   UNL     1       1.142   3.909  17.774  0.00  0.00    +0.000 F 
ENDBRANCH  20  21
ENDBRANCH   5  20
TORSDOF 6
ENDMDL
MODEL 4
REMARK VINA RESULT:      -8.1      3.815      7.779
REMARK  Name = 
REMARK  6 active torsions:
REMARK  status: ('A' for Active; 'I' for Inactive)
REMARK    1  A    between atoms: C_2  and  C_3
REMARK    2  A    between atoms: C_3  and  C_4
REMARK    3  A    between atoms: C_4  and  C_5
REMARK    4  A    between atoms: N_12  and  C_13
REMARK    5  A    between atoms: N_17  and  C_18
REMARK    6  A    between atoms: C_18  and  C_19
REMARK                            x       y       z     vdW  Elec       q    Type
REMARK                         _______ _______ _______ _____ _____    ______ ____
ROOT
ATOM      1  C   UNL     1       5.048   6.570  17.801  0.00  0.00    +0.000 C 
ATOM      2  C   UNL     1       6.008   6.498  16.610  0.00  0.00    +0.000 C 
ATOM      3  C   UNL     1       5.441   5.618  15.499  0.00  0.00    +0.000 C 
ATOM      4  C   UNL     1       4.996   4.248  16.020  0.00  0.00    +0.000 C 
ATOM      5  N   UNL     1       4.053   4.352  17.154  0.00  0.00    +0.000 NA
ATOM      6  C   UNL     1       4.672   5.143  18.249  0.00  0.00    +0.000 C 
ENDROOT
BRANCH   1   9
ATOM      7  O   UNL     1       2.734   6.965  19.442  0.00  0.00    +0.000 OA
ATOM      8  C   UNL     1       2.784   7.488  18.332  0.00  0.00    +0.000 C 
ATOM      9  N   UNL     1       3.837   7.311  17.462  0.00  0.00    +0.000 N 
ATOM     10  H   UNL     1       3.883   7.861  16.606  0.00  0.00    +0.000 HD
BRANCH   8  11
ATOM     11  C   UNL     1       1.670   8.336  17.751  0.00  0.00    +0.000 C 
BRANCH  11  12
ATOM     12  C   UNL     1       1.877   9.812  18.080  0.00  0.00    +0.000 C 
BRANCH  12  13
ATOM     13  C   UNL     1       0.862  10.328  19.072  0.00  0.00    +0.000 A 
ATOM     14  C   UNL     1      -0.107  11.261  18.678  0.00  0.00    +0.000 A 
ATOM     15  C   UNL     1      -1.060  11.723  19.590  0.00  0.00    +0.000 A 
ATOM     16  C   UNL     1      -1.051  11.262  20.906  0.00  0.00    +0.000 A 
ATOM     17  C   UNL     1      -0.083  10.343  21.307  0.00  0.00    +0.000 A 
ATOM     18 CL   UNL     1      -0.069   9.772  22.930  0.00  0.00    +0.000 Cl
ATOM     19  C   UNL     1       0.874   9.879  20.400  0.00  0.00    +0.000 A 
ENDBRANCH  12  13
ENDBRANCH  11  12
ENDBRANCH   8  11
ENDBRANCH   1   9
BRANCH   5  20
ATOM     20  C   UNL     1       3.704   3.012  17.689  0.00  0.00    +0.000 C 
BRANCH  20  21
ATOM     21  C   UNL     1       2.887   3.031  18.959  0.00  0.00    +0.000 A 
ATOM     22  C   UNL     1       3.395   2.527  20.164  0.00  0.00    +0.000 A 
ATOM     23  C   UNL     1       2.633   2.589  21.336  0.00  0.00    +0.000 A 
ATOM     24  C   UNL     1       1.357   3.157  21.317  0.00  0.00    +0.000 A 
ATOM     25  C   UNL     1       0.832   3.634  20.119  0.00  0.00    +0.000 A 
ATOM     26  C   UNL     1       1.590   3.558  18.954  0.00  0.00    +0.000 A 
ATOM     27  F   UNL     1       1.055   4.012  17.811  0.00  0.00    +0.000 F 
ENDBRANCH  20  21
ENDBRANCH   5  20
TORSDOF 6
ENDMDL
MODEL 5
REMARK VINA RESULT:      -8.1      3.657      7.652
REMARK  Name = 
REMARK  6 active torsions:
REMARK  status: ('A' for Active; 'I' for Inactive)
REMARK    1  A    between atoms: C_2  and  C_3
REMARK    2  A    between atoms: C_3  and  C_4
REMARK    3  A    between atoms: C_4  and  C_5
REMARK    4  A    between atoms: N_12  and  C_13
REMARK    5  A    between atoms: N_17  and  C_18
REMARK    6  A    between atoms: C_18  and  C_19
REMARK                            x       y       z     vdW  Elec       q    Type
REMARK                         _______ _______ _______ _____ _____    ______ ____
ROOT
ATOM      1  C   UNL     1       4.877   6.722  17.869  0.00  0.00    +0.000 C 
ATOM      2  C   UNL     1       5.849   6.681  16.686  0.00  0.00    +0.000 C 
ATOM      3  C   UNL     1       5.318   5.788  15.569  0.00  0.00    +0.000 C 
ATOM      4  C   UNL     1       4.910   4.403  16.083  0.00  0.00    +0.000 C 
ATOM      5  N   UNL     1       3.955   4.476  17.210  0.00  0.00    +0.000 NA
ATOM      6  C   UNL     1       4.541   5.283  18.312  0.00  0.00    +0.000 C 
ENDROOT
BRANCH   1   9
ATOM      7  O   UNL     1       2.664   7.310  19.590  0.00  0.00    +0.000 OA
ATOM      8  C   UNL     1       2.647   7.706  18.427  0.00  0.00    +0.000 C 
ATOM      9  N   UNL     1       3.648   7.427  17.522  0.00  0.00    +0.000 N 
ATOM     10  H   UNL     1       3.642   7.877  16.609  0.00  0.00    +0.000 HD
BRANCH   8  11
ATOM     11  C   UNL     1       1.500   8.489  17.823  0.00  0.00    +0.000 C 
BRANCH  11  12
ATOM     12  C   UNL     1       1.166   9.713  18.671  0.00  0.00    +0.000 C 
BRANCH  12  13
ATOM     13  C   UNL     1      -0.236  10.217  18.426  0.00  0.00    +0.000 A 
ATOM     14  C   UNL     1      -0.818  11.153  19.293  0.00  0.00    +0.000 A 
ATOM     15  C   UNL     1      -2.107  11.636  19.054  0.00  0.00    +0.000 A 
ATOM     16  C   UNL     1      -2.831  11.185  17.950  0.00  0.00    +0.000 A 
ATOM     17  C   UNL     1      -2.263  10.246  17.092  0.00  0.00    +0.000 A 
ATOM     18 CL   UNL     1      -3.153   9.686  15.730  0.00  0.00    +0.000 Cl
ATOM     19  C   UNL     1      -0.975   9.758  17.327  0.00  0.00    +0.000 A 
ENDBRANCH  12  13
ENDBRANCH  11  12
ENDBRANCH   8  11
ENDBRANCH   1   9
BRANCH   5  20
ATOM     20  C   UNL     1       3.642   3.125  17.739  0.00  0.00    +0.000 C 
BRANCH  20  21
ATOM     21  C   UNL     1       2.834   3.117  19.014  0.00  0.00    +0.000 A 
ATOM     22  C   UNL     1       1.516   3.594  19.050  0.00  0.00    +0.000 A 
ATOM     23  C   UNL     1       0.775   3.541  20.236  0.00  0.00    +0.000 A 
ATOM     24  C   UNL     1       1.341   3.009  21.397  0.00  0.00    +0.000 A 
ATOM     25  C   UNL     1       2.658   2.560  21.379  0.00  0.00    +0.000 A 
ATOM     26  C   UNL     1       3.394   2.625  20.199  0.00  0.00    +0.000 A 
ATOM     27  F   UNL     1       4.666   2.199  20.213  0.00  0.00    +0.000 F 
ENDBRANCH  20  21
ENDBRANCH   5  20
TORSDOF 6
ENDMDL
MODEL 6
REMARK VINA RESULT:      -8.1      0.979      1.357
REMARK  Name = 
REMARK  6 active torsions:
REMARK  status: ('A' for Active; 'I' for Inactive)
REMARK    1  A    between atoms: C_2  and  C_3
REMARK    2  A    between atoms: C_3  and  C_4
REMARK    3  A    between atoms: C_4  and  C_5
REMARK    4  A    between atoms: N_12  and  C_13
REMARK    5  A    between atoms: N_17  and  C_18
REMARK    6  A    between atoms: C_18  and  C_19
REMARK                            x       y       z     vdW  Elec       q    Type
REMARK                         _______ _______ _______ _____ _____    ______ ____
ROOT
ATOM      1  C   UNL     1       4.325   3.011  18.934  0.00  0.00    +0.000 C 
ATOM      2  C   UNL     1       3.164   2.193  18.359  0.00  0.00    +0.000 C 
ATOM      3  C   UNL     1       2.113   3.100  17.726  0.00  0.00    +0.000 C 
ATOM      4  C   UNL     1       1.672   4.220  18.674  0.00  0.00    +0.000 C 
ATOM      5  N   UNL     1       2.812   5.004  19.194  0.00  0.00    +0.000 NA
ATOM      6  C   UNL     1       3.773   4.099  19.878  0.00  0.00    +0.000 C 
ENDROOT
BRANCH   1   9
ATOM      7  O   UNL     1       6.657   4.648  19.231  0.00  0.00    +0.000 OA
ATOM      8  C   UNL     1       6.249   4.376  18.106  0.00  0.00    +0.000 C 
ATOM      9  N   UNL     1       5.111   3.635  17.874  0.00  0.00    +0.000 N 
ATOM     10  H   UNL     1       4.884   3.339  16.927  0.00  0.00    +0.000 HD
BRANCH   8  11
ATOM     11  C   UNL     1       6.903   4.872  16.832  0.00  0.00    +0.000 C 
BRANCH  11  12
ATOM     12  C   UNL     1       5.858   5.172  15.761  0.00  0.00    +0.000 C 
BRANCH  12  13
ATOM     13  C   UNL     1       6.323   4.782  14.379  0.00  0.00    +0.000 A 
ATOM     14  C   UNL     1       7.430   5.414  13.795  0.00  0.00    +0.000 A 
ATOM     15  C   UNL     1       7.875   5.039  12.525  0.00  0.00    +0.000 A 
ATOM     16  C   UNL     1       7.213   4.033  11.821  0.00  0.00    +0.000 A 
ATOM     17  C   UNL     1       6.105   3.409  12.390  0.00  0.00    +0.000 A 
ATOM     18 CL   UNL     1       5.287   2.167  11.524  0.00  0.00    +0.000 Cl
ATOM     19  C   UNL     1       5.655   3.781  13.660  0.00  0.00    +0.000 A 
ENDBRANCH  12  13
ENDBRANCH  11  12
ENDBRANCH   8  11
ENDBRANCH   1   9
BRANCH   5  20
ATOM     20  C   UNL     1       2.362   6.027  20.171  0.00  0.00    +0.000 C 
BRANCH  20  21
ATOM     21  C   UNL     1       2.023   7.371  19.571  0.00  0.00    +0.000 A 
ATOM     22  C   UNL     1       1.215   8.294  20.249  0.00  0.00    +0.000 A 
ATOM     23  C   UNL     1       0.947   9.547  19.689  0.00  0.00    +0.000 A 
ATOM     24  C   UNL     1       1.482   9.892  18.446  0.00  0.00    +0.000 A 
ATOM     25  C   UNL     1       2.261   8.972  17.751  0.00  0.00    +0.000 A 
ATOM     26  C   UNL     1       2.516   7.722  18.309  0.00  0.00    +0.000 A 
ATOM     27  F   UNL     1       3.258   6.848  17.611  0.00  0.00    +0.000 F 
ENDBRANCH  20  21
ENDBRANCH   5  20
TORSDOF 6
ENDMDL
MODEL 7
REMARK VINA RESULT:      -8.1      3.849      7.770
REMARK  Name = 
REMARK  6 active torsions:
REMARK  status: ('A' for Active; 'I' for Inactive)
REMARK    1  A    between atoms: C_2  and  C_3
REMARK    2  A    between atoms: C_3  and  C_4
REMARK    3  A    between atoms: C_4  and  C_5
REMARK    4  A    between atoms: N_12  and  C_13
REMARK    5  A    between atoms: N_17  and  C_18
REMARK    6  A    between atoms: C_18  and  C_19
REMARK                            x       y       z     vdW  Elec       q    Type
REMARK                         _______ _______ _______ _____ _____    ______ ____
ROOT
ATOM      1  C   UNL     1       5.140   6.473  17.694  0.00  0.00    +0.000 C 
ATOM      2  C   UNL     1       6.039   6.359  16.458  0.00  0.00    +0.000 C 
ATOM      3  C   UNL     1       5.426   5.428  15.417  0.00  0.00    +0.000 C 
ATOM      4  C   UNL     1       5.024   4.077  16.017  0.00  0.00    +0.000 C 
ATOM      5  N   UNL     1       4.140   4.220  17.194  0.00  0.00    +0.000 NA
ATOM      6  C   UNL     1       4.805   5.064  18.221  0.00  0.00    +0.000 C 
ENDROOT
BRANCH   1   9
ATOM      7  O   UNL     1       2.886   6.867  19.416  0.00  0.00    +0.000 OA
ATOM      8  C   UNL     1       2.884   7.366  18.294  0.00  0.00    +0.000 C 
ATOM      9  N   UNL     1       3.905   7.188  17.387  0.00  0.00    +0.000 N 
ATOM     10  H   UNL     1       3.908   7.719  16.519  0.00  0.00    +0.000 HD
BRANCH   8  11
ATOM     11  C   UNL     1       1.734   8.183  17.740  0.00  0.00    +0.000 C 
BRANCH  11  12
ATOM     12  C   UNL     1       1.920   9.667  18.045  0.00  0.00    +0.000 C 
BRANCH  12  13
ATOM     13  C   UNL     1       0.921  10.176  19.056  0.00  0.00    +0.000 A 
ATOM     14  C   UNL     1      -0.015  11.158  18.701  0.00  0.00    +0.000 A 
ATOM     15  C   UNL     1      -0.954  11.613  19.629  0.00  0.00    +0.000 A 
ATOM     16  C   UNL     1      -0.964  11.098  20.925  0.00  0.00    +0.000 A 
ATOM     17  C   UNL     1      -0.029  10.131  21.288  0.00  0.00    +0.000 A 
ATOM     18 CL   UNL     1      -0.039   9.493  22.887  0.00  0.00    +0.000 Cl
ATOM     19  C   UNL     1       0.913   9.673  20.364  0.00  0.00    +0.000 A 
ENDBRANCH  12  13
ENDBRANCH  11  12
ENDBRANCH   8  11
ENDBRANCH   1   9
BRANCH   5  20
ATOM     20  C   UNL     1       3.835   2.901  17.802  0.00  0.00    +0.000 C 
BRANCH  20  21
ATOM     21  C   UNL     1       2.941   2.956  19.018  0.00  0.00    +0.000 A 
ATOM     22  C   UNL     1       1.603   3.364  18.926  0.00  0.00    +0.000 A 
ATOM     23  C   UNL     1       0.785   3.371  20.061  0.00  0.00    +0.000 A 
ATOM     24  C   UNL     1       1.293   2.969  21.299  0.00  0.00    +0.000 A 
ATOM     25  C   UNL     1       2.628   2.591  21.406  0.00  0.00    +0.000 A 
ATOM     26  C   UNL     1       3.440   2.596  20.275  0.00  0.00    +0.000 A 
ATOM     27  F   UNL     1       4.727   2.241  20.410  0.00  0.00    +0.000 F 
ENDBRANCH  20  21
ENDBRANCH   5  20
TORSDOF 6
ENDMDL
MODEL 8
REMARK VINA RESULT:      -8.0      5.447      7.095
REMARK  Name = 
REMARK  6 active torsions:
REMARK  status: ('A' for Active; 'I' for Inactive)
REMARK    1  A    between atoms: C_2  and  C_3
REMARK    2  A    between atoms: C_3  and  C_4
REMARK    3  A    between atoms: C_4  and  C_5
REMARK    4  A    between atoms: N_12  and  C_13
REMARK    5  A    between atoms: N_17  and  C_18
REMARK    6  A    between atoms: C_18  and  C_19
REMARK                            x       y       z     vdW  Elec       q    Type
REMARK                         _______ _______ _______ _____ _____    ______ ____
ROOT
ATOM      1  C   UNL     1       7.194   5.793  16.960  0.00  0.00    +0.000 C 
ATOM      2  C   UNL     1       6.438   5.403  15.686  0.00  0.00    +0.000 C 
ATOM      3  C   UNL     1       4.988   5.876  15.741  0.00  0.00    +0.000 C 
ATOM      4  C   UNL     1       4.289   5.444  17.033  0.00  0.00    +0.000 C 
ATOM      5  N   UNL     1       5.032   5.854  18.244  0.00  0.00    +0.000 NA
ATOM      6  C   UNL     1       6.412   5.304  18.196  0.00  0.00    +0.000 C 
ENDROOT
BRANCH   1   9
ATOM      7  O   UNL     1       8.574   7.252  19.003  0.00  0.00    +0.000 OA
ATOM      8  C   UNL     1       8.103   7.856  18.043  0.00  0.00    +0.000 C 
ATOM      9  N   UNL     1       7.386   7.238  17.042  0.00  0.00    +0.000 N 
ATOM     10  H   UNL     1       7.120   7.764  16.212  0.00  0.00    +0.000 HD
BRANCH   8  11
ATOM     11  C   UNL     1       8.190   9.359  17.870  0.00  0.00    +0.000 C 
BRANCH  11  12
ATOM     12  C   UNL     1       9.047   9.986  18.966  0.00  0.00    +0.000 C 
BRANCH  12  13
ATOM     13  C   UNL     1       9.581  11.343  18.572  0.00  0.00    +0.000 A 
ATOM     14  C   UNL     1      10.639  11.454  17.658  0.00  0.00    +0.000 A 
ATOM     15  C   UNL     1      11.119  12.709  17.277  0.00  0.00    +0.000 A 
ATOM     16  C   UNL     1      10.552  13.868  17.810  0.00  0.00    +0.000 A 
ATOM     17  C   UNL     1       9.508  13.763  18.727  0.00  0.00    +0.000 A 
ATOM     18 CL   UNL     1       8.806  15.190  19.386  0.00  0.00    +0.000 Cl
ATOM     19  C   UNL     1       9.025  12.510  19.113  0.00  0.00    +0.000 A 
ENDBRANCH  12  13
ENDBRANCH  11  12
ENDBRANCH   8  11
ENDBRANCH   1   9
BRANCH   5  20
ATOM     20  C   UNL     1       4.375   5.351  19.476  0.00  0.00    +0.000 C 
BRANCH  20  21
ATOM     21  C   UNL     1       3.363   4.253  19.252  0.00  0.00    +0.000 A 
ATOM     22  C   UNL     1       3.736   3.011  18.719  0.00  0.00    +0.000 A 
ATOM     23  C   UNL     1       2.787   1.997  18.555  0.00  0.00    +0.000 A 
ATOM     24  C   UNL     1       1.456   2.210  18.923  0.00  0.00    +0.000 A 
ATOM     25  C   UNL     1       1.070   3.450  19.425  0.00  0.00    +0.000 A 
ATOM     26  C   UNL     1       2.017   4.459  19.576  0.00  0.00    +0.000 A 
ATOM     27  F   UNL     1       1.616   5.648  20.049  0.00  0.00    +0.000 F 
ENDBRANCH  20  21
ENDBRANCH   5  20
TORSDOF 6
ENDMDL
MODEL 9
REMARK VINA RESULT:      -8.0      5.311      7.103
REMARK  Name = 
REMARK  6 active torsions:
REMARK  status: ('A' for Active; 'I' for Inactive)
REMARK    1  A    between atoms: C_2  and  C_3
REMARK    2  A    between atoms: C_3  and  C_4
REMARK    3  A    between atoms: C_4  and  C_5
REMARK    4  A    between atoms: N_12  and  C_13
REMARK    5  A    between atoms: N_17  and  C_18
REMARK    6  A    between atoms: C_18  and  C_19
REMARK                            x       y       z     vdW  Elec       q    Type
REMARK                         _______ _______ _______ _____ _____    ______ ____
ROOT
ATOM      1  C   UNL     1       7.318   6.028  16.886  0.00  0.00    +0.000 C 
ATOM      2  C   UNL     1       6.529   5.737  15.606  0.00  0.00    +0.000 C 
ATOM      3  C   UNL     1       5.087   6.222  15.727  0.00  0.00    +0.000 C 
ATOM      4  C   UNL     1       4.411   5.705  17.002  0.00  0.00    +0.000 C 
ATOM      5  N   UNL     1       5.186   6.021  18.221  0.00  0.00    +0.000 NA
ATOM      6  C   UNL     1       6.558   5.461  18.102  0.00  0.00    +0.000 C 
ENDROOT
BRANCH   1   9
ATOM      7  O   UNL     1       8.632   7.332  19.072  0.00  0.00    +0.000 OA
ATOM      8  C   UNL     1       8.212   8.003  18.133  0.00  0.00    +0.000 C 
ATOM      9  N   UNL     1       7.529   7.461  17.066  0.00  0.00    +0.000 N 
ATOM     10  H   UNL     1       7.308   8.042  16.260  0.00  0.00    +0.000 HD
BRANCH   8  11
ATOM     11  C   UNL     1       8.331   9.512  18.057  0.00  0.00    +0.000 C 
BRANCH  11  12
ATOM     12  C   UNL     1       8.822  10.088  19.383  0.00  0.00    +0.000 C 
BRANCH  12  13
ATOM     13  C   UNL     1       9.972  11.049  19.200  0.00  0.00    +0.000 A 
ATOM     14  C   UNL     1      10.796  11.389  20.283  0.00  0.00    +0.000 A 
ATOM     15  C   UNL     1      11.873  12.261  20.110  0.00  0.00    +0.000 A 
ATOM     16  C   UNL     1      12.135  12.810  18.854  0.00  0.00    +0.000 A 
ATOM     17  C   UNL     1      11.314  12.485  17.777  0.00  0.00    +0.000 A 
ATOM     18 CL   UNL     1      11.634  13.160  16.226  0.00  0.00    +0.000 Cl
ATOM     19  C   UNL     1      10.234  11.615  17.944  0.00  0.00    +0.000 A 
ENDBRANCH  12  13
ENDBRANCH  11  12
ENDBRANCH   8  11
ENDBRANCH   1   9
BRANCH   5  20
ATOM     20  C   UNL     1       4.550   5.438  19.429  0.00  0.00    +0.000 C 
BRANCH  20  21
ATOM     21  C   UNL     1       3.607   4.290  19.158  0.00  0.00    +0.000 A 
ATOM     22  C   UNL     1       4.082   2.993  18.922  0.00  0.00    +0.000 A 
ATOM     23  C   UNL     1       3.187   1.938  18.711  0.00  0.00    +0.000 A 
ATOM     24  C   UNL     1       1.809   2.168  18.735  0.00  0.00    +0.000 A 
ATOM     25  C   UNL     1       1.329   3.458  18.939  0.00  0.00    +0.000 A 
ATOM     26  C   UNL     1       2.224   4.506  19.137  0.00  0.00    +0.000 A 
ATOM     27  F   UNL     1       1.735   5.741  19.318  0.00  0.00    +0.000 F 
ENDBRANCH  20  21
ENDBRANCH   5  20
TORSDOF 6
ENDMDL
