MODEL 1
REMARK VINA RESULT:      -6.1      0.000      0.000
REMARK  Name = 
REMARK  2 active torsions:
REMARK  status: ('A' for Active; 'I' for Inactive)
REMARK    1  A    between atoms: C_2  and  C_3
REMARK    2  A    between atoms: N_17  and  C_18
REMARK                            x       y       z     vdW  Elec       q    Type
REMARK                         _______ _______ _______ _____ _____    ______ ____
ROOT
ATOM      1  O   UNL     1       8.184   3.867  17.062  0.00  0.00    +0.000 OA
ATOM      2  C   UNL     1       7.337   4.607  16.565  0.00  0.00    +0.000 C 
ATOM      3  N   UNL     1       6.512   5.407  17.370  0.00  0.00    +0.000 N 
ATOM      4  C   UNL     1       6.667   5.335  18.819  0.00  0.00    +0.000 C 
ATOM      5  C   UNL     1       5.307   5.232  19.503  0.00  0.00    +0.000 C 
ATOM      6  C   UNL     1       4.361   6.358  19.051  0.00  0.00    +0.000 C 
ATOM      7  C   UNL     1       4.291   6.435  17.517  0.00  0.00    +0.000 C 
ATOM      8  C   UNL     1       3.458   7.655  17.115  0.00  0.00    +0.000 C 
ATOM      9  C   UNL     1       2.087   7.634  17.768  0.00  0.00    +0.000 C 
ATOM     10  C   UNL     1       2.099   7.314  19.250  0.00  0.00    +0.000 C 
ATOM     11  O   UNL     1       1.240   7.770  20.002  0.00  0.00    +0.000 OA
ATOM     12  N   UNL     1       2.998   6.306  19.599  0.00  0.00    +0.000 N 
ATOM     13  C   UNL     1       5.690   6.521  16.910  0.00  0.00    +0.000 C 
ENDROOT
BRANCH   2  14
ATOM     14  C   UNL     1       7.207   4.675  15.097  0.00  0.00    +0.000 A 
ATOM     15  C   UNL     1       6.278   3.916  14.405  0.00  0.00    +0.000 A 
ATOM     16  S   UNL     1       6.405   4.187  12.721  0.00  0.00    +0.000 S 
ATOM     17  C   UNL     1       7.633   5.342  13.021  0.00  0.00    +0.000 A 
ATOM     18  N   UNL     1       7.957   5.530  14.279  0.00  0.00    +0.000 NA
ENDBRANCH   2  14
BRANCH  12  19
ATOM     19  C   UNL     1       2.677   5.402  20.673  0.00  0.00    +0.000 C 
ATOM     20  C   UNL     1       1.326   4.730  20.767  0.00  0.00    +0.000 C 
ATOM     21  C   UNL     1       2.518   3.931  20.359  0.00  0.00    +0.000 C 
ENDBRANCH  12  19
TORSDOF 2
ENDMDL
MODEL 2
REMARK VINA RESULT:      -6.1      1.502      1.745
REMARK  Name = 
REMARK  2 active torsions:
REMARK  status: ('A' for Active; 'I' for Inactive)
REMARK    1  A    between atoms: C_2  and  C_3
REMARK    2  A    between atoms: N_17  and  C_18
REMARK                            x       y       z     vdW  Elec       q    Type
REMARK                         _______ _______ _______ _____ _____    ______ ____
ROOT
ATOM      1  O   UNL     1       8.342   4.507  17.243  0.00  0.00    +0.000 OA
ATOM      2  C   UNL     1       7.219   4.680  16.771  0.00  0.00    +0.000 C 
ATOM      3  N   UNL     1       6.134   5.025  17.591  0.00  0.00    +0.000 N 
ATOM      4  C   UNL     1       6.357   5.161  19.026  0.00  0.00    +0.000 C 
ATOM      5  C   UNL     1       5.261   4.450  19.813  0.00  0.00    +0.000 C 
ATOM      6  C   UNL     1       3.860   4.910  19.372  0.00  0.00    +0.000 C 
ATOM      7  C   UNL     1       3.704   4.814  17.845  0.00  0.00    +0.000 C 
ATOM      8  C   UNL     1       2.356   5.415  17.442  0.00  0.00    +0.000 C 
ATOM      9  C   UNL     1       1.208   4.766  18.194  0.00  0.00    +0.000 C 
ATOM     10  C   UNL     1       1.433   4.620  19.685  0.00  0.00    +0.000 C 
ATOM     11  O   UNL     1       0.490   4.646  20.474  0.00  0.00    +0.000 OA
ATOM     12  N   UNL     1       2.730   4.229  20.021  0.00  0.00    +0.000 N 
ATOM     13  C   UNL     1       4.846   5.536  17.134  0.00  0.00    +0.000 C 
ENDROOT
BRANCH   2  14
ATOM     14  C   UNL     1       7.019   4.552  15.315  0.00  0.00    +0.000 A 
ATOM     15  C   UNL     1       6.113   3.655  14.773  0.00  0.00    +0.000 A 
ATOM     16  S   UNL     1       6.146   3.716  13.064  0.00  0.00    +0.000 S 
ATOM     17  C   UNL     1       7.304   4.974  13.153  0.00  0.00    +0.000 A 
ATOM     18  N   UNL     1       7.671   5.341  14.358  0.00  0.00    +0.000 NA
ENDBRANCH   2  14
BRANCH  12  19
ATOM     19  C   UNL     1       2.948   3.378  21.162  0.00  0.00    +0.000 C 
ATOM     20  C   UNL     1       1.847   2.509  21.725  0.00  0.00    +0.000 C 
ATOM     21  C   UNL     1       2.962   1.880  20.958  0.00  0.00    +0.000 C 
ENDBRANCH  12  19
TORSDOF 2
ENDMDL
MODEL 3
REMARK VINA RESULT:      -5.8      4.411      6.702
REMARK  Name = 
REMARK  2 active torsions:
REMARK  status: ('A' for Active; 'I' for Inactive)
REMARK    1  A    between atoms: C_2  and  C_3
REMARK    2  A    between atoms: N_17  and  C_18
REMARK                            x       y       z     vdW  Elec       q    Type
REMARK                         _______ _______ _______ _____ _____    ______ ____
ROOT
ATOM      1  O   UNL     1       2.427   9.869  17.045  0.00  0.00    +0.000 OA
ATOM      2  C   UNL     1       1.898   9.303  18.001  0.00  0.00    +0.000 C 
ATOM      3  N   UNL     1       2.494   8.183  18.600  0.00  0.00    +0.000 N 
ATOM      4  C   UNL     1       3.754   7.687  18.057  0.00  0.00    +0.000 C 
ATOM      5  C   UNL     1       3.718   6.169  17.909  0.00  0.00    +0.000 C 
ATOM      6  C   UNL     1       3.314   5.483  19.226  0.00  0.00    +0.000 C 
ATOM      7  C   UNL     1       2.020   6.092  19.790  0.00  0.00    +0.000 C 
ATOM      8  C   UNL     1       1.738   5.482  21.165  0.00  0.00    +0.000 C 
ATOM      9  C   UNL     1       1.699   3.966  21.106  0.00  0.00    +0.000 C 
ATOM     10  C   UNL     1       2.842   3.334  20.337  0.00  0.00    +0.000 C 
ATOM     11  O   UNL     1       3.264   2.218  20.633  0.00  0.00    +0.000 OA
ATOM     12  N   UNL     1       3.179   4.020  19.169  0.00  0.00    +0.000 N 
ATOM     13  C   UNL     1       2.132   7.612  19.893  0.00  0.00    +0.000 C 
ENDROOT
BRANCH   2  14
ATOM     14  C   UNL     1       0.632   9.830  18.543  0.00  0.00    +0.000 A 
ATOM     15  C   UNL     1       0.572  10.498  19.755  0.00  0.00    +0.000 A 
ATOM     16  S   UNL     1      -1.037  10.946  20.124  0.00  0.00    +0.000 S 
ATOM     17  C   UNL     1      -1.540  10.290  18.624  0.00  0.00    +0.000 A 
ATOM     18  N   UNL     1      -0.600   9.757  17.880  0.00  0.00    +0.000 NA
ENDBRANCH   2  14
BRANCH  12  19
ATOM     19  C   UNL     1       3.642   3.288  18.019  0.00  0.00    +0.000 C 
ATOM     20  C   UNL     1       3.279   1.836  17.804  0.00  0.00    +0.000 C 
ATOM     21  C   UNL     1       2.638   2.888  16.961  0.00  0.00    +0.000 C 
ENDBRANCH  12  19
TORSDOF 2
ENDMDL
MODEL 4
REMARK VINA RESULT:      -5.3      1.913      2.312
REMARK  Name = 
REMARK  2 active torsions:
REMARK  status: ('A' for Active; 'I' for Inactive)
REMARK    1  A    between atoms: C_2  and  C_3
REMARK    2  A    between atoms: N_17  and  C_18
REMARK                            x       y       z     vdW  Elec       q    Type
REMARK                         _______ _______ _______ _____ _____    ______ ____
ROOT
ATOM      1  O   UNL     1       7.980   5.359  16.894  0.00  0.00    +0.000 OA
ATOM      2  C   UNL     1       6.866   5.116  16.433  0.00  0.00    +0.000 C 
ATOM      3  N   UNL     1       5.709   5.285  17.208  0.00  0.00    +0.000 N 
ATOM      4  C   UNL     1       5.850   5.741  18.587  0.00  0.00    +0.000 C 
ATOM      5  C   UNL     1       4.983   4.906  19.524  0.00  0.00    +0.000 C 
ATOM      6  C   UNL     1       3.521   4.861  19.049  0.00  0.00    +0.000 C 
ATOM      7  C   UNL     1       3.434   4.444  17.571  0.00  0.00    +0.000 C 
ATOM      8  C   UNL     1       1.980   4.553  17.105  0.00  0.00    +0.000 C 
ATOM      9  C   UNL     1       1.046   3.757  17.999  0.00  0.00    +0.000 C 
ATOM     10  C   UNL     1       1.269   3.958  19.484  0.00  0.00    +0.000 C 
ATOM     11  O   UNL     1       0.340   3.862  20.283  0.00  0.00    +0.000 OA
ATOM     12  N   UNL     1       2.616   4.020  19.846  0.00  0.00    +0.000 N 
ATOM     13  C   UNL     1       4.340   5.316  16.705  0.00  0.00    +0.000 C 
ENDROOT
BRANCH   2  14
ATOM     14  C   UNL     1       6.745   4.670  15.032  0.00  0.00    +0.000 A 
ATOM     15  C   UNL     1       7.486   5.242  14.011  0.00  0.00    +0.000 A 
ATOM     16  S   UNL     1       7.089   4.539  12.504  0.00  0.00    +0.000 S 
ATOM     17  C   UNL     1       6.014   3.475  13.308  0.00  0.00    +0.000 A 
ATOM     18  N   UNL     1       5.926   3.615  14.609  0.00  0.00    +0.000 NA
ENDBRANCH   2  14
BRANCH  12  19
ATOM     19  C   UNL     1       3.039   3.492  21.117  0.00  0.00    +0.000 C 
ATOM     20  C   UNL     1       2.303   2.355  21.789  0.00  0.00    +0.000 C 
ATOM     21  C   UNL     1       3.635   2.102  21.163  0.00  0.00    +0.000 C 
ENDBRANCH  12  19
TORSDOF 2
ENDMDL
MODEL 5
REMARK VINA RESULT:      -5.3      6.125      8.863
REMARK  Name = 
REMARK  2 active torsions:
REMARK  status: ('A' for Active; 'I' for Inactive)
REMARK    1  A    between atoms: C_2  and  C_3
REMARK    2  A    between atoms: N_17  and  C_18
REMARK                            x       y       z     vdW  Elec       q    Type
REMARK                         _______ _______ _______ _____ _____    ______ ____
ROOT
ATOM      1  O   UNL     1       1.356  10.264  21.968  0.00  0.00    +0.000 OA
ATOM      2  C   UNL     1       0.961   9.808  20.896  0.00  0.00    +0.000 C 
ATOM      3  N   UNL     1       0.102  10.544  20.068  0.00  0.00    +0.000 N 
ATOM      4  C   UNL     1      -0.334  11.865  20.509  0.00  0.00    +0.000 C 
ATOM      5  C   UNL     1      -1.836  12.036  20.302  0.00  0.00    +0.000 C 
ATOM      6  C   UNL     1      -2.246  11.716  18.854  0.00  0.00    +0.000 C 
ATOM      7  C   UNL     1      -1.701  10.346  18.416  0.00  0.00    +0.000 C 
ATOM      8  C   UNL     1      -2.007  10.137  16.931  0.00  0.00    +0.000 C 
ATOM      9  C   UNL     1      -3.487  10.303  16.638  0.00  0.00    +0.000 C 
ATOM     10  C   UNL     1      -4.121  11.529  17.266  0.00  0.00    +0.000 C 
ATOM     11  O   UNL     1      -5.071  12.095  16.730  0.00  0.00    +0.000 OA
ATOM     12  N   UNL     1      -3.686  11.780  18.567  0.00  0.00    +0.000 N 
ATOM     13  C   UNL     1      -0.197  10.251  18.670  0.00  0.00    +0.000 C 
ENDROOT
BRANCH   2  14
ATOM     14  C   UNL     1       1.426   8.477  20.462  0.00  0.00    +0.000 A 
ATOM     15  C   UNL     1       1.157   7.330  21.191  0.00  0.00    +0.000 A 
ATOM     16  S   UNL     1       1.864   5.960  20.452  0.00  0.00    +0.000 S 
ATOM     17  C   UNL     1       2.421   6.960  19.179  0.00  0.00    +0.000 A 
ATOM     18  N   UNL     1       2.126   8.236  19.273  0.00  0.00    +0.000 NA
ENDBRANCH   2  14
BRANCH  12  19
ATOM     19  C   UNL     1      -4.597  12.349  19.528  0.00  0.00    +0.000 C 
ATOM     20  C   UNL     1      -6.009  12.732  19.151  0.00  0.00    +0.000 C 
ATOM     21  C   UNL     1      -5.774  11.520  19.990  0.00  0.00    +0.000 C 
ENDBRANCH  12  19
TORSDOF 2
ENDMDL
MODEL 6
REMARK VINA RESULT:      -5.1      9.128     12.965
REMARK  Name = 
REMARK  2 active torsions:
REMARK  status: ('A' for Active; 'I' for Inactive)
REMARK    1  A    between atoms: C_2  and  C_3
REMARK    2  A    between atoms: N_17  and  C_18
REMARK                            x       y       z     vdW  Elec       q    Type
REMARK                         _______ _______ _______ _____ _____    ______ ____
ROOT
ATOM      1  O   UNL     1      -5.187  15.406  20.648  0.00  0.00    +0.000 OA
ATOM      2  C   UNL     1      -4.914  14.535  21.473  0.00  0.00    +0.000 C 
ATOM      3  N   UNL     1      -3.604  14.054  21.613  0.00  0.00    +0.000 N 
ATOM      4  C   UNL     1      -2.563  14.597  20.746  0.00  0.00    +0.000 C 
ATOM      5  C   UNL     1      -1.700  13.478  20.172  0.00  0.00    +0.000 C 
ATOM      6  C   UNL     1      -1.149  12.565  21.282  0.00  0.00    +0.000 C 
ATOM      7  C   UNL     1      -2.276  12.080  22.208  0.00  0.00    +0.000 C 
ATOM      8  C   UNL     1      -1.665  11.300  23.374  0.00  0.00    +0.000 C 
ATOM      9  C   UNL     1      -0.777  10.170  22.884  0.00  0.00    +0.000 C 
ATOM     10  C   UNL     1       0.191  10.559  21.784  0.00  0.00    +0.000 C 
ATOM     11  O   UNL     1       1.277   9.995  21.669  0.00  0.00    +0.000 OA
ATOM     12  N   UNL     1      -0.362  11.410  20.827  0.00  0.00    +0.000 N 
ATOM     13  C   UNL     1      -3.100  13.257  22.726  0.00  0.00    +0.000 C 
ENDROOT
BRANCH   2  14
ATOM     14  C   UNL     1      -5.979  14.011  22.350  0.00  0.00    +0.000 A 
ATOM     15  C   UNL     1      -6.645  12.829  22.072  0.00  0.00    +0.000 A 
ATOM     16  S   UNL     1      -7.846  12.516  23.248  0.00  0.00    +0.000 S 
ATOM     17  C   UNL     1      -7.361  13.928  24.087  0.00  0.00    +0.000 A 
ATOM     18  N   UNL     1      -6.380  14.614  23.549  0.00  0.00    +0.000 NA
ENDBRANCH   2  14
BRANCH  12  19
ATOM     19  C   UNL     1       0.057  11.307  19.452  0.00  0.00    +0.000 C 
ATOM     20  C   UNL     1       0.490   9.989  18.852  0.00  0.00    +0.000 C 
ATOM     21  C   UNL     1      -0.833  10.571  18.476  0.00  0.00    +0.000 C 
ENDBRANCH  12  19
TORSDOF 2
ENDMDL
MODEL 7
REMARK VINA RESULT:      -5.1      7.539     11.333
REMARK  Name = 
REMARK  2 active torsions:
REMARK  status: ('A' for Active; 'I' for Inactive)
REMARK    1  A    between atoms: C_2  and  C_3
REMARK    2  A    between atoms: N_17  and  C_18
REMARK                            x       y       z     vdW  Elec       q    Type
REMARK                         _______ _______ _______ _____ _____    ______ ____
ROOT
ATOM      1  O   UNL     1      -2.115  15.234  21.289  0.00  0.00    +0.000 OA
ATOM      2  C   UNL     1      -2.255  14.131  21.817  0.00  0.00    +0.000 C 
ATOM      3  N   UNL     1      -1.219  13.185  21.803  0.00  0.00    +0.000 N 
ATOM      4  C   UNL     1       0.031  13.525  21.133  0.00  0.00    +0.000 C 
ATOM      5  C   UNL     1       0.502  12.374  20.249  0.00  0.00    +0.000 C 
ATOM      6  C   UNL     1       0.576  11.053  21.035  0.00  0.00    +0.000 C 
ATOM      7  C   UNL     1      -0.741  10.779  21.779  0.00  0.00    +0.000 C 
ATOM      8  C   UNL     1      -0.571   9.538  22.657  0.00  0.00    +0.000 C 
ATOM      9  C   UNL     1      -0.090   8.345  21.851  0.00  0.00    +0.000 C 
ATOM     10  C   UNL     1       1.064   8.641  20.913  0.00  0.00    +0.000 C 
ATOM     11  O   UNL     1       1.888   7.774  20.631  0.00  0.00    +0.000 OA
ATOM     12  N   UNL     1       0.951   9.866  20.254  0.00  0.00    +0.000 N 
ATOM     13  C   UNL     1      -1.149  11.983  22.626  0.00  0.00    +0.000 C 
ENDROOT
BRANCH   2  14
ATOM     14  C   UNL     1      -3.522  13.813  22.502  0.00  0.00    +0.000 A 
ATOM     15  C   UNL     1      -4.581  13.208  21.845  0.00  0.00    +0.000 A 
ATOM     16  S   UNL     1      -5.916  13.012  22.895  0.00  0.00    +0.000 S 
ATOM     17  C   UNL     1      -4.984  13.676  24.169  0.00  0.00    +0.000 A 
ATOM     18  N   UNL     1      -3.760  14.039  23.863  0.00  0.00    +0.000 NA
ENDBRANCH   2  14
BRANCH  12  19
ATOM     19  C   UNL     1       1.450  10.003  18.910  0.00  0.00    +0.000 C 
ATOM     20  C   UNL     1       1.695   8.799  18.028  0.00  0.00    +0.000 C 
ATOM     21  C   UNL     1       0.525   9.686  17.757  0.00  0.00    +0.000 C 
ENDBRANCH  12  19
TORSDOF 2
ENDMDL
MODEL 8
REMARK VINA RESULT:      -5.1      7.516     10.393
REMARK  Name = 
REMARK  2 active torsions:
REMARK  status: ('A' for Active; 'I' for Inactive)
REMARK    1  A    between atoms: C_2  and  C_3
REMARK    2  A    between atoms: N_17  and  C_18
REMARK                            x       y       z     vdW  Elec       q    Type
REMARK                         _______ _______ _______ _____ _____    ______ ____
ROOT
ATOM      1  O   UNL     1      -0.258  11.504  22.648  0.00  0.00    +0.000 OA
ATOM      2  C   UNL     1      -0.454  11.122  21.495  0.00  0.00    +0.000 C 
ATOM      3  N   UNL     1      -1.383  11.768  20.666  0.00  0.00    +0.000 N 
ATOM      4  C   UNL     1      -2.130  12.901  21.202  0.00  0.00    +0.000 C 
ATOM      5  C   UNL     1      -3.611  12.785  20.854  0.00  0.00    +0.000 C 
ATOM      6  C   UNL     1      -3.821  12.582  19.343  0.00  0.00    +0.000 C 
ATOM      7  C   UNL     1      -2.957  11.424  18.817  0.00  0.00    +0.000 C 
ATOM      8  C   UNL     1      -3.087  11.354  17.294  0.00  0.00    +0.000 C 
ATOM      9  C   UNL     1      -4.539  11.250  16.862  0.00  0.00    +0.000 C 
ATOM     10  C   UNL     1      -5.474  12.224  17.550  0.00  0.00    +0.000 C 
ATOM     11  O   UNL     1      -6.477  12.649  16.981  0.00  0.00    +0.000 OA
ATOM     12  N   UNL     1      -5.212  12.386  18.911  0.00  0.00    +0.000 N 
ATOM     13  C   UNL     1      -1.495  11.607  19.221  0.00  0.00    +0.000 C 
ENDROOT
BRANCH   2  14
ATOM     14  C   UNL     1       0.323   9.984  20.969  0.00  0.00    +0.000 A 
ATOM     15  C   UNL     1       0.396   8.772  21.635  0.00  0.00    +0.000 A 
ATOM     16  S   UNL     1       1.404   7.676  20.794  0.00  0.00    +0.000 S 
ATOM     17  C   UNL     1       1.623   8.851  19.568  0.00  0.00    +0.000 A 
ATOM     18  N   UNL     1       1.008   9.997  19.747  0.00  0.00    +0.000 NA
ENDBRANCH   2  14
BRANCH  12  19
ATOM     19  C   UNL     1      -6.300  12.622  19.825  0.00  0.00    +0.000 C 
ATOM     20  C   UNL     1      -7.659  11.993  19.620  0.00  0.00    +0.000 C 
ATOM     21  C   UNL     1      -6.769  11.485  20.705  0.00  0.00    +0.000 C 
ENDBRANCH  12  19
TORSDOF 2
ENDMDL
MODEL 9
REMARK VINA RESULT:      -5.0      9.244     11.797
REMARK  Name = 
REMARK  2 active torsions:
REMARK  status: ('A' for Active; 'I' for Inactive)
REMARK    1  A    between atoms: C_2  and  C_3
REMARK    2  A    between atoms: N_17  and  C_18
REMARK                            x       y       z     vdW  Elec       q    Type
REMARK                         _______ _______ _______ _____ _____    ______ ____
ROOT
ATOM      1  O   UNL     1       0.408  11.151  22.050  0.00  0.00    +0.000 OA
ATOM      2  C   UNL     1      -0.060  12.250  21.755  0.00  0.00    +0.000 C 
ATOM      3  N   UNL     1       0.362  12.933  20.605  0.00  0.00    +0.000 N 
ATOM      4  C   UNL     1       1.385  12.321  19.764  0.00  0.00    +0.000 C 
ATOM      5  C   UNL     1       2.452  13.343  19.380  0.00  0.00    +0.000 C 
ATOM      6  C   UNL     1       1.827  14.602  18.755  0.00  0.00    +0.000 C 
ATOM      7  C   UNL     1       0.707  15.164  19.646  0.00  0.00    +0.000 C 
ATOM      8  C   UNL     1       0.022  16.322  18.918  0.00  0.00    +0.000 C 
ATOM      9  C   UNL     1       1.022  17.382  18.489  0.00  0.00    +0.000 C 
ATOM     10  C   UNL     1       2.268  16.839  17.818  0.00  0.00    +0.000 C 
ATOM     11  O   UNL     1       2.866  17.495  16.969  0.00  0.00    +0.000 OA
ATOM     12  N   UNL     1       2.766  15.680  18.415  0.00  0.00    +0.000 N 
ATOM     13  C   UNL     1      -0.308  14.077  19.996  0.00  0.00    +0.000 C 
ENDROOT
BRANCH   2  14
ATOM     14  C   UNL     1      -1.104  12.844  22.612  0.00  0.00    +0.000 A 
ATOM     15  C   UNL     1      -2.382  12.314  22.688  0.00  0.00    +0.000 A 
ATOM     16  S   UNL     1      -3.367  13.248  23.728  0.00  0.00    +0.000 S 
ATOM     17  C   UNL     1      -2.021  14.252  24.065  0.00  0.00    +0.000 A 
ATOM     18  N   UNL     1      -0.902  13.945  23.453  0.00  0.00    +0.000 NA
ENDBRANCH   2  14
BRANCH  12  19
ATOM     19  C   UNL     1       4.188  15.447  18.445  0.00  0.00    +0.000 C 
ATOM     20  C   UNL     1       5.170  16.567  18.706  0.00  0.00    +0.000 C 
ATOM     21  C   UNL     1       4.912  15.551  19.769  0.00  0.00    +0.000 C 
ENDBRANCH  12  19
TORSDOF 2
ENDMDL
