MODEL 1
REMARK VINA RESULT:      -8.5      0.000      0.000
REMARK  Name = 
REMARK  8 active torsions:
REMARK  status: ('A' for Active; 'I' for Inactive)
REMARK    1  A    between atoms: C_1  and  C_2
REMARK    2  A    between atoms: C_6  and  N_7
REMARK    3  A    between atoms: C_8  and  C_10
REMARK    4  A    between atoms: C_10  and  S_11
REMARK    5  A    between atoms: S_11  and  C_12
REMARK    6  A    between atoms: N_14  and  C_15
REMARK    7  A    between atoms: C_15  and  C_16
REMARK    8  A    between atoms: C_29  and  C_30
REMARK                            x       y       z     vdW  Elec       q    Type
REMARK                         _______ _______ _______ _____ _____    ______ ____
ROOT
ATOM      1  C   UNL     1       2.296   6.204  19.576  0.00  0.00    +0.000 A 
ATOM      2  C   UNL     1       3.216   6.402  18.574  0.00  0.00    +0.000 A 
ATOM      3  N   UNL     1       3.387   5.204  17.915  0.00  0.00    +0.000 N 
ATOM      4  C   UNL     1       2.553   4.243  18.454  0.00  0.00    +0.000 A 
ATOM      5  C   UNL     1       2.358   2.889  18.128  0.00  0.00    +0.000 A 
ATOM      6  C   UNL     1       1.418   2.157  18.859  0.00  0.00    +0.000 A 
ATOM      7  C   UNL     1       0.692   2.748  19.887  0.00  0.00    +0.000 A 
ATOM      8  C   UNL     1       0.901   4.090  20.218  0.00  0.00    +0.000 A 
ATOM      9  C   UNL     1       1.843   4.855  19.497  0.00  0.00    +0.000 A 
ENDROOT
BRANCH   1  10
ATOM     10  S   UNL     1       1.775   7.345  20.797  0.00  0.00    +0.000 S 
BRANCH  10  11
ATOM     11  C   UNL     1       1.475   8.846  19.832  0.00  0.00    +0.000 C 
BRANCH  11  13
ATOM     12  N   UNL     1      -0.371  10.330  19.215  0.00  0.00    +0.000 N 
ATOM     13  C   UNL     1       0.107   9.433  20.166  0.00  0.00    +0.000 C 
ATOM     14  O   UNL     1      -0.488   9.044  21.170  0.00  0.00    +0.000 OA
ATOM     15  H   UNL     1       0.273  10.528  18.463  0.00  0.00    +0.000 HD
BRANCH  12  21
ATOM     16  C   UNL     1      -4.901  11.361  17.260  0.00  0.00    +0.000 C 
ATOM     17  C   UNL     1      -3.803  11.563  18.274  0.00  0.00    +0.000 A 
ATOM     18  C   UNL     1      -4.010  12.516  19.278  0.00  0.00    +0.000 A 
ATOM     19  C   UNL     1      -3.040  12.738  20.243  0.00  0.00    +0.000 A 
ATOM     20  C   UNL     1      -1.853  12.010  20.217  0.00  0.00    +0.000 A 
ATOM     21  C   UNL     1      -1.596  11.051  19.228  0.00  0.00    +0.000 A 
ATOM     22  C   UNL     1      -2.585  10.821  18.233  0.00  0.00    +0.000 A 
ATOM     23  C   UNL     1      -2.425   9.817  17.115  0.00  0.00    +0.000 C 
ENDBRANCH  12  21
ENDBRANCH  11  13
ENDBRANCH  10  11
ENDBRANCH   1  10
BRANCH   3  24
ATOM     24  C   UNL     1       4.252   5.024  16.752  0.00  0.00    +0.000 C 
BRANCH  24  25
ATOM     25  C   UNL     1       5.292   6.120  16.576  0.00  0.00    +0.000 C 
ATOM     26  O   UNL     1       5.215   6.983  15.702  0.00  0.00    +0.000 OA
ATOM     27  N   UNL     1       6.362   6.096  17.458  0.00  0.00    +0.000 N 
ATOM     28  C   UNL     1       6.631   5.136  18.512  0.00  0.00    +0.000 C 
ATOM     29  C   UNL     1       7.502   5.915  19.483  0.00  0.00    +0.000 C 
ATOM     30  C   UNL     1       8.329   6.817  18.573  0.00  0.00    +0.000 C 
ATOM     31  C   UNL     1       7.428   7.080  17.369  0.00  0.00    +0.000 C 
ENDBRANCH  24  25
ENDBRANCH   3  24
TORSDOF 6
ENDMDL
MODEL 2
REMARK VINA RESULT:      -8.3      2.518      3.413
REMARK  Name = 
REMARK  8 active torsions:
REMARK  status: ('A' for Active; 'I' for Inactive)
REMARK    1  A    between atoms: C_1  and  C_2
REMARK    2  A    between atoms: C_6  and  N_7
REMARK    3  A    between atoms: C_8  and  C_10
REMARK    4  A    between atoms: C_10  and  S_11
REMARK    5  A    between atoms: S_11  and  C_12
REMARK    6  A    between atoms: N_14  and  C_15
REMARK    7  A    between atoms: C_15  and  C_16
REMARK    8  A    between atoms: C_29  and  C_30
REMARK                            x       y       z     vdW  Elec       q    Type
REMARK                         _______ _______ _______ _____ _____    ______ ____
ROOT
ATOM      1  C   UNL     1       3.312   5.945  17.602  0.00  0.00    +0.000 A 
ATOM      2  C   UNL     1       4.518   5.647  17.014  0.00  0.00    +0.000 A 
ATOM      3  N   UNL     1       4.666   4.277  17.025  0.00  0.00    +0.000 N 
ATOM      4  C   UNL     1       3.546   3.684  17.577  0.00  0.00    +0.000 A 
ATOM      5  C   UNL     1       3.221   2.335  17.800  0.00  0.00    +0.000 A 
ATOM      6  C   UNL     1       1.984   2.034  18.378  0.00  0.00    +0.000 A 
ATOM      7  C   UNL     1       1.094   3.043  18.728  0.00  0.00    +0.000 A 
ATOM      8  C   UNL     1       1.429   4.384  18.520  0.00  0.00    +0.000 A 
ATOM      9  C   UNL     1       2.670   4.717  17.937  0.00  0.00    +0.000 A 
ENDROOT
BRANCH   1  10
ATOM     10  S   UNL     1       2.652   7.527  17.958  0.00  0.00    +0.000 S 
BRANCH  10  11
ATOM     11  C   UNL     1       2.303   7.421  19.730  0.00  0.00    +0.000 C 
BRANCH  11  13
ATOM     12  N   UNL     1       1.099   9.470  19.149  0.00  0.00    +0.000 N 
ATOM     13  C   UNL     1       1.435   8.592  20.176  0.00  0.00    +0.000 C 
ATOM     14  O   UNL     1       1.049   8.648  21.342  0.00  0.00    +0.000 OA
ATOM     15  H   UNL     1       1.525   9.258  18.258  0.00  0.00    +0.000 HD
BRANCH  12  21
ATOM     16  C   UNL     1       0.582  14.458  18.635  0.00  0.00    +0.000 C 
ATOM     17  C   UNL     1       0.061  13.087  18.988  0.00  0.00    +0.000 A 
ATOM     18  C   UNL     1      -1.267  12.985  19.418  0.00  0.00    +0.000 A 
ATOM     19  C   UNL     1      -1.804  11.750  19.745  0.00  0.00    +0.000 A 
ATOM     20  C   UNL     1      -1.021  10.602  19.647  0.00  0.00    +0.000 A 
ATOM     21  C   UNL     1       0.317  10.654  19.229  0.00  0.00    +0.000 A 
ATOM     22  C   UNL     1       0.874  11.919  18.895  0.00  0.00    +0.000 A 
ATOM     23  C   UNL     1       2.301  12.104  18.434  0.00  0.00    +0.000 C 
ENDBRANCH  12  21
ENDBRANCH  11  13
ENDBRANCH  10  11
ENDBRANCH   1  10
BRANCH   3  24
ATOM     24  C   UNL     1       5.802   3.570  16.440  0.00  0.00    +0.000 C 
BRANCH  24  25
ATOM     25  C   UNL     1       6.781   4.471  15.703  0.00  0.00    +0.000 C 
ATOM     26  O   UNL     1       7.580   5.208  16.282  0.00  0.00    +0.000 OA
ATOM     27  N   UNL     1       6.723   4.435  14.319  0.00  0.00    +0.000 N 
ATOM     28  C   UNL     1       5.824   3.665  13.481  0.00  0.00    +0.000 C 
ATOM     29  C   UNL     1       6.588   3.530  12.175  0.00  0.00    +0.000 C 
ATOM     30  C   UNL     1       7.339   4.852  12.064  0.00  0.00    +0.000 C 
ATOM     31  C   UNL     1       7.594   5.272  13.510  0.00  0.00    +0.000 C 
ENDBRANCH  24  25
ENDBRANCH   3  24
TORSDOF 6
ENDMDL
MODEL 3
REMARK VINA RESULT:      -8.2      5.469      8.727
REMARK  Name = 
REMARK  8 active torsions:
REMARK  status: ('A' for Active; 'I' for Inactive)
REMARK    1  A    between atoms: C_1  and  C_2
REMARK    2  A    between atoms: C_6  and  N_7
REMARK    3  A    between atoms: C_8  and  C_10
REMARK    4  A    between atoms: C_10  and  S_11
REMARK    5  A    between atoms: S_11  and  C_12
REMARK    6  A    between atoms: N_14  and  C_15
REMARK    7  A    between atoms: C_15  and  C_16
REMARK    8  A    between atoms: C_29  and  C_30
REMARK                            x       y       z     vdW  Elec       q    Type
REMARK                         _______ _______ _______ _____ _____    ______ ____
ROOT
ATOM      1  C   UNL     1       6.407   6.062  17.603  0.00  0.00    +0.000 A 
ATOM      2  C   UNL     1       5.154   5.927  18.151  0.00  0.00    +0.000 A 
ATOM      3  N   UNL     1       4.363   5.263  17.238  0.00  0.00    +0.000 N 
ATOM      4  C   UNL     1       5.107   4.929  16.122  0.00  0.00    +0.000 A 
ATOM      5  C   UNL     1       4.759   4.253  14.939  0.00  0.00    +0.000 A 
ATOM      6  C   UNL     1       5.749   4.049  13.973  0.00  0.00    +0.000 A 
ATOM      7  C   UNL     1       7.047   4.506  14.171  0.00  0.00    +0.000 A 
ATOM      8  C   UNL     1       7.383   5.193  15.341  0.00  0.00    +0.000 A 
ATOM      9  C   UNL     1       6.405   5.412  16.335  0.00  0.00    +0.000 A 
ENDROOT
BRANCH   1  10
ATOM     10  S   UNL     1       7.783   6.917  18.266  0.00  0.00    +0.000 S 
BRANCH  10  11
ATOM     11  C   UNL     1       7.516   8.609  17.681  0.00  0.00    +0.000 C 
BRANCH  11  13
ATOM     12  N   UNL     1       8.590  10.808  17.687  0.00  0.00    +0.000 N 
ATOM     13  C   UNL     1       8.543   9.555  18.294  0.00  0.00    +0.000 C 
ATOM     14  O   UNL     1       9.184   9.195  19.278  0.00  0.00    +0.000 OA
ATOM     15  H   UNL     1       7.989  10.908  16.882  0.00  0.00    +0.000 HD
BRANCH  12  21
ATOM     16  C   UNL     1       9.390  15.763  18.152  0.00  0.00    +0.000 C 
ATOM     17  C   UNL     1       9.830  14.322  18.230  0.00  0.00    +0.000 A 
ATOM     18  C   UNL     1      11.142  14.063  18.643  0.00  0.00    +0.000 A 
ATOM     19  C   UNL     1      11.600  12.758  18.744  0.00  0.00    +0.000 A 
ATOM     20  C   UNL     1      10.752  11.698  18.434  0.00  0.00    +0.000 A 
ATOM     21  C   UNL     1       9.432  11.907  18.010  0.00  0.00    +0.000 A 
ATOM     22  C   UNL     1       8.958  13.243  17.901  0.00  0.00    +0.000 A 
ATOM     23  C   UNL     1       7.559  13.596  17.453  0.00  0.00    +0.000 C 
ENDBRANCH  12  21
ENDBRANCH  11  13
ENDBRANCH  10  11
ENDBRANCH   1  10
BRANCH   3  24
ATOM     24  C   UNL     1       2.972   4.886  17.478  0.00  0.00    +0.000 C 
BRANCH  24  25
ATOM     25  C   UNL     1       2.802   3.506  18.095  0.00  0.00    +0.000 C 
ATOM     26  O   UNL     1       3.035   2.464  17.482  0.00  0.00    +0.000 OA
ATOM     27  N   UNL     1       2.349   3.473  19.405  0.00  0.00    +0.000 N 
ATOM     28  C   UNL     1       1.988   4.591  20.256  0.00  0.00    +0.000 C 
ATOM     29  C   UNL     1       2.183   4.043  21.659  0.00  0.00    +0.000 C 
ATOM     30  C   UNL     1       1.775   2.579  21.528  0.00  0.00    +0.000 C 
ATOM     31  C   UNL     1       2.126   2.209  20.089  0.00  0.00    +0.000 C 
ENDBRANCH  24  25
ENDBRANCH   3  24
TORSDOF 6
ENDMDL
MODEL 4
REMARK VINA RESULT:      -8.2      2.320      9.854
REMARK  Name = 
REMARK  8 active torsions:
REMARK  status: ('A' for Active; 'I' for Inactive)
REMARK    1  A    between atoms: C_1  and  C_2
REMARK    2  A    between atoms: C_6  and  N_7
REMARK    3  A    between atoms: C_8  and  C_10
REMARK    4  A    between atoms: C_10  and  S_11
REMARK    5  A    between atoms: S_11  and  C_12
REMARK    6  A    between atoms: N_14  and  C_15
REMARK    7  A    between atoms: C_15  and  C_16
REMARK    8  A    between atoms: C_29  and  C_30
REMARK                            x       y       z     vdW  Elec       q    Type
REMARK                         _______ _______ _______ _____ _____    ______ ____
ROOT
ATOM      1  C   UNL     1      -0.011  10.537  19.189  0.00  0.00    +0.000 A 
ATOM      2  C   UNL     1      -0.014  11.518  20.151  0.00  0.00    +0.000 A 
ATOM      3  N   UNL     1      -1.226  12.170  20.086  0.00  0.00    +0.000 N 
ATOM      4  C   UNL     1      -2.023  11.590  19.117  0.00  0.00    +0.000 A 
ATOM      5  C   UNL     1      -3.327  11.888  18.683  0.00  0.00    +0.000 A 
ATOM      6  C   UNL     1      -3.888  11.104  17.671  0.00  0.00    +0.000 A 
ATOM      7  C   UNL     1      -3.176  10.055  17.102  0.00  0.00    +0.000 A 
ATOM      8  C   UNL     1      -1.874   9.773  17.525  0.00  0.00    +0.000 A 
ATOM      9  C   UNL     1      -1.282  10.548  18.546  0.00  0.00    +0.000 A 
ENDROOT
BRANCH   1  10
ATOM     10  S   UNL     1       1.306   9.473  18.745  0.00  0.00    +0.000 S 
BRANCH  10  11
ATOM     11  C   UNL     1       1.571   8.518  20.259  0.00  0.00    +0.000 C 
BRANCH  11  13
ATOM     12  N   UNL     1       2.443   6.910  18.634  0.00  0.00    +0.000 N 
ATOM     13  C   UNL     1       1.951   7.079  19.925  0.00  0.00    +0.000 C 
ATOM     14  O   UNL     1       1.868   6.215  20.795  0.00  0.00    +0.000 OA
ATOM     15  H   UNL     1       2.425   7.743  18.064  0.00  0.00    +0.000 HD
BRANCH  12  21
ATOM     16  C   UNL     1       5.880   4.261  16.068  0.00  0.00    +0.000 C 
ATOM     17  C   UNL     1       4.544   4.413  16.753  0.00  0.00    +0.000 A 
ATOM     18  C   UNL     1       3.691   3.304  16.772  0.00  0.00    +0.000 A 
ATOM     19  C   UNL     1       2.456   3.382  17.395  0.00  0.00    +0.000 A 
ATOM     20  C   UNL     1       2.059   4.567  18.009  0.00  0.00    +0.000 A 
ATOM     21  C   UNL     1       2.876   5.707  18.012  0.00  0.00    +0.000 A 
ATOM     22  C   UNL     1       4.143   5.635  17.370  0.00  0.00    +0.000 A 
ATOM     23  C   UNL     1       5.110   6.794  17.303  0.00  0.00    +0.000 C 
ENDBRANCH  12  21
ENDBRANCH  11  13
ENDBRANCH  10  11
ENDBRANCH   1  10
BRANCH   3  24
ATOM     24  C   UNL     1      -1.628  13.247  20.987  0.00  0.00    +0.000 C 
BRANCH  24  25
ATOM     25  C   UNL     1      -1.940  12.787  22.403  0.00  0.00    +0.000 C 
ATOM     26  O   UNL     1      -1.074  12.397  23.186  0.00  0.00    +0.000 OA
ATOM     27  N   UNL     1      -3.275  12.815  22.775  0.00  0.00    +0.000 N 
ATOM     28  C   UNL     1      -4.420  13.201  21.973  0.00  0.00    +0.000 C 
ATOM     29  C   UNL     1      -5.447  13.628  23.007  0.00  0.00    +0.000 C 
ATOM     30  C   UNL     1      -5.187  12.685  24.177  0.00  0.00    +0.000 C 
ATOM     31  C   UNL     1      -3.693  12.375  24.096  0.00  0.00    +0.000 C 
ENDBRANCH  24  25
ENDBRANCH   3  24
TORSDOF 6
ENDMDL
MODEL 5
REMARK VINA RESULT:      -8.2      2.308      3.000
REMARK  Name = 
REMARK  8 active torsions:
REMARK  status: ('A' for Active; 'I' for Inactive)
REMARK    1  A    between atoms: C_1  and  C_2
REMARK    2  A    between atoms: C_6  and  N_7
REMARK    3  A    between atoms: C_8  and  C_10
REMARK    4  A    between atoms: C_10  and  S_11
REMARK    5  A    between atoms: S_11  and  C_12
REMARK    6  A    between atoms: N_14  and  C_15
REMARK    7  A    between atoms: C_15  and  C_16
REMARK    8  A    between atoms: C_29  and  C_30
REMARK                            x       y       z     vdW  Elec       q    Type
REMARK                         _______ _______ _______ _____ _____    ______ ____
ROOT
ATOM      1  C   UNL     1       3.412   6.136  17.635  0.00  0.00    +0.000 A 
ATOM      2  C   UNL     1       4.675   5.946  17.127  0.00  0.00    +0.000 A 
ATOM      3  N   UNL     1       4.902   4.589  17.056  0.00  0.00    +0.000 N 
ATOM      4  C   UNL     1       3.780   3.899  17.474  0.00  0.00    +0.000 A 
ATOM      5  C   UNL     1       3.519   2.521  17.578  0.00  0.00    +0.000 A 
ATOM      6  C   UNL     1       2.261   2.114  18.033  0.00  0.00    +0.000 A 
ATOM      7  C   UNL     1       1.290   3.046  18.379  0.00  0.00    +0.000 A 
ATOM      8  C   UNL     1       1.560   4.414  18.290  0.00  0.00    +0.000 A 
ATOM      9  C   UNL     1       2.821   4.855  17.833  0.00  0.00    +0.000 A 
ENDROOT
BRANCH   1  10
ATOM     10  S   UNL     1       2.636   7.651  18.044  0.00  0.00    +0.000 S 
BRANCH  10  11
ATOM     11  C   UNL     1       2.226   7.426  19.792  0.00  0.00    +0.000 C 
BRANCH  11  13
ATOM     12  N   UNL     1       0.963   9.462  19.296  0.00  0.00    +0.000 N 
ATOM     13  C   UNL     1       1.381   8.589  20.298  0.00  0.00    +0.000 C 
ATOM     14  O   UNL     1       1.078   8.644  21.488  0.00  0.00    +0.000 OA
ATOM     15  H   UNL     1       1.326   9.252  18.378  0.00  0.00    +0.000 HD
BRANCH  12  21
ATOM     16  C   UNL     1      -3.266  12.061  18.424  0.00  0.00    +0.000 C 
ATOM     17  C   UNL     1      -1.881  11.913  19.001  0.00  0.00    +0.000 A 
ATOM     18  C   UNL     1      -1.349  12.999  19.706  0.00  0.00    +0.000 A 
ATOM     19  C   UNL     1      -0.084  12.918  20.267  0.00  0.00    +0.000 A 
ATOM     20  C   UNL     1       0.663  11.750  20.133  0.00  0.00    +0.000 A 
ATOM     21  C   UNL     1       0.176  10.638  19.431  0.00  0.00    +0.000 A 
ATOM     22  C   UNL     1      -1.119  10.717  18.849  0.00  0.00    +0.000 A 
ATOM     23  C   UNL     1      -1.751   9.589  18.068  0.00  0.00    +0.000 C 
ENDBRANCH  12  21
ENDBRANCH  11  13
ENDBRANCH  10  11
ENDBRANCH   1  10
BRANCH   3  24
ATOM     24  C   UNL     1       6.120   3.988  16.518  0.00  0.00    +0.000 C 
BRANCH  24  25
ATOM     25  C   UNL     1       6.921   4.912  15.613  0.00  0.00    +0.000 C 
ATOM     26  O   UNL     1       7.617   5.831  16.043  0.00  0.00    +0.000 OA
ATOM     27  N   UNL     1       6.818   4.676  14.251  0.00  0.00    +0.000 N 
ATOM     28  C   UNL     1       6.017   3.673  13.575  0.00  0.00    +0.000 C 
ATOM     29  C   UNL     1       6.745   3.472  12.257  0.00  0.00    +0.000 C 
ATOM     30  C   UNL     1       7.279   4.863  11.930  0.00  0.00    +0.000 C 
ATOM     31  C   UNL     1       7.520   5.512  13.291  0.00  0.00    +0.000 C 
ENDBRANCH  24  25
ENDBRANCH   3  24
TORSDOF 6
ENDMDL
MODEL 6
REMARK VINA RESULT:      -8.2      2.183      2.680
REMARK  Name = 
REMARK  8 active torsions:
REMARK  status: ('A' for Active; 'I' for Inactive)
REMARK    1  A    between atoms: C_1  and  C_2
REMARK    2  A    between atoms: C_6  and  N_7
REMARK    3  A    between atoms: C_8  and  C_10
REMARK    4  A    between atoms: C_10  and  S_11
REMARK    5  A    between atoms: S_11  and  C_12
REMARK    6  A    between atoms: N_14  and  C_15
REMARK    7  A    between atoms: C_15  and  C_16
REMARK    8  A    between atoms: C_29  and  C_30
REMARK                            x       y       z     vdW  Elec       q    Type
REMARK                         _______ _______ _______ _____ _____    ______ ____
ROOT
ATOM      1  C   UNL     1       2.143   6.283  19.576  0.00  0.00    +0.000 A 
ATOM      2  C   UNL     1       3.013   6.454  18.527  0.00  0.00    +0.000 A 
ATOM      3  N   UNL     1       3.308   5.209  18.015  0.00  0.00    +0.000 N 
ATOM      4  C   UNL     1       2.601   4.237  18.698  0.00  0.00    +0.000 A 
ATOM      5  C   UNL     1       2.558   2.839  18.549  0.00  0.00    +0.000 A 
ATOM      6  C   UNL     1       1.723   2.105  19.397  0.00  0.00    +0.000 A 
ATOM      7  C   UNL     1       0.956   2.737  20.368  0.00  0.00    +0.000 A 
ATOM      8  C   UNL     1       1.015   4.125  20.523  0.00  0.00    +0.000 A 
ATOM      9  C   UNL     1       1.848   4.892  19.680  0.00  0.00    +0.000 A 
ENDROOT
BRANCH   1  10
ATOM     10  S   UNL     1       1.519   7.504  20.664  0.00  0.00    +0.000 S 
BRANCH  10  11
ATOM     11  C   UNL     1       1.454   8.975  19.612  0.00  0.00    +0.000 C 
BRANCH  11  13
ATOM     12  N   UNL     1       0.599  10.610  21.219  0.00  0.00    +0.000 N 
ATOM     13  C   UNL     1       0.325   9.899  20.053  0.00  0.00    +0.000 C 
ATOM     14  O   UNL     1      -0.679  10.006  19.351  0.00  0.00    +0.000 OA
ATOM     15  H   UNL     1       1.478  10.375  21.657  0.00  0.00    +0.000 HD
BRANCH  12  21
ATOM     16  C   UNL     1      -0.699  15.341  22.373  0.00  0.00    +0.000 C 
ATOM     17  C   UNL     1      -0.868  13.846  22.468  0.00  0.00    +0.000 A 
ATOM     18  C   UNL     1      -1.906  13.356  23.270  0.00  0.00    +0.000 A 
ATOM     19  C   UNL     1      -2.116  11.992  23.387  0.00  0.00    +0.000 A 
ATOM     20  C   UNL     1      -1.292  11.100  22.705  0.00  0.00    +0.000 A 
ATOM     21  C   UNL     1      -0.236  11.540  21.896  0.00  0.00    +0.000 A 
ATOM     22  C   UNL     1      -0.013  12.939  21.774  0.00  0.00    +0.000 A 
ATOM     23  C   UNL     1       1.093  13.537  20.935  0.00  0.00    +0.000 C 
ENDBRANCH  12  21
ENDBRANCH  11  13
ENDBRANCH  10  11
ENDBRANCH   1  10
BRANCH   3  24
ATOM     24  C   UNL     1       4.165   4.980  16.854  0.00  0.00    +0.000 C 
BRANCH  24  25
ATOM     25  C   UNL     1       5.217   6.057  16.638  0.00  0.00    +0.000 C 
ATOM     26  O   UNL     1       5.144   6.894  15.738  0.00  0.00    +0.000 OA
ATOM     27  N   UNL     1       6.293   6.045  17.511  0.00  0.00    +0.000 N 
ATOM     28  C   UNL     1       6.559   5.113  18.591  0.00  0.00    +0.000 C 
ATOM     29  C   UNL     1       7.448   5.909  19.531  0.00  0.00    +0.000 C 
ATOM     30  C   UNL     1       8.279   6.772  18.589  0.00  0.00    +0.000 C 
ATOM     31  C   UNL     1       7.372   7.012  17.384  0.00  0.00    +0.000 C 
ENDBRANCH  24  25
ENDBRANCH   3  24
TORSDOF 6
ENDMDL
MODEL 7
REMARK VINA RESULT:      -8.2      2.713      8.480
REMARK  Name = 
REMARK  8 active torsions:
REMARK  status: ('A' for Active; 'I' for Inactive)
REMARK    1  A    between atoms: C_1  and  C_2
REMARK    2  A    between atoms: C_6  and  N_7
REMARK    3  A    between atoms: C_8  and  C_10
REMARK    4  A    between atoms: C_10  and  S_11
REMARK    5  A    between atoms: S_11  and  C_12
REMARK    6  A    between atoms: N_14  and  C_15
REMARK    7  A    between atoms: C_15  and  C_16
REMARK    8  A    between atoms: C_29  and  C_30
REMARK                            x       y       z     vdW  Elec       q    Type
REMARK                         _______ _______ _______ _____ _____    ______ ____
ROOT
ATOM      1  C   UNL     1       4.945   5.041  18.851  0.00  0.00    +0.000 A 
ATOM      2  C   UNL     1       4.415   6.302  18.715  0.00  0.00    +0.000 A 
ATOM      3  N   UNL     1       3.076   6.168  18.419  0.00  0.00    +0.000 N 
ATOM      4  C   UNL     1       2.726   4.831  18.404  0.00  0.00    +0.000 A 
ATOM      5  C   UNL     1       1.497   4.193  18.161  0.00  0.00    +0.000 A 
ATOM      6  C   UNL     1       1.446   2.798  18.227  0.00  0.00    +0.000 A 
ATOM      7  C   UNL     1       2.583   2.054  18.521  0.00  0.00    +0.000 A 
ATOM      8  C   UNL     1       3.806   2.692  18.745  0.00  0.00    +0.000 A 
ATOM      9  C   UNL     1       3.887   4.100  18.687  0.00  0.00    +0.000 A 
ENDROOT
BRANCH   1  10
ATOM     10  S   UNL     1       6.618   4.601  19.117  0.00  0.00    +0.000 S 
BRANCH  10  11
ATOM     11  C   UNL     1       7.510   6.057  18.516  0.00  0.00    +0.000 C 
BRANCH  11  13
ATOM     12  N   UNL     1       7.402   5.067  16.280  0.00  0.00    +0.000 N 
ATOM     13  C   UNL     1       7.285   6.242  17.019  0.00  0.00    +0.000 C 
ATOM     14  O   UNL     1       6.964   7.347  16.588  0.00  0.00    +0.000 OA
ATOM     15  H   UNL     1       7.684   4.260  16.817  0.00  0.00    +0.000 HD
BRANCH  12  21
ATOM     16  C   UNL     1       4.972   3.174  12.290  0.00  0.00    +0.000 C 
ATOM     17  C   UNL     1       6.085   3.969  12.928  0.00  0.00    +0.000 A 
ATOM     18  C   UNL     1       7.025   4.568  12.081  0.00  0.00    +0.000 A 
ATOM     19  C   UNL     1       8.063   5.319  12.609  0.00  0.00    +0.000 A 
ATOM     20  C   UNL     1       8.174   5.482  13.988  0.00  0.00    +0.000 A 
ATOM     21  C   UNL     1       7.261   4.897  14.876  0.00  0.00    +0.000 A 
ATOM     22  C   UNL     1       6.196   4.122  14.341  0.00  0.00    +0.000 A 
ATOM     23  C   UNL     1       5.152   3.440  15.195  0.00  0.00    +0.000 C 
ENDBRANCH  12  21
ENDBRANCH  11  13
ENDBRANCH  10  11
ENDBRANCH   1  10
BRANCH   3  24
ATOM     24  C   UNL     1       2.157   7.291  18.251  0.00  0.00    +0.000 C 
BRANCH  24  25
ATOM     25  C   UNL     1       1.720   7.935  19.558  0.00  0.00    +0.000 C 
ATOM     26  O   UNL     1       1.765   7.351  20.640  0.00  0.00    +0.000 OA
ATOM     27  N   UNL     1       1.244   9.234  19.470  0.00  0.00    +0.000 N 
ATOM     28  C   UNL     1       1.083  10.050  18.282  0.00  0.00    +0.000 C 
ATOM     29  C   UNL     1       1.146  11.470  18.818  0.00  0.00    +0.000 C 
ATOM     30  C   UNL     1       0.474  11.364  20.183  0.00  0.00    +0.000 C 
ATOM     31  C   UNL     1       0.776   9.942  20.651  0.00  0.00    +0.000 C 
ENDBRANCH  24  25
ENDBRANCH   3  24
TORSDOF 6
ENDMDL
MODEL 8
REMARK VINA RESULT:      -8.1      2.052      2.544
REMARK  Name = 
REMARK  8 active torsions:
REMARK  status: ('A' for Active; 'I' for Inactive)
REMARK    1  A    between atoms: C_1  and  C_2
REMARK    2  A    between atoms: C_6  and  N_7
REMARK    3  A    between atoms: C_8  and  C_10
REMARK    4  A    between atoms: C_10  and  S_11
REMARK    5  A    between atoms: S_11  and  C_12
REMARK    6  A    between atoms: N_14  and  C_15
REMARK    7  A    between atoms: C_15  and  C_16
REMARK    8  A    between atoms: C_29  and  C_30
REMARK                            x       y       z     vdW  Elec       q    Type
REMARK                         _______ _______ _______ _____ _____    ______ ____
ROOT
ATOM      1  C   UNL     1       2.796   6.434  19.456  0.00  0.00    +0.000 A 
ATOM      2  C   UNL     1       3.791   6.352  18.511  0.00  0.00    +0.000 A 
ATOM      3  N   UNL     1       4.344   5.092  18.589  0.00  0.00    +0.000 N 
ATOM      4  C   UNL     1       3.687   4.345  19.548  0.00  0.00    +0.000 A 
ATOM      5  C   UNL     1       3.874   3.022  19.988  0.00  0.00    +0.000 A 
ATOM      6  C   UNL     1       3.031   2.527  20.987  0.00  0.00    +0.000 A 
ATOM      7  C   UNL     1       2.032   3.321  21.538  0.00  0.00    +0.000 A 
ATOM      8  C   UNL     1       1.861   4.640  21.109  0.00  0.00    +0.000 A 
ATOM      9  C   UNL     1       2.696   5.167  20.101  0.00  0.00    +0.000 A 
ENDROOT
BRANCH   1  10
ATOM     10  S   UNL     1       1.832   7.831  19.881  0.00  0.00    +0.000 S 
BRANCH  10  11
ATOM     11  C   UNL     1       2.154   8.967  18.509  0.00  0.00    +0.000 C 
BRANCH  11  13
ATOM     12  N   UNL     1      -0.085   9.825  18.993  0.00  0.00    +0.000 N 
ATOM     13  C   UNL     1       1.196  10.151  18.558  0.00  0.00    +0.000 C 
ATOM     14  O   UNL     1       1.613  11.277  18.289  0.00  0.00    +0.000 OA
ATOM     15  H   UNL     1      -0.235   8.840  19.157  0.00  0.00    +0.000 HD
BRANCH  12  21
ATOM     16  C   UNL     1      -4.483  11.668  17.359  0.00  0.00    +0.000 C 
ATOM     17  C   UNL     1      -3.347  11.594  18.348  0.00  0.00    +0.000 A 
ATOM     18  C   UNL     1      -3.407  12.425  19.473  0.00  0.00    +0.000 A 
ATOM     19  C   UNL     1      -2.397  12.393  20.422  0.00  0.00    +0.000 A 
ATOM     20  C   UNL     1      -1.315  11.532  20.258  0.00  0.00    +0.000 A 
ATOM     21  C   UNL     1      -1.206  10.686  19.144  0.00  0.00    +0.000 A 
ATOM     22  C   UNL     1      -2.237  10.716  18.166  0.00  0.00    +0.000 A 
ATOM     23  C   UNL     1      -2.232   9.856  16.924  0.00  0.00    +0.000 C 
ENDBRANCH  12  21
ENDBRANCH  11  13
ENDBRANCH  10  11
ENDBRANCH   1  10
BRANCH   3  24
ATOM     24  C   UNL     1       5.401   4.604  17.707  0.00  0.00    +0.000 C 
BRANCH  24  25
ATOM     25  C   UNL     1       4.900   4.074  16.372  0.00  0.00    +0.000 C 
ATOM     26  O   UNL     1       3.780   3.584  16.224  0.00  0.00    +0.000 OA
ATOM     27  N   UNL     1       5.786   4.156  15.309  0.00  0.00    +0.000 N 
ATOM     28  C   UNL     1       7.146   4.660  15.315  0.00  0.00    +0.000 C 
ATOM     29  C   UNL     1       7.372   5.080  13.872  0.00  0.00    +0.000 C 
ATOM     30  C   UNL     1       6.580   4.050  13.074  0.00  0.00    +0.000 C 
ATOM     31  C   UNL     1       5.424   3.658  13.992  0.00  0.00    +0.000 C 
ENDBRANCH  24  25
ENDBRANCH   3  24
TORSDOF 6
ENDMDL
MODEL 9
REMARK VINA RESULT:      -8.1      2.498      4.991
REMARK  Name = 
REMARK  8 active torsions:
REMARK  status: ('A' for Active; 'I' for Inactive)
REMARK    1  A    between atoms: C_1  and  C_2
REMARK    2  A    between atoms: C_6  and  N_7
REMARK    3  A    between atoms: C_8  and  C_10
REMARK    4  A    between atoms: C_10  and  S_11
REMARK    5  A    between atoms: S_11  and  C_12
REMARK    6  A    between atoms: N_14  and  C_15
REMARK    7  A    between atoms: C_15  and  C_16
REMARK    8  A    between atoms: C_29  and  C_30
REMARK                            x       y       z     vdW  Elec       q    Type
REMARK                         _______ _______ _______ _____ _____    ______ ____
ROOT
ATOM      1  C   UNL     1       4.214   5.982  17.305  0.00  0.00    +0.000 A 
ATOM      2  C   UNL     1       3.808   4.912  18.065  0.00  0.00    +0.000 A 
ATOM      3  N   UNL     1       4.272   3.764  17.459  0.00  0.00    +0.000 N 
ATOM      4  C   UNL     1       5.011   4.087  16.337  0.00  0.00    +0.000 A 
ATOM      5  C   UNL     1       5.685   3.281  15.402  0.00  0.00    +0.000 A 
ATOM      6  C   UNL     1       6.370   3.906  14.356  0.00  0.00    +0.000 A 
ATOM      7  C   UNL     1       6.384   5.291  14.236  0.00  0.00    +0.000 A 
ATOM      8  C   UNL     1       5.699   6.086  15.158  0.00  0.00    +0.000 A 
ATOM      9  C   UNL     1       4.999   5.483  16.226  0.00  0.00    +0.000 A 
ENDROOT
BRANCH   1  10
ATOM     10  S   UNL     1       3.820   7.672  17.534  0.00  0.00    +0.000 S 
BRANCH  10  11
ATOM     11  C   UNL     1       2.293   7.595  18.503  0.00  0.00    +0.000 C 
BRANCH  11  13
ATOM     12  N   UNL     1       0.652   9.059  19.576  0.00  0.00    +0.000 N 
ATOM     13  C   UNL     1       1.664   8.978  18.622  0.00  0.00    +0.000 C 
ATOM     14  O   UNL     1       2.112   9.906  17.951  0.00  0.00    +0.000 OA
ATOM     15  H   UNL     1       0.421   8.182  20.018  0.00  0.00    +0.000 HD
BRANCH  12  21
ATOM     16  C   UNL     1      -1.435  12.080  23.029  0.00  0.00    +0.000 C 
ATOM     17  C   UNL     1      -1.160  11.662  21.606  0.00  0.00    +0.000 A 
ATOM     18  C   UNL     1      -1.714  12.438  20.581  0.00  0.00    +0.000 A 
ATOM     19  C   UNL     1      -1.488  12.108  19.254  0.00  0.00    +0.000 A 
ATOM     20  C   UNL     1      -0.704  11.002  18.936  0.00  0.00    +0.000 A 
ATOM     21  C   UNL     1      -0.133  10.191  19.927  0.00  0.00    +0.000 A 
ATOM     22  C   UNL     1      -0.365  10.521  21.290  0.00  0.00    +0.000 A 
ATOM     23  C   UNL     1       0.192   9.724  22.446  0.00  0.00    +0.000 C 
ENDBRANCH  12  21
ENDBRANCH  11  13
ENDBRANCH  10  11
ENDBRANCH   1  10
BRANCH   3  24
ATOM     24  C   UNL     1       4.086   2.419  17.998  0.00  0.00    +0.000 C 
BRANCH  24  25
ATOM     25  C   UNL     1       4.064   2.357  19.518  0.00  0.00    +0.000 C 
ATOM     26  O   UNL     1       5.076   2.180  20.196  0.00  0.00    +0.000 OA
ATOM     27  N   UNL     1       2.822   2.499  20.118  0.00  0.00    +0.000 N 
ATOM     28  C   UNL     1       1.533   2.671  19.477  0.00  0.00    +0.000 C 
ATOM     29  C   UNL     1       0.702   3.371  20.539  0.00  0.00    +0.000 C 
ATOM     30  C   UNL     1       1.215   2.771  21.843  0.00  0.00    +0.000 C 
ATOM     31  C   UNL     1       2.677   2.433  21.563  0.00  0.00    +0.000 C 
ENDBRANCH  24  25
ENDBRANCH   3  24
TORSDOF 6
ENDMDL
