MODEL 1
REMARK VINA RESULT:      -7.4      0.000      0.000
REMARK  Name = 
REMARK  13 active torsions:
REMARK  status: ('A' for Active; 'I' for Inactive)
REMARK    1  A    between atoms: C_1  and  C_2
REMARK    2  A    between atoms: C_2  and  C_3
REMARK    3  A    between atoms: C_3  and  C_4
REMARK    4  A    between atoms: C_4  and  C_5
REMARK    5  A    between atoms: C_5  and  C_6
REMARK    6  A    between atoms: C_6  and  C_7
REMARK    7  A    between atoms: C_7  and  C_8
REMARK    8  A    between atoms: C_8  and  N_9
REMARK    9  A    between atoms: C_19  and  O_20
REMARK   10  A    between atoms: O_20  and  C_21
REMARK   11  A    between atoms: C_21  and  C_22
REMARK   12  A    between atoms: C_22  and  O_23
REMARK   13  A    between atoms: C_22  and  C_24
REMARK                            x       y       z     vdW  Elec       q    Type
REMARK                         _______ _______ _______ _____ _____    ______ ____
ROOT
ATOM      1  N   UNL     1       4.818   5.072  18.713  0.00  0.00    +0.000 N 
ATOM      2  C   UNL     1       5.410   5.081  17.462  0.00  0.00    +0.000 A 
ATOM      3  C   UNL     1       6.407   4.262  16.896  0.00  0.00    +0.000 A 
ATOM      4  C   UNL     1       6.770   4.484  15.561  0.00  0.00    +0.000 A 
ATOM      5  C   UNL     1       6.164   5.484  14.812  0.00  0.00    +0.000 A 
ATOM      6  C   UNL     1       5.186   6.302  15.386  0.00  0.00    +0.000 A 
ATOM      7  C   UNL     1       4.804   6.101  16.730  0.00  0.00    +0.000 A 
ATOM      8  C   UNL     1       3.861   6.746  17.587  0.00  0.00    +0.000 A 
ATOM      9  C   UNL     1       2.962   7.818  17.408  0.00  0.00    +0.000 A 
ATOM     10  C   UNL     1       2.118   8.206  18.456  0.00  0.00    +0.000 A 
ATOM     11  C   UNL     1       2.169   7.559  19.687  0.00  0.00    +0.000 A 
ATOM     12  C   UNL     1       3.081   6.516  19.891  0.00  0.00    +0.000 A 
ATOM     13  C   UNL     1       3.904   6.108  18.825  0.00  0.00    +0.000 A 
ENDROOT
BRANCH   1  14
ATOM     14  C   UNL     1       5.040   4.052  19.728  0.00  0.00    +0.000 C 
BRANCH  14  15
ATOM     15  C   UNL     1       4.269   2.751  19.490  0.00  0.00    +0.000 C 
BRANCH  15  16
ATOM     16  C   UNL     1       3.691   2.151  20.770  0.00  0.00    +0.000 C 
BRANCH  16  17
ATOM     17  C   UNL     1       2.748   3.142  21.448  0.00  0.00    +0.000 C 
BRANCH  17  18
ATOM     18  C   UNL     1       1.294   2.846  21.094  0.00  0.00    +0.000 C 
BRANCH  18  19
ATOM     19  C   UNL     1       0.793   3.811  20.023  0.00  0.00    +0.000 C 
BRANCH  19  21
ATOM     20  C   UNL     1       1.367   4.075  17.593  0.00  0.00    +0.000 C 
ATOM     21  C   UNL     1       0.782   3.151  18.648  0.00  0.00    +0.000 C 
ENDBRANCH  19  21
ENDBRANCH  18  19
ENDBRANCH  17  18
ENDBRANCH  16  17
ENDBRANCH  15  16
ENDBRANCH  14  15
ENDBRANCH   1  14
BRANCH  11  22
ATOM     22  O   UNL     1       1.373   7.831  20.768  0.00  0.00    +0.000 OA
BRANCH  22  23
ATOM     23  C   UNL     1       0.571   9.014  20.691  0.00  0.00    +0.000 C 
BRANCH  23  24
ATOM     24  C   UNL     1       0.821   9.865  21.934  0.00  0.00    +0.000 C 
BRANCH  24  25
ATOM     25  C   UNL     1      -0.239   9.612  23.021  0.00  0.00    +0.000 C 
ATOM     26  F   UNL     1      -1.025  10.683  23.262  0.00  0.00    +0.000 F 
ATOM     27  F   UNL     1      -1.059   8.598  22.652  0.00  0.00    +0.000 F 
ATOM     28  F   UNL     1       0.332   9.258  24.197  0.00  0.00    +0.000 F 
ENDBRANCH  24  25
BRANCH  24  29
ATOM     29  O   UNL     1       0.919  11.252  21.540  0.00  0.00    +0.000 OA
ATOM     30  H   UNL     1       1.846  11.520  21.703  0.00  0.00    +0.000 HD
ENDBRANCH  24  29
ENDBRANCH  23  24
ENDBRANCH  22  23
ENDBRANCH  11  22
TORSDOF 12
ENDMDL
MODEL 2
REMARK VINA RESULT:      -7.2      0.801      1.507
REMARK  Name = 
REMARK  13 active torsions:
REMARK  status: ('A' for Active; 'I' for Inactive)
REMARK    1  A    between atoms: C_1  and  C_2
REMARK    2  A    between atoms: C_2  and  C_3
REMARK    3  A    between atoms: C_3  and  C_4
REMARK    4  A    between atoms: C_4  and  C_5
REMARK    5  A    between atoms: C_5  and  C_6
REMARK    6  A    between atoms: C_6  and  C_7
REMARK    7  A    between atoms: C_7  and  C_8
REMARK    8  A    between atoms: C_8  and  N_9
REMARK    9  A    between atoms: C_19  and  O_20
REMARK   10  A    between atoms: O_20  and  C_21
REMARK   11  A    between atoms: C_21  and  C_22
REMARK   12  A    between atoms: C_22  and  O_23
REMARK   13  A    between atoms: C_22  and  C_24
REMARK                            x       y       z     vdW  Elec       q    Type
REMARK                         _______ _______ _______ _____ _____    ______ ____
ROOT
ATOM      1  N   UNL     1       4.409   4.698  18.500  0.00  0.00    +0.000 N 
ATOM      2  C   UNL     1       5.088   4.769  17.297  0.00  0.00    +0.000 A 
ATOM      3  C   UNL     1       5.983   3.874  16.677  0.00  0.00    +0.000 A 
ATOM      4  C   UNL     1       6.477   4.201  15.408  0.00  0.00    +0.000 A 
ATOM      5  C   UNL     1       6.098   5.378  14.775  0.00  0.00    +0.000 A 
ATOM      6  C   UNL     1       5.222   6.267  15.403  0.00  0.00    +0.000 A 
ATOM      7  C   UNL     1       4.711   5.962  16.683  0.00  0.00    +0.000 A 
ATOM      8  C   UNL     1       3.819   6.641  17.569  0.00  0.00    +0.000 A 
ATOM      9  C   UNL     1       3.120   7.863  17.493  0.00  0.00    +0.000 A 
ATOM     10  C   UNL     1       2.270   8.249  18.537  0.00  0.00    +0.000 A 
ATOM     11  C   UNL     1       2.123   7.449  19.666  0.00  0.00    +0.000 A 
ATOM     12  C   UNL     1       2.838   6.250  19.772  0.00  0.00    +0.000 A 
ATOM     13  C   UNL     1       3.666   5.851  18.706  0.00  0.00    +0.000 A 
ENDROOT
BRANCH   1  14
ATOM     14  C   UNL     1       4.387   3.533  19.373  0.00  0.00    +0.000 C 
BRANCH  14  15
ATOM     15  C   UNL     1       4.023   2.225  18.667  0.00  0.00    +0.000 C 
BRANCH  15  16
ATOM     16  C   UNL     1       2.773   2.337  17.796  0.00  0.00    +0.000 C 
BRANCH  16  17
ATOM     17  C   UNL     1       1.529   1.956  18.595  0.00  0.00    +0.000 C 
BRANCH  17  18
ATOM     18  C   UNL     1       0.589   3.148  18.748  0.00  0.00    +0.000 C 
BRANCH  18  19
ATOM     19  C   UNL     1       0.680   3.729  20.156  0.00  0.00    +0.000 C 
BRANCH  19  21
ATOM     20  C   UNL     1       2.282   3.223  22.023  0.00  0.00    +0.000 C 
ATOM     21  C   UNL     1       1.158   2.681  21.156  0.00  0.00    +0.000 C 
ENDBRANCH  19  21
ENDBRANCH  18  19
ENDBRANCH  17  18
ENDBRANCH  16  17
ENDBRANCH  15  16
ENDBRANCH  14  15
ENDBRANCH   1  14
BRANCH  11  22
ATOM     22  O   UNL     1       1.300   7.710  20.731  0.00  0.00    +0.000 OA
BRANCH  22  23
ATOM     23  C   UNL     1       1.652   8.826  21.553  0.00  0.00    +0.000 C 
BRANCH  23  24
ATOM     24  C   UNL     1       0.470   9.791  21.614  0.00  0.00    +0.000 C 
BRANCH  24  25
ATOM     25  C   UNL     1      -0.366   9.590  22.889  0.00  0.00    +0.000 C 
ATOM     26  F   UNL     1      -1.208  10.614  23.145  0.00  0.00    +0.000 F 
ATOM     27  F   UNL     1      -1.127   8.473  22.783  0.00  0.00    +0.000 F 
ATOM     28  F   UNL     1       0.422   9.434  23.980  0.00  0.00    +0.000 F 
ENDBRANCH  24  25
BRANCH  24  29
ATOM     29  O   UNL     1      -0.300   9.666  20.397  0.00  0.00    +0.000 OA
ATOM     30  H   UNL     1      -0.134   8.764  20.057  0.00  0.00    +0.000 HD
ENDBRANCH  24  29
ENDBRANCH  23  24
ENDBRANCH  22  23
ENDBRANCH  11  22
TORSDOF 12
ENDMDL
MODEL 3
REMARK VINA RESULT:      -7.1      1.649      2.568
REMARK  Name = 
REMARK  13 active torsions:
REMARK  status: ('A' for Active; 'I' for Inactive)
REMARK    1  A    between atoms: C_1  and  C_2
REMARK    2  A    between atoms: C_2  and  C_3
REMARK    3  A    between atoms: C_3  and  C_4
REMARK    4  A    between atoms: C_4  and  C_5
REMARK    5  A    between atoms: C_5  and  C_6
REMARK    6  A    between atoms: C_6  and  C_7
REMARK    7  A    between atoms: C_7  and  C_8
REMARK    8  A    between atoms: C_8  and  N_9
REMARK    9  A    between atoms: C_19  and  O_20
REMARK   10  A    between atoms: O_20  and  C_21
REMARK   11  A    between atoms: C_21  and  C_22
REMARK   12  A    between atoms: C_22  and  O_23
REMARK   13  A    between atoms: C_22  and  C_24
REMARK                            x       y       z     vdW  Elec       q    Type
REMARK                         _______ _______ _______ _____ _____    ______ ____
ROOT
ATOM      1  N   UNL     1       3.068   6.100  19.999  0.00  0.00    +0.000 N 
ATOM      2  C   UNL     1       4.021   5.776  19.050  0.00  0.00    +0.000 A 
ATOM      3  C   UNL     1       4.969   4.735  18.997  0.00  0.00    +0.000 A 
ATOM      4  C   UNL     1       5.778   4.630  17.858  0.00  0.00    +0.000 A 
ATOM      5  C   UNL     1       5.650   5.527  16.805  0.00  0.00    +0.000 A 
ATOM      6  C   UNL     1       4.717   6.566  16.872  0.00  0.00    +0.000 A 
ATOM      7  C   UNL     1       3.891   6.695  18.009  0.00  0.00    +0.000 A 
ATOM      8  C   UNL     1       2.865   7.619  18.375  0.00  0.00    +0.000 A 
ATOM      9  C   UNL     1       2.297   8.740  17.736  0.00  0.00    +0.000 A 
ATOM     10  C   UNL     1       1.251   9.441  18.351  0.00  0.00    +0.000 A 
ATOM     11  C   UNL     1       0.778   9.058  19.602  0.00  0.00    +0.000 A 
ATOM     12  C   UNL     1       1.356   7.968  20.265  0.00  0.00    +0.000 A 
ATOM     13  C   UNL     1       2.384   7.248  19.628  0.00  0.00    +0.000 A 
ENDROOT
BRANCH   1  14
ATOM     14  C   UNL     1       2.750   5.288  21.165  0.00  0.00    +0.000 C 
BRANCH  14  15
ATOM     15  C   UNL     1       2.171   3.911  20.834  0.00  0.00    +0.000 C 
BRANCH  15  16
ATOM     16  C   UNL     1       0.762   3.974  20.250  0.00  0.00    +0.000 C 
BRANCH  16  17
ATOM     17  C   UNL     1       0.689   3.189  18.942  0.00  0.00    +0.000 C 
BRANCH  17  18
ATOM     18  C   UNL     1       1.359   3.954  17.805  0.00  0.00    +0.000 C 
BRANCH  18  19
ATOM     19  C   UNL     1       2.489   3.131  17.193  0.00  0.00    +0.000 C 
BRANCH  19  21
ATOM     20  C   UNL     1       3.833   1.432  18.463  0.00  0.00    +0.000 C 
ATOM     21  C   UNL     1       2.514   1.718  17.766  0.00  0.00    +0.000 C 
ENDBRANCH  19  21
ENDBRANCH  18  19
ENDBRANCH  17  18
ENDBRANCH  16  17
ENDBRANCH  15  16
ENDBRANCH  14  15
ENDBRANCH   1  14
BRANCH  11  22
ATOM     22  O   UNL     1      -0.256   9.647  20.282  0.00  0.00    +0.000 OA
BRANCH  22  23
ATOM     23  C   UNL     1       0.096  10.662  21.227  0.00  0.00    +0.000 C 
BRANCH  23  24
ATOM     24  C   UNL     1      -0.741  10.476  22.490  0.00  0.00    +0.000 C 
BRANCH  24  25
ATOM     25  C   UNL     1      -1.608  11.711  22.787  0.00  0.00    +0.000 C 
ATOM     26  F   UNL     1      -2.140  12.271  21.679  0.00  0.00    +0.000 F 
ATOM     27  F   UNL     1      -2.644  11.378  23.595  0.00  0.00    +0.000 F 
ATOM     28  F   UNL     1      -0.899  12.674  23.423  0.00  0.00    +0.000 F 
ENDBRANCH  24  25
BRANCH  24  29
ATOM     29  O   UNL     1       0.133  10.112  23.582  0.00  0.00    +0.000 OA
ATOM     30  H   UNL     1       0.644  10.916  23.807  0.00  0.00    +0.000 HD
ENDBRANCH  24  29
ENDBRANCH  23  24
ENDBRANCH  22  23
ENDBRANCH  11  22
TORSDOF 12
ENDMDL
MODEL 4
REMARK VINA RESULT:      -7.1      0.649      1.566
REMARK  Name = 
REMARK  13 active torsions:
REMARK  status: ('A' for Active; 'I' for Inactive)
REMARK    1  A    between atoms: C_1  and  C_2
REMARK    2  A    between atoms: C_2  and  C_3
REMARK    3  A    between atoms: C_3  and  C_4
REMARK    4  A    between atoms: C_4  and  C_5
REMARK    5  A    between atoms: C_5  and  C_6
REMARK    6  A    between atoms: C_6  and  C_7
REMARK    7  A    between atoms: C_7  and  C_8
REMARK    8  A    between atoms: C_8  and  N_9
REMARK    9  A    between atoms: C_19  and  O_20
REMARK   10  A    between atoms: O_20  and  C_21
REMARK   11  A    between atoms: C_21  and  C_22
REMARK   12  A    between atoms: C_22  and  O_23
REMARK   13  A    between atoms: C_22  and  C_24
REMARK                            x       y       z     vdW  Elec       q    Type
REMARK                         _______ _______ _______ _____ _____    ______ ____
ROOT
ATOM      1  N   UNL     1       5.042   4.880  18.397  0.00  0.00    +0.000 N 
ATOM      2  C   UNL     1       5.598   4.889  17.130  0.00  0.00    +0.000 A 
ATOM      3  C   UNL     1       6.576   4.068  16.534  0.00  0.00    +0.000 A 
ATOM      4  C   UNL     1       6.901   4.290  15.190  0.00  0.00    +0.000 A 
ATOM      5  C   UNL     1       6.278   5.294  14.460  0.00  0.00    +0.000 A 
ATOM      6  C   UNL     1       5.320   6.114  15.062  0.00  0.00    +0.000 A 
ATOM      7  C   UNL     1       4.975   5.912  16.416  0.00  0.00    +0.000 A 
ATOM      8  C   UNL     1       4.058   6.559  17.301  0.00  0.00    +0.000 A 
ATOM      9  C   UNL     1       3.159   7.634  17.148  0.00  0.00    +0.000 A 
ATOM     10  C   UNL     1       2.346   8.023  18.221  0.00  0.00    +0.000 A 
ATOM     11  C   UNL     1       2.430   7.374  19.448  0.00  0.00    +0.000 A 
ATOM     12  C   UNL     1       3.343   6.328  19.625  0.00  0.00    +0.000 A 
ATOM     13  C   UNL     1       4.135   5.919  18.536  0.00  0.00    +0.000 A 
ENDROOT
BRANCH   1  14
ATOM     14  C   UNL     1       5.289   3.858  19.403  0.00  0.00    +0.000 C 
BRANCH  14  15
ATOM     15  C   UNL     1       4.269   2.717  19.404  0.00  0.00    +0.000 C 
BRANCH  15  16
ATOM     16  C   UNL     1       3.737   2.383  18.012  0.00  0.00    +0.000 C 
BRANCH  16  17
ATOM     17  C   UNL     1       2.226   2.170  18.054  0.00  0.00    +0.000 C 
BRANCH  17  18
ATOM     18  C   UNL     1       1.483   3.502  18.047  0.00  0.00    +0.000 C 
BRANCH  18  19
ATOM     19  C   UNL     1       1.075   3.899  19.463  0.00  0.00    +0.000 C 
BRANCH  19  21
ATOM     20  C   UNL     1       1.452   2.731  21.653  0.00  0.00    +0.000 C 
ATOM     21  C   UNL     1       0.749   2.672  20.308  0.00  0.00    +0.000 C 
ENDBRANCH  19  21
ENDBRANCH  18  19
ENDBRANCH  17  18
ENDBRANCH  16  17
ENDBRANCH  15  16
ENDBRANCH  14  15
ENDBRANCH   1  14
BRANCH  11  22
ATOM     22  O   UNL     1       1.665   7.648  20.552  0.00  0.00    +0.000 OA
BRANCH  22  23
ATOM     23  C   UNL     1       0.910   8.863  20.523  0.00  0.00    +0.000 C 
BRANCH  23  24
ATOM     24  C   UNL     1       1.057   9.572  21.867  0.00  0.00    +0.000 C 
BRANCH  24  25
ATOM     25  C   UNL     1      -0.193   9.395  22.745  0.00  0.00    +0.000 C 
ATOM     26  F   UNL     1      -0.921   8.303  22.427  0.00  0.00    +0.000 F 
ATOM     27  F   UNL     1       0.159   9.266  24.048  0.00  0.00    +0.000 F 
ATOM     28  F   UNL     1      -1.016  10.467  22.658  0.00  0.00    +0.000 F 
ENDBRANCH  24  25
BRANCH  24  29
ATOM     29  O   UNL     1       1.403  10.956  21.632  0.00  0.00    +0.000 OA
ATOM     30  H   UNL     1       2.344  11.051  21.880  0.00  0.00    +0.000 HD
ENDBRANCH  24  29
ENDBRANCH  23  24
ENDBRANCH  22  23
ENDBRANCH  11  22
TORSDOF 12
ENDMDL
MODEL 5
REMARK VINA RESULT:      -6.9      1.576      2.563
REMARK  Name = 
REMARK  13 active torsions:
REMARK  status: ('A' for Active; 'I' for Inactive)
REMARK    1  A    between atoms: C_1  and  C_2
REMARK    2  A    between atoms: C_2  and  C_3
REMARK    3  A    between atoms: C_3  and  C_4
REMARK    4  A    between atoms: C_4  and  C_5
REMARK    5  A    between atoms: C_5  and  C_6
REMARK    6  A    between atoms: C_6  and  C_7
REMARK    7  A    between atoms: C_7  and  C_8
REMARK    8  A    between atoms: C_8  and  N_9
REMARK    9  A    between atoms: C_19  and  O_20
REMARK   10  A    between atoms: O_20  and  C_21
REMARK   11  A    between atoms: C_21  and  C_22
REMARK   12  A    between atoms: C_22  and  O_23
REMARK   13  A    between atoms: C_22  and  C_24
REMARK                            x       y       z     vdW  Elec       q    Type
REMARK                         _______ _______ _______ _____ _____    ______ ____
ROOT
ATOM      1  N   UNL     1       2.712   6.396  19.929  0.00  0.00    +0.000 N 
ATOM      2  C   UNL     1       3.730   6.046  19.058  0.00  0.00    +0.000 A 
ATOM      3  C   UNL     1       4.638   4.969  19.070  0.00  0.00    +0.000 A 
ATOM      4  C   UNL     1       5.537   4.847  18.002  0.00  0.00    +0.000 A 
ATOM      5  C   UNL     1       5.534   5.762  16.957  0.00  0.00    +0.000 A 
ATOM      6  C   UNL     1       4.640   6.836  16.961  0.00  0.00    +0.000 A 
ATOM      7  C   UNL     1       3.726   6.983  18.026  0.00  0.00    +0.000 A 
ATOM      8  C   UNL     1       2.709   7.944  18.318  0.00  0.00    +0.000 A 
ATOM      9  C   UNL     1       2.242   9.095  17.651  0.00  0.00    +0.000 A 
ATOM     10  C   UNL     1       1.175   9.829  18.186  0.00  0.00    +0.000 A 
ATOM     11  C   UNL     1       0.582   9.449  19.386  0.00  0.00    +0.000 A 
ATOM     12  C   UNL     1       1.059   8.329  20.078  0.00  0.00    +0.000 A 
ATOM     13  C   UNL     1       2.109   7.575  19.520  0.00  0.00    +0.000 A 
ENDROOT
BRANCH   1  14
ATOM     14  C   UNL     1       2.265   5.583  21.050  0.00  0.00    +0.000 C 
BRANCH  14  15
ATOM     15  C   UNL     1       1.234   4.514  20.680  0.00  0.00    +0.000 C 
BRANCH  15  16
ATOM     16  C   UNL     1       1.492   3.169  21.354  0.00  0.00    +0.000 C 
BRANCH  16  17
ATOM     17  C   UNL     1       2.416   2.309  20.496  0.00  0.00    +0.000 C 
BRANCH  17  18
ATOM     18  C   UNL     1       1.802   2.040  19.126  0.00  0.00    +0.000 C 
BRANCH  18  19
ATOM     19  C   UNL     1       2.862   2.129  18.032  0.00  0.00    +0.000 C 
BRANCH  19  21
ATOM     20  C   UNL     1       1.398   4.088  17.465  0.00  0.00    +0.000 C 
ATOM     21  C   UNL     1       2.458   3.129  16.953  0.00  0.00    +0.000 C 
ENDBRANCH  19  21
ENDBRANCH  18  19
ENDBRANCH  17  18
ENDBRANCH  16  17
ENDBRANCH  15  16
ENDBRANCH  14  15
ENDBRANCH   1  14
BRANCH  11  22
ATOM     22  O   UNL     1      -0.482  10.071  19.985  0.00  0.00    +0.000 OA
BRANCH  22  23
ATOM     23  C   UNL     1      -0.362  11.480  20.200  0.00  0.00    +0.000 C 
BRANCH  23  24
ATOM     24  C   UNL     1       0.089  11.727  21.637  0.00  0.00    +0.000 C 
BRANCH  24  25
ATOM     25  C   UNL     1      -1.097  11.725  22.616  0.00  0.00    +0.000 C 
ATOM     26  F   UNL     1      -1.160  10.613  23.379  0.00  0.00    +0.000 F 
ATOM     27  F   UNL     1      -1.011  12.779  23.464  0.00  0.00    +0.000 F 
ATOM     28  F   UNL     1      -2.279  11.833  21.963  0.00  0.00    +0.000 F 
ENDBRANCH  24  25
BRANCH  24  29
ATOM     29  O   UNL     1       0.868  12.945  21.681  0.00  0.00    +0.000 OA
ATOM     30  H   UNL     1       1.747  12.724  21.312  0.00  0.00    +0.000 HD
ENDBRANCH  24  29
ENDBRANCH  23  24
ENDBRANCH  22  23
ENDBRANCH  11  22
TORSDOF 12
ENDMDL
MODEL 6
REMARK VINA RESULT:      -6.9      1.333      1.980
REMARK  Name = 
REMARK  13 active torsions:
REMARK  status: ('A' for Active; 'I' for Inactive)
REMARK    1  A    between atoms: C_1  and  C_2
REMARK    2  A    between atoms: C_2  and  C_3
REMARK    3  A    between atoms: C_3  and  C_4
REMARK    4  A    between atoms: C_4  and  C_5
REMARK    5  A    between atoms: C_5  and  C_6
REMARK    6  A    between atoms: C_6  and  C_7
REMARK    7  A    between atoms: C_7  and  C_8
REMARK    8  A    between atoms: C_8  and  N_9
REMARK    9  A    between atoms: C_19  and  O_20
REMARK   10  A    between atoms: O_20  and  C_21
REMARK   11  A    between atoms: C_21  and  C_22
REMARK   12  A    between atoms: C_22  and  O_23
REMARK   13  A    between atoms: C_22  and  C_24
REMARK                            x       y       z     vdW  Elec       q    Type
REMARK                         _______ _______ _______ _____ _____    ______ ____
ROOT
ATOM      1  N   UNL     1       4.527   4.657  18.543  0.00  0.00    +0.000 N 
ATOM      2  C   UNL     1       5.144   4.782  17.311  0.00  0.00    +0.000 A 
ATOM      3  C   UNL     1       6.041   3.938  16.626  0.00  0.00    +0.000 A 
ATOM      4  C   UNL     1       6.461   4.315  15.344  0.00  0.00    +0.000 A 
ATOM      5  C   UNL     1       6.005   5.489  14.758  0.00  0.00    +0.000 A 
ATOM      6  C   UNL     1       5.127   6.328  15.450  0.00  0.00    +0.000 A 
ATOM      7  C   UNL     1       4.691   5.973  16.745  0.00  0.00    +0.000 A 
ATOM      8  C   UNL     1       3.817   6.594  17.689  0.00  0.00    +0.000 A 
ATOM      9  C   UNL     1       3.067   7.789  17.676  0.00  0.00    +0.000 A 
ATOM     10  C   UNL     1       2.254   8.116  18.769  0.00  0.00    +0.000 A 
ATOM     11  C   UNL     1       2.194   7.286  19.884  0.00  0.00    +0.000 A 
ATOM     12  C   UNL     1       2.961   6.114  19.926  0.00  0.00    +0.000 A 
ATOM     13  C   UNL     1       3.750   5.773  18.812  0.00  0.00    +0.000 A 
ENDROOT
BRANCH   1  14
ATOM     14  C   UNL     1       4.593   3.472  19.387  0.00  0.00    +0.000 C 
BRANCH  14  15
ATOM     15  C   UNL     1       4.061   2.199  18.725  0.00  0.00    +0.000 C 
BRANCH  15  16
ATOM     16  C   UNL     1       2.820   2.438  17.868  0.00  0.00    +0.000 C 
BRANCH  16  17
ATOM     17  C   UNL     1       1.574   1.903  18.569  0.00  0.00    +0.000 C 
BRANCH  17  18
ATOM     18  C   UNL     1       0.542   3.008  18.772  0.00  0.00    +0.000 C 
BRANCH  18  19
ATOM     19  C   UNL     1       0.759   3.710  20.110  0.00  0.00    +0.000 C 
BRANCH  19  21
ATOM     20  C   UNL     1       2.298   3.234  22.037  0.00  0.00    +0.000 C 
ATOM     21  C   UNL     1       1.143   2.713  21.199  0.00  0.00    +0.000 C 
ENDBRANCH  19  21
ENDBRANCH  18  19
ENDBRANCH  17  18
ENDBRANCH  16  17
ENDBRANCH  15  16
ENDBRANCH  14  15
ENDBRANCH   1  14
BRANCH  11  22
ATOM     22  O   UNL     1       1.414   7.488  20.993  0.00  0.00    +0.000 OA
BRANCH  22  23
ATOM     23  C   UNL     1       0.285   8.352  20.831  0.00  0.00    +0.000 C 
BRANCH  23  24
ATOM     24  C   UNL     1       0.477   9.589  21.706  0.00  0.00    +0.000 C 
BRANCH  24  25
ATOM     25  C   UNL     1       0.401  10.887  20.883  0.00  0.00    +0.000 C 
ATOM     26  F   UNL     1       0.298  10.673  19.554  0.00  0.00    +0.000 F 
ATOM     27  F   UNL     1      -0.682  11.615  21.250  0.00  0.00    +0.000 F 
ATOM     28  F   UNL     1       1.492  11.664  21.083  0.00  0.00    +0.000 F 
ENDBRANCH  24  25
BRANCH  24  29
ATOM     29  O   UNL     1       1.709   9.451  22.449  0.00  0.00    +0.000 OA
ATOM     30  H   UNL     1       1.830   8.493  22.606  0.00  0.00    +0.000 HD
ENDBRANCH  24  29
ENDBRANCH  23  24
ENDBRANCH  22  23
ENDBRANCH  11  22
TORSDOF 12
ENDMDL
MODEL 7
REMARK VINA RESULT:      -6.9      1.306      1.972
REMARK  Name = 
REMARK  13 active torsions:
REMARK  status: ('A' for Active; 'I' for Inactive)
REMARK    1  A    between atoms: C_1  and  C_2
REMARK    2  A    between atoms: C_2  and  C_3
REMARK    3  A    between atoms: C_3  and  C_4
REMARK    4  A    between atoms: C_4  and  C_5
REMARK    5  A    between atoms: C_5  and  C_6
REMARK    6  A    between atoms: C_6  and  C_7
REMARK    7  A    between atoms: C_7  and  C_8
REMARK    8  A    between atoms: C_8  and  N_9
REMARK    9  A    between atoms: C_19  and  O_20
REMARK   10  A    between atoms: O_20  and  C_21
REMARK   11  A    between atoms: C_21  and  C_22
REMARK   12  A    between atoms: C_22  and  O_23
REMARK   13  A    between atoms: C_22  and  C_24
REMARK                            x       y       z     vdW  Elec       q    Type
REMARK                         _______ _______ _______ _____ _____    ______ ____
ROOT
ATOM      1  N   UNL     1       4.487   4.661  18.495  0.00  0.00    +0.000 N 
ATOM      2  C   UNL     1       5.139   4.805  17.284  0.00  0.00    +0.000 A 
ATOM      3  C   UNL     1       6.049   3.967  16.608  0.00  0.00    +0.000 A 
ATOM      4  C   UNL     1       6.507   4.365  15.346  0.00  0.00    +0.000 A 
ATOM      5  C   UNL     1       6.078   5.555  14.772  0.00  0.00    +0.000 A 
ATOM      6  C   UNL     1       5.188   6.387  15.455  0.00  0.00    +0.000 A 
ATOM      7  C   UNL     1       4.712   6.011  16.729  0.00  0.00    +0.000 A 
ATOM      8  C   UNL     1       3.817   6.621  17.661  0.00  0.00    +0.000 A 
ATOM      9  C   UNL     1       3.078   7.822  17.651  0.00  0.00    +0.000 A 
ATOM     10  C   UNL     1       2.237   8.135  18.727  0.00  0.00    +0.000 A 
ATOM     11  C   UNL     1       2.139   7.283  19.823  0.00  0.00    +0.000 A 
ATOM     12  C   UNL     1       2.894   6.104  19.863  0.00  0.00    +0.000 A 
ATOM     13  C   UNL     1       3.712   5.778  18.765  0.00  0.00    +0.000 A 
ENDROOT
BRANCH   1  14
ATOM     14  C   UNL     1       4.519   3.459  19.316  0.00  0.00    +0.000 C 
BRANCH  14  15
ATOM     15  C   UNL     1       4.186   2.171  18.559  0.00  0.00    +0.000 C 
BRANCH  15  16
ATOM     16  C   UNL     1       2.811   2.199  17.897  0.00  0.00    +0.000 C 
BRANCH  16  17
ATOM     17  C   UNL     1       1.715   1.933  18.926  0.00  0.00    +0.000 C 
BRANCH  17  18
ATOM     18  C   UNL     1       0.716   3.084  18.974  0.00  0.00    +0.000 C 
BRANCH  18  19
ATOM     19  C   UNL     1       0.702   3.729  20.357  0.00  0.00    +0.000 C 
BRANCH  19  21
ATOM     20  C   UNL     1       1.124   2.280  22.364  0.00  0.00    +0.000 C 
ATOM     21  C   UNL     1       1.762   3.112  21.264  0.00  0.00    +0.000 C 
ENDBRANCH  19  21
ENDBRANCH  18  19
ENDBRANCH  17  18
ENDBRANCH  16  17
ENDBRANCH  15  16
ENDBRANCH  14  15
ENDBRANCH   1  14
BRANCH  11  22
ATOM     22  O   UNL     1       1.329   7.471  20.913  0.00  0.00    +0.000 OA
BRANCH  22  23
ATOM     23  C   UNL     1       1.559   8.654  21.684  0.00  0.00    +0.000 C 
BRANCH  23  24
ATOM     24  C   UNL     1       0.218   9.326  21.973  0.00  0.00    +0.000 C 
BRANCH  24  25
ATOM     25  C   UNL     1      -0.199  10.278  20.839  0.00  0.00    +0.000 C 
ATOM     26  F   UNL     1      -0.973  11.302  21.258  0.00  0.00    +0.000 F 
ATOM     27  F   UNL     1       0.896  10.826  20.257  0.00  0.00    +0.000 F 
ATOM     28  F   UNL     1      -0.883   9.625  19.870  0.00  0.00    +0.000 F 
ENDBRANCH  24  25
BRANCH  24  29
ATOM     29  O   UNL     1       0.286   9.968  23.267  0.00  0.00    +0.000 OA
ATOM     30  H   UNL     1       0.890  10.730  23.165  0.00  0.00    +0.000 HD
ENDBRANCH  24  29
ENDBRANCH  23  24
ENDBRANCH  22  23
ENDBRANCH  11  22
TORSDOF 12
ENDMDL
MODEL 8
REMARK VINA RESULT:      -6.8      0.526      1.011
REMARK  Name = 
REMARK  13 active torsions:
REMARK  status: ('A' for Active; 'I' for Inactive)
REMARK    1  A    between atoms: C_1  and  C_2
REMARK    2  A    between atoms: C_2  and  C_3
REMARK    3  A    between atoms: C_3  and  C_4
REMARK    4  A    between atoms: C_4  and  C_5
REMARK    5  A    between atoms: C_5  and  C_6
REMARK    6  A    between atoms: C_6  and  C_7
REMARK    7  A    between atoms: C_7  and  C_8
REMARK    8  A    between atoms: C_8  and  N_9
REMARK    9  A    between atoms: C_19  and  O_20
REMARK   10  A    between atoms: O_20  and  C_21
REMARK   11  A    between atoms: C_21  and  C_22
REMARK   12  A    between atoms: C_22  and  O_23
REMARK   13  A    between atoms: C_22  and  C_24
REMARK                            x       y       z     vdW  Elec       q    Type
REMARK                         _______ _______ _______ _____ _____    ______ ____
ROOT
ATOM      1  N   UNL     1       4.887   5.136  18.752  0.00  0.00    +0.000 N 
ATOM      2  C   UNL     1       5.472   5.092  17.499  0.00  0.00    +0.000 A 
ATOM      3  C   UNL     1       6.484   4.266  16.971  0.00  0.00    +0.000 A 
ATOM      4  C   UNL     1       6.835   4.425  15.624  0.00  0.00    +0.000 A 
ATOM      5  C   UNL     1       6.203   5.370  14.827  0.00  0.00    +0.000 A 
ATOM      6  C   UNL     1       5.211   6.196  15.362  0.00  0.00    +0.000 A 
ATOM      7  C   UNL     1       4.840   6.058  16.718  0.00  0.00    +0.000 A 
ATOM      8  C   UNL     1       3.887   6.727  17.545  0.00  0.00    +0.000 A 
ATOM      9  C   UNL     1       2.964   7.768  17.315  0.00  0.00    +0.000 A 
ATOM     10  C   UNL     1       2.116   8.192  18.346  0.00  0.00    +0.000 A 
ATOM     11  C   UNL     1       2.189   7.613  19.609  0.00  0.00    +0.000 A 
ATOM     12  C   UNL     1       3.124   6.603  19.863  0.00  0.00    +0.000 A 
ATOM     13  C   UNL     1       3.951   6.157  18.814  0.00  0.00    +0.000 A 
ENDROOT
BRANCH   1  14
ATOM     14  C   UNL     1       5.137   4.177  19.818  0.00  0.00    +0.000 C 
BRANCH  14  15
ATOM     15  C   UNL     1       4.330   2.882  19.700  0.00  0.00    +0.000 C 
BRANCH  15  16
ATOM     16  C   UNL     1       3.041   2.898  20.518  0.00  0.00    +0.000 C 
BRANCH  16  17
ATOM     17  C   UNL     1       2.091   1.802  20.040  0.00  0.00    +0.000 C 
BRANCH  17  18
ATOM     18  C   UNL     1       0.983   2.379  19.165  0.00  0.00    +0.000 C 
BRANCH  18  19
ATOM     19  C   UNL     1       1.165   3.884  18.986  0.00  0.00    +0.000 C 
BRANCH  19  21
ATOM     20  C   UNL     1       2.365   3.353  16.845  0.00  0.00    +0.000 C 
ATOM     21  C   UNL     1       1.336   4.248  17.515  0.00  0.00    +0.000 C 
ENDBRANCH  19  21
ENDBRANCH  18  19
ENDBRANCH  17  18
ENDBRANCH  16  17
ENDBRANCH  15  16
ENDBRANCH  14  15
ENDBRANCH   1  14
BRANCH  11  22
ATOM     22  O   UNL     1       1.392   7.925  20.680  0.00  0.00    +0.000 OA
BRANCH  22  23
ATOM     23  C   UNL     1       0.655   9.148  20.594  0.00  0.00    +0.000 C 
BRANCH  23  24
ATOM     24  C   UNL     1       0.837   9.930  21.893  0.00  0.00    +0.000 C 
BRANCH  24  25
ATOM     25  C   UNL     1      -0.239   9.569  22.931  0.00  0.00    +0.000 C 
ATOM     26  F   UNL     1       0.270   9.240  24.138  0.00  0.00    +0.000 F 
ATOM     27  F   UNL     1      -1.073  10.619  23.130  0.00  0.00    +0.000 F 
ATOM     28  F   UNL     1      -0.999   8.528  22.517  0.00  0.00    +0.000 F 
ENDBRANCH  24  25
BRANCH  24  29
ATOM     29  O   UNL     1       0.890  11.342  21.587  0.00  0.00    +0.000 OA
ATOM     30  H   UNL     1       0.461  11.803  22.335  0.00  0.00    +0.000 HD
ENDBRANCH  24  29
ENDBRANCH  23  24
ENDBRANCH  22  23
ENDBRANCH  11  22
TORSDOF 12
ENDMDL
MODEL 9
REMARK VINA RESULT:      -6.8      0.997      1.225
REMARK  Name = 
REMARK  13 active torsions:
REMARK  status: ('A' for Active; 'I' for Inactive)
REMARK    1  A    between atoms: C_1  and  C_2
REMARK    2  A    between atoms: C_2  and  C_3
REMARK    3  A    between atoms: C_3  and  C_4
REMARK    4  A    between atoms: C_4  and  C_5
REMARK    5  A    between atoms: C_5  and  C_6
REMARK    6  A    between atoms: C_6  and  C_7
REMARK    7  A    between atoms: C_7  and  C_8
REMARK    8  A    between atoms: C_8  and  N_9
REMARK    9  A    between atoms: C_19  and  O_20
REMARK   10  A    between atoms: O_20  and  C_21
REMARK   11  A    between atoms: C_21  and  C_22
REMARK   12  A    between atoms: C_22  and  O_23
REMARK   13  A    between atoms: C_22  and  C_24
REMARK                            x       y       z     vdW  Elec       q    Type
REMARK                         _______ _______ _______ _____ _____    ______ ____
ROOT
ATOM      1  N   UNL     1       4.714   5.075  18.832  0.00  0.00    +0.000 N 
ATOM      2  C   UNL     1       5.301   5.090  17.580  0.00  0.00    +0.000 A 
ATOM      3  C   UNL     1       6.295   4.272  17.006  0.00  0.00    +0.000 A 
ATOM      4  C   UNL     1       6.653   4.500  15.671  0.00  0.00    +0.000 A 
ATOM      5  C   UNL     1       6.045   5.504  14.929  0.00  0.00    +0.000 A 
ATOM      6  C   UNL     1       5.071   6.321  15.510  0.00  0.00    +0.000 A 
ATOM      7  C   UNL     1       4.694   6.114  16.854  0.00  0.00    +0.000 A 
ATOM      8  C   UNL     1       3.754   6.756  17.718  0.00  0.00    +0.000 A 
ATOM      9  C   UNL     1       2.856   7.830  17.547  0.00  0.00    +0.000 A 
ATOM     10  C   UNL     1       2.016   8.214  18.600  0.00  0.00    +0.000 A 
ATOM     11  C   UNL     1       2.071   7.561  19.827  0.00  0.00    +0.000 A 
ATOM     12  C   UNL     1       2.982   6.516  20.023  0.00  0.00    +0.000 A 
ATOM     13  C   UNL     1       3.802   6.112  18.952  0.00  0.00    +0.000 A 
ENDROOT
BRANCH   1  14
ATOM     14  C   UNL     1       4.938   4.051  19.842  0.00  0.00    +0.000 C 
BRANCH  14  15
ATOM     15  C   UNL     1       4.218   2.729  19.566  0.00  0.00    +0.000 C 
BRANCH  15  16
ATOM     16  C   UNL     1       3.634   2.086  20.822  0.00  0.00    +0.000 C 
BRANCH  16  17
ATOM     17  C   UNL     1       2.685   3.054  21.526  0.00  0.00    +0.000 C 
BRANCH  17  18
ATOM     18  C   UNL     1       1.232   2.750  21.176  0.00  0.00    +0.000 C 
BRANCH  18  19
ATOM     19  C   UNL     1       0.739   3.675  20.067  0.00  0.00    +0.000 C 
BRANCH  19  21
ATOM     20  C   UNL     1       1.392   4.002  17.665  0.00  0.00    +0.000 C 
ATOM     21  C   UNL     1       0.875   3.016  18.698  0.00  0.00    +0.000 C 
ENDBRANCH  19  21
ENDBRANCH  18  19
ENDBRANCH  17  18
ENDBRANCH  16  17
ENDBRANCH  15  16
ENDBRANCH  14  15
ENDBRANCH   1  14
BRANCH  11  22
ATOM     22  O   UNL     1       1.279   7.829  20.913  0.00  0.00    +0.000 OA
BRANCH  22  23
ATOM     23  C   UNL     1       0.317   8.878  20.760  0.00  0.00    +0.000 C 
BRANCH  23  24
ATOM     24  C   UNL     1       0.329   9.749  22.013  0.00  0.00    +0.000 C 
BRANCH  24  25
ATOM     25  C   UNL     1      -0.023  11.212  21.694  0.00  0.00    +0.000 C 
ATOM     26  F   UNL     1      -0.993  11.339  20.763  0.00  0.00    +0.000 F 
ATOM     27  F   UNL     1      -0.462  11.846  22.808  0.00  0.00    +0.000 F 
ATOM     28  F   UNL     1       1.057  11.895  21.245  0.00  0.00    +0.000 F 
ENDBRANCH  24  25
BRANCH  24  29
ATOM     29  O   UNL     1       1.604   9.597  22.678  0.00  0.00    +0.000 OA
ATOM     30  H   UNL     1       1.556  10.136  23.493  0.00  0.00    +0.000 HD
ENDBRANCH  24  29
ENDBRANCH  23  24
ENDBRANCH  22  23
ENDBRANCH  11  22
TORSDOF 12
ENDMDL
