MODEL 1
REMARK VINA RESULT:      -6.2      0.000      0.000
REMARK  Name = 
REMARK  11 active torsions:
REMARK  status: ('A' for Active; 'I' for Inactive)
REMARK    1  A    between atoms: C_1  and  C_2
REMARK    2  A    between atoms: C_2  and  C_3
REMARK    3  A    between atoms: C_3  and  C_4
REMARK    4  A    between atoms: C_4  and  C_5
REMARK    5  A    between atoms: C_5  and  C_6
REMARK    6  A    between atoms: C_6  and  N_7
REMARK    7  A    between atoms: C_8  and  O_10
REMARK    8  A    between atoms: O_10  and  C_11
REMARK    9  A    between atoms: C_11  and  C_12
REMARK   10  A    between atoms: C_12  and  C_13
REMARK   11  A    between atoms: C_13  and  C_14
REMARK                            x       y       z     vdW  Elec       q    Type
REMARK                         _______ _______ _______ _____ _____    ______ ____
ROOT
ATOM      1  N   UNL     1       6.897   3.923  16.086  0.00  0.00    +0.000 N 
ATOM      2  C   UNL     1       7.031   4.641  17.254  0.00  0.00    +0.000 C 
ATOM      3  O   UNL     1       7.880   4.442  18.085  0.00  0.00    +0.000 OA
ATOM      4  H   UNL     1       6.964   2.913  16.156  0.00  0.00    +0.000 HD
ENDROOT
BRANCH   1   5
ATOM      5  C   UNL     1       6.854   4.566  14.789  0.00  0.00    +0.000 C 
BRANCH   5   6
ATOM      6  C   UNL     1       5.773   3.980  13.862  0.00  0.00    +0.000 C 
BRANCH   6   7
ATOM      7  C   UNL     1       6.315   3.650  12.470  0.00  0.00    +0.000 C 
BRANCH   7   8
ATOM      8  C   UNL     1       5.356   2.751  11.692  0.00  0.00    +0.000 C 
BRANCH   8  10
ATOM      9  C   UNL     1       3.558   3.704  10.225  0.00  0.00    +0.000 C 
ATOM     10  C   UNL     1       3.949   3.346  11.649  0.00  0.00    +0.000 C 
ENDBRANCH   8  10
ENDBRANCH   7   8
ENDBRANCH   6   7
ENDBRANCH   5   6
ENDBRANCH   1   5
BRANCH   2  11
ATOM     11  O   UNL     1       5.939   5.449  17.416  0.00  0.00    +0.000 OA
BRANCH  11  12
ATOM     12  C   UNL     1       4.875   4.851  18.189  0.00  0.00    +0.000 C 
BRANCH  12  13
ATOM     13  C   UNL     1       3.612   4.659  17.361  0.00  0.00    +0.000 C 
BRANCH  13  14
ATOM     14  C   UNL     1       2.355   5.167  18.079  0.00  0.00    +0.000 C 
BRANCH  14  15
ATOM     15  C   UNL     1       2.067   4.396  19.323  0.00  0.00    +0.000 A 
ATOM     16  C   UNL     1       2.000   4.845  20.625  0.00  0.00    +0.000 A 
ATOM     17  N   UNL     1       1.757   3.731  21.381  0.00  0.00    +0.000 N 
ATOM     18  C   UNL     1       1.679   2.666  20.528  0.00  0.00    +0.000 A 
ATOM     19  N   UNL     1       1.846   3.037  19.280  0.00  0.00    +0.000 NA
ATOM     20  H   UNL     1       1.673   3.692  22.387  0.00  0.00    +0.000 HD
ENDBRANCH  14  15
ENDBRANCH  13  14
ENDBRANCH  12  13
ENDBRANCH  11  12
ENDBRANCH   2  11
TORSDOF 10
ENDMDL
MODEL 2
REMARK VINA RESULT:      -6.1      1.005      1.178
REMARK  Name = 
REMARK  11 active torsions:
REMARK  status: ('A' for Active; 'I' for Inactive)
REMARK    1  A    between atoms: C_1  and  C_2
REMARK    2  A    between atoms: C_2  and  C_3
REMARK    3  A    between atoms: C_3  and  C_4
REMARK    4  A    between atoms: C_4  and  C_5
REMARK    5  A    between atoms: C_5  and  C_6
REMARK    6  A    between atoms: C_6  and  N_7
REMARK    7  A    between atoms: C_8  and  O_10
REMARK    8  A    between atoms: O_10  and  C_11
REMARK    9  A    between atoms: C_11  and  C_12
REMARK   10  A    between atoms: C_12  and  C_13
REMARK   11  A    between atoms: C_13  and  C_14
REMARK                            x       y       z     vdW  Elec       q    Type
REMARK                         _______ _______ _______ _____ _____    ______ ____
ROOT
ATOM      1  N   UNL     1       7.321   4.639  15.736  0.00  0.00    +0.000 N 
ATOM      2  C   UNL     1       6.878   5.404  16.792  0.00  0.00    +0.000 C 
ATOM      3  O   UNL     1       7.596   5.928  17.605  0.00  0.00    +0.000 OA
ATOM      4  H   UNL     1       8.037   3.949  15.937  0.00  0.00    +0.000 HD
ENDROOT
BRANCH   1   5
ATOM      5  C   UNL     1       6.935   4.918  14.369  0.00  0.00    +0.000 C 
BRANCH   5   6
ATOM      6  C   UNL     1       6.110   3.784  13.733  0.00  0.00    +0.000 C 
BRANCH   6   7
ATOM      7  C   UNL     1       6.452   3.573  12.256  0.00  0.00    +0.000 C 
BRANCH   7   8
ATOM      8  C   UNL     1       5.407   2.706  11.556  0.00  0.00    +0.000 C 
BRANCH   8  10
ATOM      9  C   UNL     1       3.476   3.630  10.247  0.00  0.00    +0.000 C 
ATOM     10  C   UNL     1       4.018   3.338  11.636  0.00  0.00    +0.000 C 
ENDBRANCH   8  10
ENDBRANCH   7   8
ENDBRANCH   6   7
ENDBRANCH   5   6
ENDBRANCH   1   5
BRANCH   2  11
ATOM     11  O   UNL     1       5.518   5.293  16.893  0.00  0.00    +0.000 OA
BRANCH  11  12
ATOM     12  C   UNL     1       5.076   4.111  17.596  0.00  0.00    +0.000 C 
BRANCH  12  13
ATOM     13  C   UNL     1       3.692   3.668  17.143  0.00  0.00    +0.000 C 
BRANCH  13  14
ATOM     14  C   UNL     1       3.108   2.562  18.032  0.00  0.00    +0.000 C 
BRANCH  14  15
ATOM     15  C   UNL     1       2.567   3.098  19.315  0.00  0.00    +0.000 A 
ATOM     16  C   UNL     1       3.000   2.867  20.603  0.00  0.00    +0.000 A 
ATOM     17  N   UNL     1       2.133   3.553  21.407  0.00  0.00    +0.000 N 
ATOM     18  C   UNL     1       1.224   4.172  20.595  0.00  0.00    +0.000 A 
ATOM     19  N   UNL     1       1.468   3.929  19.328  0.00  0.00    +0.000 NA
ATOM     20  H   UNL     1       2.142   3.582  22.417  0.00  0.00    +0.000 HD
ENDBRANCH  14  15
ENDBRANCH  13  14
ENDBRANCH  12  13
ENDBRANCH  11  12
ENDBRANCH   2  11
TORSDOF 10
ENDMDL
MODEL 3
REMARK VINA RESULT:      -6.0      1.303      1.587
REMARK  Name = 
REMARK  11 active torsions:
REMARK  status: ('A' for Active; 'I' for Inactive)
REMARK    1  A    between atoms: C_1  and  C_2
REMARK    2  A    between atoms: C_2  and  C_3
REMARK    3  A    between atoms: C_3  and  C_4
REMARK    4  A    between atoms: C_4  and  C_5
REMARK    5  A    between atoms: C_5  and  C_6
REMARK    6  A    between atoms: C_6  and  N_7
REMARK    7  A    between atoms: C_8  and  O_10
REMARK    8  A    between atoms: O_10  and  C_11
REMARK    9  A    between atoms: C_11  and  C_12
REMARK   10  A    between atoms: C_12  and  C_13
REMARK   11  A    between atoms: C_13  and  C_14
REMARK                            x       y       z     vdW  Elec       q    Type
REMARK                         _______ _______ _______ _____ _____    ______ ____
ROOT
ATOM      1  N   UNL     1       6.816   3.982  16.064  0.00  0.00    +0.000 N 
ATOM      2  C   UNL     1       6.687   4.461  17.348  0.00  0.00    +0.000 C 
ATOM      3  O   UNL     1       7.555   4.423  18.182  0.00  0.00    +0.000 OA
ATOM      4  H   UNL     1       7.244   3.069  15.954  0.00  0.00    +0.000 HD
ENDROOT
BRANCH   1   5
ATOM      5  C   UNL     1       6.534   4.803  14.904  0.00  0.00    +0.000 C 
BRANCH   5   6
ATOM      6  C   UNL     1       5.629   4.102  13.875  0.00  0.00    +0.000 C 
BRANCH   6   7
ATOM      7  C   UNL     1       6.429   3.341  12.816  0.00  0.00    +0.000 C 
BRANCH   7   8
ATOM      8  C   UNL     1       5.525   2.794  11.714  0.00  0.00    +0.000 C 
BRANCH   8  10
ATOM      9  C   UNL     1       3.457   3.381  10.421  0.00  0.00    +0.000 C 
ATOM     10  C   UNL     1       4.129   3.412  11.783  0.00  0.00    +0.000 C 
ENDBRANCH   8  10
ENDBRANCH   7   8
ENDBRANCH   6   7
ENDBRANCH   5   6
ENDBRANCH   1   5
BRANCH   2  11
ATOM     11  O   UNL     1       5.377   4.779  17.584  0.00  0.00    +0.000 OA
BRANCH  11  12
ATOM     12  C   UNL     1       4.528   3.634  17.819  0.00  0.00    +0.000 C 
BRANCH  12  13
ATOM     13  C   UNL     1       3.162   3.798  17.166  0.00  0.00    +0.000 C 
BRANCH  13  14
ATOM     14  C   UNL     1       2.020   3.822  18.190  0.00  0.00    +0.000 C 
BRANCH  14  15
ATOM     15  C   UNL     1       2.118   4.987  19.117  0.00  0.00    +0.000 A 
ATOM     16  C   UNL     1       1.977   5.019  20.487  0.00  0.00    +0.000 A 
ATOM     17  N   UNL     1       2.110   6.334  20.836  0.00  0.00    +0.000 N 
ATOM     18  C   UNL     1       2.332   7.042  19.688  0.00  0.00    +0.000 A 
ATOM     19  N   UNL     1       2.358   6.256  18.637  0.00  0.00    +0.000 NA
ATOM     20  H   UNL     1       2.036   6.722  21.766  0.00  0.00    +0.000 HD
ENDBRANCH  14  15
ENDBRANCH  13  14
ENDBRANCH  12  13
ENDBRANCH  11  12
ENDBRANCH   2  11
TORSDOF 10
ENDMDL
MODEL 4
REMARK VINA RESULT:      -6.0      1.780      2.351
REMARK  Name = 
REMARK  11 active torsions:
REMARK  status: ('A' for Active; 'I' for Inactive)
REMARK    1  A    between atoms: C_1  and  C_2
REMARK    2  A    between atoms: C_2  and  C_3
REMARK    3  A    between atoms: C_3  and  C_4
REMARK    4  A    between atoms: C_4  and  C_5
REMARK    5  A    between atoms: C_5  and  C_6
REMARK    6  A    between atoms: C_6  and  N_7
REMARK    7  A    between atoms: C_8  and  O_10
REMARK    8  A    between atoms: O_10  and  C_11
REMARK    9  A    between atoms: C_11  and  C_12
REMARK   10  A    between atoms: C_12  and  C_13
REMARK   11  A    between atoms: C_13  and  C_14
REMARK                            x       y       z     vdW  Elec       q    Type
REMARK                         _______ _______ _______ _____ _____    ______ ____
ROOT
ATOM      1  N   UNL     1       7.515   4.470  18.016  0.00  0.00    +0.000 N 
ATOM      2  C   UNL     1       6.824   4.878  19.135  0.00  0.00    +0.000 C 
ATOM      3  O   UNL     1       7.332   5.362  20.114  0.00  0.00    +0.000 OA
ATOM      4  H   UNL     1       8.359   3.928  18.169  0.00  0.00    +0.000 HD
ENDROOT
BRANCH   1   5
ATOM      5  C   UNL     1       7.177   4.940  16.689  0.00  0.00    +0.000 C 
BRANCH   5   6
ATOM      6  C   UNL     1       6.387   3.906  15.867  0.00  0.00    +0.000 C 
BRANCH   6   7
ATOM      7  C   UNL     1       5.244   4.543  15.072  0.00  0.00    +0.000 C 
BRANCH   7   8
ATOM      8  C   UNL     1       5.204   4.026  13.635  0.00  0.00    +0.000 C 
BRANCH   8  10
ATOM      9  C   UNL     1       6.604   2.958  11.848  0.00  0.00    +0.000 C 
ATOM     10  C   UNL     1       6.610   3.879  13.058  0.00  0.00    +0.000 C 
ENDBRANCH   8  10
ENDBRANCH   7   8
ENDBRANCH   6   7
ENDBRANCH   5   6
ENDBRANCH   1   5
BRANCH   2  11
ATOM     11  O   UNL     1       5.527   4.451  19.047  0.00  0.00    +0.000 OA
BRANCH  11  12
ATOM     12  C   UNL     1       4.551   5.475  19.341  0.00  0.00    +0.000 C 
BRANCH  12  13
ATOM     13  C   UNL     1       3.828   5.946  18.086  0.00  0.00    +0.000 C 
BRANCH  13  14
ATOM     14  C   UNL     1       2.349   5.538  18.072  0.00  0.00    +0.000 C 
BRANCH  14  15
ATOM     15  C   UNL     1       2.170   4.062  18.198  0.00  0.00    +0.000 A 
ATOM     16  C   UNL     1       2.711   3.054  17.431  0.00  0.00    +0.000 A 
ATOM     17  N   UNL     1       2.191   1.894  17.935  0.00  0.00    +0.000 N 
ATOM     18  C   UNL     1       1.372   2.231  18.977  0.00  0.00    +0.000 A 
ATOM     19  N   UNL     1       1.351   3.529  19.170  0.00  0.00    +0.000 NA
ATOM     20  H   UNL     1       2.358   0.959  17.591  0.00  0.00    +0.000 HD
ENDBRANCH  14  15
ENDBRANCH  13  14
ENDBRANCH  12  13
ENDBRANCH  11  12
ENDBRANCH   2  11
TORSDOF 10
ENDMDL
MODEL 5
REMARK VINA RESULT:      -6.0      1.266      1.666
REMARK  Name = 
REMARK  11 active torsions:
REMARK  status: ('A' for Active; 'I' for Inactive)
REMARK    1  A    between atoms: C_1  and  C_2
REMARK    2  A    between atoms: C_2  and  C_3
REMARK    3  A    between atoms: C_3  and  C_4
REMARK    4  A    between atoms: C_4  and  C_5
REMARK    5  A    between atoms: C_5  and  C_6
REMARK    6  A    between atoms: C_6  and  N_7
REMARK    7  A    between atoms: C_8  and  O_10
REMARK    8  A    between atoms: O_10  and  C_11
REMARK    9  A    between atoms: C_11  and  C_12
REMARK   10  A    between atoms: C_12  and  C_13
REMARK   11  A    between atoms: C_13  and  C_14
REMARK                            x       y       z     vdW  Elec       q    Type
REMARK                         _______ _______ _______ _____ _____    ______ ____
ROOT
ATOM      1  N   UNL     1       7.110   5.584  15.555  0.00  0.00    +0.000 N 
ATOM      2  C   UNL     1       6.956   6.230  16.761  0.00  0.00    +0.000 C 
ATOM      3  O   UNL     1       7.470   7.281  17.044  0.00  0.00    +0.000 OA
ATOM      4  H   UNL     1       8.052   5.524  15.182  0.00  0.00    +0.000 HD
ENDROOT
BRANCH   1   5
ATOM      5  C   UNL     1       5.978   5.172  14.752  0.00  0.00    +0.000 C 
BRANCH   5   6
ATOM      6  C   UNL     1       6.131   3.753  14.176  0.00  0.00    +0.000 C 
BRANCH   6   7
ATOM      7  C   UNL     1       6.473   3.763  12.685  0.00  0.00    +0.000 C 
BRANCH   7   8
ATOM      8  C   UNL     1       5.355   3.146  11.848  0.00  0.00    +0.000 C 
BRANCH   8  10
ATOM      9  C   UNL     1       7.227   1.709  10.998  0.00  0.00    +0.000 C 
ATOM     10  C   UNL     1       5.745   1.762  11.332  0.00  0.00    +0.000 C 
ENDBRANCH   8  10
ENDBRANCH   7   8
ENDBRANCH   6   7
ENDBRANCH   5   6
ENDBRANCH   1   5
BRANCH   2  11
ATOM     11  O   UNL     1       6.320   5.397  17.642  0.00  0.00    +0.000 OA
BRANCH  11  12
ATOM     12  C   UNL     1       5.179   5.995  18.296  0.00  0.00    +0.000 C 
BRANCH  12  13
ATOM     13  C   UNL     1       3.874   5.337  17.871  0.00  0.00    +0.000 C 
BRANCH  13  14
ATOM     14  C   UNL     1       2.696   5.729  18.773  0.00  0.00    +0.000 C 
BRANCH  14  15
ATOM     15  C   UNL     1       1.935   4.540  19.255  0.00  0.00    +0.000 A 
ATOM     16  C   UNL     1       1.048   4.446  20.306  0.00  0.00    +0.000 A 
ATOM     17  N   UNL     1       0.674   3.131  20.349  0.00  0.00    +0.000 N 
ATOM     18  C   UNL     1       1.328   2.486  19.337  0.00  0.00    +0.000 A 
ATOM     19  N   UNL     1       2.084   3.311  18.650  0.00  0.00    +0.000 NA
ATOM     20  H   UNL     1       0.049   2.704  21.017  0.00  0.00    +0.000 HD
ENDBRANCH  14  15
ENDBRANCH  13  14
ENDBRANCH  12  13
ENDBRANCH  11  12
ENDBRANCH   2  11
TORSDOF 10
ENDMDL
MODEL 6
REMARK VINA RESULT:      -5.9      3.801      5.403
REMARK  Name = 
REMARK  11 active torsions:
REMARK  status: ('A' for Active; 'I' for Inactive)
REMARK    1  A    between atoms: C_1  and  C_2
REMARK    2  A    between atoms: C_2  and  C_3
REMARK    3  A    between atoms: C_3  and  C_4
REMARK    4  A    between atoms: C_4  and  C_5
REMARK    5  A    between atoms: C_5  and  C_6
REMARK    6  A    between atoms: C_6  and  N_7
REMARK    7  A    between atoms: C_8  and  O_10
REMARK    8  A    between atoms: O_10  and  C_11
REMARK    9  A    between atoms: C_11  and  C_12
REMARK   10  A    between atoms: C_12  and  C_13
REMARK   11  A    between atoms: C_13  and  C_14
REMARK                            x       y       z     vdW  Elec       q    Type
REMARK                         _______ _______ _______ _____ _____    ______ ____
ROOT
ATOM      1  N   UNL     1       5.942   3.703  18.906  0.00  0.00    +0.000 N 
ATOM      2  C   UNL     1       6.354   4.661  18.007  0.00  0.00    +0.000 C 
ATOM      3  O   UNL     1       7.135   4.467  17.111  0.00  0.00    +0.000 OA
ATOM      4  H   UNL     1       6.661   3.110  19.308  0.00  0.00    +0.000 HD
ENDROOT
BRANCH   1   5
ATOM      5  C   UNL     1       4.542   3.414  19.135  0.00  0.00    +0.000 C 
BRANCH   5   6
ATOM      6  C   UNL     1       3.772   3.099  17.840  0.00  0.00    +0.000 C 
BRANCH   6   7
ATOM      7  C   UNL     1       2.470   2.341  18.106  0.00  0.00    +0.000 C 
BRANCH   7   8
ATOM      8  C   UNL     1       1.301   3.296  18.342  0.00  0.00    +0.000 C 
BRANCH   8  10
ATOM      9  C   UNL     1       1.281   4.467  20.560  0.00  0.00    +0.000 C 
ATOM     10  C   UNL     1       0.822   3.240  19.791  0.00  0.00    +0.000 C 
ENDBRANCH   8  10
ENDBRANCH   7   8
ENDBRANCH   6   7
ENDBRANCH   5   6
ENDBRANCH   1   5
BRANCH   2  11
ATOM     11  O   UNL     1       5.915   5.889  18.421  0.00  0.00    +0.000 OA
BRANCH  11  12
ATOM     12  C   UNL     1       5.604   6.797  17.341  0.00  0.00    +0.000 C 
BRANCH  12  13
ATOM     13  C   UNL     1       4.128   6.750  16.969  0.00  0.00    +0.000 C 
BRANCH  13  14
ATOM     14  C   UNL     1       3.216   6.615  18.195  0.00  0.00    +0.000 C 
BRANCH  14  15
ATOM     15  C   UNL     1       2.448   7.865  18.466  0.00  0.00    +0.000 A 
ATOM     16  C   UNL     1       1.805   8.255  19.621  0.00  0.00    +0.000 A 
ATOM     17  N   UNL     1       1.217   9.453  19.323  0.00  0.00    +0.000 N 
ATOM     18  C   UNL     1       1.523   9.748  18.025  0.00  0.00    +0.000 A 
ATOM     19  N   UNL     1       2.276   8.818  17.486  0.00  0.00    +0.000 NA
ATOM     20  H   UNL     1       0.641  10.011  19.938  0.00  0.00    +0.000 HD
ENDBRANCH  14  15
ENDBRANCH  13  14
ENDBRANCH  12  13
ENDBRANCH  11  12
ENDBRANCH   2  11
TORSDOF 10
ENDMDL
MODEL 7
REMARK VINA RESULT:      -5.9      2.870      6.673
REMARK  Name = 
REMARK  11 active torsions:
REMARK  status: ('A' for Active; 'I' for Inactive)
REMARK    1  A    between atoms: C_1  and  C_2
REMARK    2  A    between atoms: C_2  and  C_3
REMARK    3  A    between atoms: C_3  and  C_4
REMARK    4  A    between atoms: C_4  and  C_5
REMARK    5  A    between atoms: C_5  and  C_6
REMARK    6  A    between atoms: C_6  and  N_7
REMARK    7  A    between atoms: C_8  and  O_10
REMARK    8  A    between atoms: O_10  and  C_11
REMARK    9  A    between atoms: C_11  and  C_12
REMARK   10  A    between atoms: C_12  and  C_13
REMARK   11  A    between atoms: C_13  and  C_14
REMARK                            x       y       z     vdW  Elec       q    Type
REMARK                         _______ _______ _______ _____ _____    ______ ____
ROOT
ATOM      1  N   UNL     1       4.077   2.234  17.892  0.00  0.00    +0.000 N 
ATOM      2  C   UNL     1       4.036   3.557  17.511  0.00  0.00    +0.000 C 
ATOM      3  O   UNL     1       3.941   3.938  16.373  0.00  0.00    +0.000 OA
ATOM      4  H   UNL     1       4.684   1.621  17.359  0.00  0.00    +0.000 HD
ENDROOT
BRANCH   1   5
ATOM      5  C   UNL     1       3.166   1.688  18.876  0.00  0.00    +0.000 C 
BRANCH   5   6
ATOM      6  C   UNL     1       1.783   2.363  18.857  0.00  0.00    +0.000 C 
BRANCH   6   7
ATOM      7  C   UNL     1       1.269   2.680  20.263  0.00  0.00    +0.000 C 
BRANCH   7   8
ATOM      8  C   UNL     1       0.895   4.154  20.406  0.00  0.00    +0.000 C 
BRANCH   8  10
ATOM      9  C   UNL     1       2.042   6.377  20.219  0.00  0.00    +0.000 C 
ATOM     10  C   UNL     1       2.095   4.992  20.843  0.00  0.00    +0.000 C 
ENDBRANCH   8  10
ENDBRANCH   7   8
ENDBRANCH   6   7
ENDBRANCH   5   6
ENDBRANCH   1   5
BRANCH   2  11
ATOM     11  O   UNL     1       4.334   4.347  18.588  0.00  0.00    +0.000 OA
BRANCH  11  12
ATOM     12  C   UNL     1       5.674   4.167  19.096  0.00  0.00    +0.000 C 
BRANCH  12  13
ATOM     13  C   UNL     1       6.361   5.498  19.367  0.00  0.00    +0.000 C 
BRANCH  13  14
ATOM     14  C   UNL     1       7.523   5.768  18.401  0.00  0.00    +0.000 C 
BRANCH  14  15
ATOM     15  C   UNL     1       7.115   5.624  16.974  0.00  0.00    +0.000 A 
ATOM     16  C   UNL     1       6.214   6.375  16.250  0.00  0.00    +0.000 A 
ATOM     17  N   UNL     1       6.171   5.797  15.011  0.00  0.00    +0.000 N 
ATOM     18  C   UNL     1       7.037   4.740  15.022  0.00  0.00    +0.000 A 
ATOM     19  N   UNL     1       7.633   4.619  16.187  0.00  0.00    +0.000 NA
ATOM     20  H   UNL     1       5.591   6.079  14.234  0.00  0.00    +0.000 HD
ENDBRANCH  14  15
ENDBRANCH  13  14
ENDBRANCH  12  13
ENDBRANCH  11  12
ENDBRANCH   2  11
TORSDOF 10
ENDMDL
MODEL 8
REMARK VINA RESULT:      -5.9      2.789      6.536
REMARK  Name = 
REMARK  11 active torsions:
REMARK  status: ('A' for Active; 'I' for Inactive)
REMARK    1  A    between atoms: C_1  and  C_2
REMARK    2  A    between atoms: C_2  and  C_3
REMARK    3  A    between atoms: C_3  and  C_4
REMARK    4  A    between atoms: C_4  and  C_5
REMARK    5  A    between atoms: C_5  and  C_6
REMARK    6  A    between atoms: C_6  and  N_7
REMARK    7  A    between atoms: C_8  and  O_10
REMARK    8  A    between atoms: O_10  and  C_11
REMARK    9  A    between atoms: C_11  and  C_12
REMARK   10  A    between atoms: C_12  and  C_13
REMARK   11  A    between atoms: C_13  and  C_14
REMARK                            x       y       z     vdW  Elec       q    Type
REMARK                         _______ _______ _______ _____ _____    ______ ____
ROOT
ATOM      1  N   UNL     1       4.128   4.051  17.966  0.00  0.00    +0.000 N 
ATOM      2  C   UNL     1       4.561   4.672  19.116  0.00  0.00    +0.000 C 
ATOM      3  O   UNL     1       4.024   5.624  19.622  0.00  0.00    +0.000 OA
ATOM      4  H   UNL     1       3.870   4.650  17.189  0.00  0.00    +0.000 HD
ENDROOT
BRANCH   1   5
ATOM      5  C   UNL     1       3.867   2.628  17.911  0.00  0.00    +0.000 C 
BRANCH   5   6
ATOM      6  C   UNL     1       2.367   2.293  17.822  0.00  0.00    +0.000 C 
BRANCH   6   7
ATOM      7  C   UNL     1       1.752   1.998  19.192  0.00  0.00    +0.000 C 
BRANCH   7   8
ATOM      8  C   UNL     1       0.709   3.045  19.576  0.00  0.00    +0.000 C 
BRANCH   8  10
ATOM      9  C   UNL     1       2.175   3.170  21.609  0.00  0.00    +0.000 C 
ATOM     10  C   UNL     1       1.206   3.930  20.718  0.00  0.00    +0.000 C 
ENDBRANCH   8  10
ENDBRANCH   7   8
ENDBRANCH   6   7
ENDBRANCH   5   6
ENDBRANCH   1   5
BRANCH   2  11
ATOM     11  O   UNL     1       5.792   4.183  19.459  0.00  0.00    +0.000 OA
BRANCH  11  12
ATOM     12  C   UNL     1       6.845   4.544  18.538  0.00  0.00    +0.000 C 
BRANCH  12  13
ATOM     13  C   UNL     1       7.497   5.868  18.914  0.00  0.00    +0.000 C 
BRANCH  13  14
ATOM     14  C   UNL     1       7.446   6.893  17.773  0.00  0.00    +0.000 C 
BRANCH  14  15
ATOM     15  C   UNL     1       6.816   6.335  16.541  0.00  0.00    +0.000 A 
ATOM     16  C   UNL     1       5.535   6.512  16.066  0.00  0.00    +0.000 A 
ATOM     17  N   UNL     1       5.458   5.746  14.935  0.00  0.00    +0.000 N 
ATOM     18  C   UNL     1       6.674   5.147  14.762  0.00  0.00    +0.000 A 
ATOM     19  N   UNL     1       7.519   5.495  15.705  0.00  0.00    +0.000 NA
ATOM     20  H   UNL     1       4.647   5.623  14.345  0.00  0.00    +0.000 HD
ENDBRANCH  14  15
ENDBRANCH  13  14
ENDBRANCH  12  13
ENDBRANCH  11  12
ENDBRANCH   2  11
TORSDOF 10
ENDMDL
MODEL 9
REMARK VINA RESULT:      -5.9      1.569      1.936
REMARK  Name = 
REMARK  11 active torsions:
REMARK  status: ('A' for Active; 'I' for Inactive)
REMARK    1  A    between atoms: C_1  and  C_2
REMARK    2  A    between atoms: C_2  and  C_3
REMARK    3  A    between atoms: C_3  and  C_4
REMARK    4  A    between atoms: C_4  and  C_5
REMARK    5  A    between atoms: C_5  and  C_6
REMARK    6  A    between atoms: C_6  and  N_7
REMARK    7  A    between atoms: C_8  and  O_10
REMARK    8  A    between atoms: O_10  and  C_11
REMARK    9  A    between atoms: C_11  and  C_12
REMARK   10  A    between atoms: C_12  and  C_13
REMARK   11  A    between atoms: C_13  and  C_14
REMARK                            x       y       z     vdW  Elec       q    Type
REMARK                         _______ _______ _______ _____ _____    ______ ____
ROOT
ATOM      1  N   UNL     1       6.829   5.620  15.895  0.00  0.00    +0.000 N 
ATOM      2  C   UNL     1       6.565   6.535  16.890  0.00  0.00    +0.000 C 
ATOM      3  O   UNL     1       7.261   7.483  17.149  0.00  0.00    +0.000 OA
ATOM      4  H   UNL     1       7.780   5.272  15.831  0.00  0.00    +0.000 HD
ENDROOT
BRANCH   1   5
ATOM      5  C   UNL     1       5.862   5.302  14.866  0.00  0.00    +0.000 C 
BRANCH   5   6
ATOM      6  C   UNL     1       5.991   3.860  14.342  0.00  0.00    +0.000 C 
BRANCH   6   7
ATOM      7  C   UNL     1       6.433   3.809  12.878  0.00  0.00    +0.000 C 
BRANCH   7   8
ATOM      8  C   UNL     1       5.344   3.220  11.983  0.00  0.00    +0.000 C 
BRANCH   8  10
ATOM      9  C   UNL     1       7.206   1.805  11.075  0.00  0.00    +0.000 C 
ATOM     10  C   UNL     1       5.737   1.838  11.465  0.00  0.00    +0.000 C 
ENDBRANCH   8  10
ENDBRANCH   7   8
ENDBRANCH   6   7
ENDBRANCH   5   6
ENDBRANCH   1   5
BRANCH   2  11
ATOM     11  O   UNL     1       5.528   6.081  17.658  0.00  0.00    +0.000 OA
BRANCH  11  12
ATOM     12  C   UNL     1       5.823   4.869  18.387  0.00  0.00    +0.000 C 
BRANCH  12  13
ATOM     13  C   UNL     1       4.711   3.839  18.247  0.00  0.00    +0.000 C 
BRANCH  13  14
ATOM     14  C   UNL     1       4.206   3.331  19.604  0.00  0.00    +0.000 C 
BRANCH  14  15
ATOM     15  C   UNL     1       2.724   3.165  19.628  0.00  0.00    +0.000 A 
ATOM     16  C   UNL     1       1.833   3.478  20.632  0.00  0.00    +0.000 A 
ATOM     17  N   UNL     1       0.609   3.083  20.166  0.00  0.00    +0.000 N 
ATOM     18  C   UNL     1       0.794   2.561  18.917  0.00  0.00    +0.000 A 
ATOM     19  N   UNL     1       2.056   2.612  18.558  0.00  0.00    +0.000 NA
ATOM     20  H   UNL     1      -0.271   3.141  20.660  0.00  0.00    +0.000 HD
ENDBRANCH  14  15
ENDBRANCH  13  14
ENDBRANCH  12  13
ENDBRANCH  11  12
ENDBRANCH   2  11
TORSDOF 10
ENDMDL
