MODEL 1
REMARK VINA RESULT:      -9.4      0.000      0.000
REMARK  Name = 
REMARK  5 active torsions:
REMARK  status: ('A' for Active; 'I' for Inactive)
REMARK    1  A    between atoms: C_10  and  C_11
REMARK    2  A    between atoms: N_17  and  N_18
REMARK    3  A    between atoms: C_19  and  C_20
REMARK    4  A    between atoms: C_23  and  O_24
REMARK    5  A    between atoms: O_24  and  C_25
REMARK                            x       y       z     vdW  Elec       q    Type
REMARK                         _______ _______ _______ _____ _____    ______ ____
ROOT
ATOM      1  N   UNL     1      -0.838  10.423  20.496  0.00  0.00    +0.000 NA
ATOM      2  C   UNL     1       0.420  10.301  20.223  0.00  0.00    +0.000 C 
ENDROOT
BRANCH   1  13
ATOM      3  O   UNL     1      -0.490  11.568  23.090  0.00  0.00    +0.000 OA
ATOM      4  C   UNL     1      -1.041  12.173  22.166  0.00  0.00    +0.000 A 
ATOM      5  C   UNL     1      -1.501  13.541  22.432  0.00  0.00    +0.000 A 
ATOM      6  C   UNL     1      -1.123  14.209  23.605  0.00  0.00    +0.000 A 
ATOM      7  C   UNL     1      -1.595  15.496  23.845  0.00  0.00    +0.000 A 
ATOM      8  C   UNL     1      -2.450  16.100  22.925  0.00  0.00    +0.000 A 
ATOM      9  C   UNL     1      -2.814  15.424  21.756  0.00  0.00    +0.000 A 
ATOM     10  C   UNL     1      -2.330  14.141  21.493  0.00  0.00    +0.000 A 
ATOM     11  N   UNL     1      -2.711  13.504  20.308  0.00  0.00    +0.000 NA
ATOM     12  C   UNL     1      -2.225  12.327  20.035  0.00  0.00    +0.000 A 
ATOM     13  N   UNL     1      -1.312  11.673  20.879  0.00  0.00    +0.000 N 
BRANCH  12  14
ATOM     14  C   UNL     1      -2.691  11.685  18.760  0.00  0.00    +0.000 A 
ATOM     15  C   UNL     1      -1.782  11.602  17.691  0.00  0.00    +0.000 A 
ATOM     16  C   UNL     1      -2.206  11.172  16.432  0.00  0.00    +0.000 A 
ATOM     17  C   UNL     1      -3.537  10.812  16.230  0.00  0.00    +0.000 A 
ATOM     18  C   UNL     1      -4.441  10.870  17.288  0.00  0.00    +0.000 A 
ATOM     19  C   UNL     1      -4.025  11.318  18.544  0.00  0.00    +0.000 A 
ENDBRANCH  12  14
ENDBRANCH   1  13
BRANCH   2  20
ATOM     20  C   UNL     1       1.037   8.984  20.020  0.00  0.00    +0.000 A 
ATOM     21  C   UNL     1       0.999   8.004  21.011  0.00  0.00    +0.000 A 
ATOM     22  C   UNL     1       1.667   6.799  20.801  0.00  0.00    +0.000 A 
ATOM     23  C   UNL     1       2.380   6.582  19.617  0.00  0.00    +0.000 A 
ATOM     24  C   UNL     1       2.426   7.579  18.637  0.00  0.00    +0.000 A 
ATOM     25  C   UNL     1       1.732   8.774  18.827  0.00  0.00    +0.000 A 
BRANCH  23  26
ATOM     26  O   UNL     1       3.060   5.387  19.562  0.00  0.00    +0.000 OA
BRANCH  26  27
ATOM     27  C   UNL     1       4.161   5.259  18.751  0.00  0.00    +0.000 A 
ATOM     28  C   UNL     1       5.465   5.496  19.182  0.00  0.00    +0.000 A 
ATOM     29  C   UNL     1       6.527   5.355  18.289  0.00  0.00    +0.000 A 
ATOM     30  C   UNL     1       6.293   5.002  16.953  0.00  0.00    +0.000 A 
ATOM     31  C   UNL     1       7.354   4.836  16.051  0.00  0.00    +0.000 A 
ATOM     32  C   UNL     1       7.112   4.467  14.726  0.00  0.00    +0.000 A 
ATOM     33  C   UNL     1       5.803   4.282  14.284  0.00  0.00    +0.000 A 
ATOM     34  C   UNL     1       4.736   4.461  15.164  0.00  0.00    +0.000 A 
ATOM     35  C   UNL     1       4.966   4.806  16.504  0.00  0.00    +0.000 A 
ATOM     36  C   UNL     1       3.907   4.950  17.413  0.00  0.00    +0.000 A 
ENDBRANCH  26  27
ENDBRANCH  23  26
ENDBRANCH   2  20
TORSDOF 5
ENDMDL
MODEL 2
REMARK VINA RESULT:      -9.2      0.552      1.201
REMARK  Name = 
REMARK  5 active torsions:
REMARK  status: ('A' for Active; 'I' for Inactive)
REMARK    1  A    between atoms: C_10  and  C_11
REMARK    2  A    between atoms: N_17  and  N_18
REMARK    3  A    between atoms: C_19  and  C_20
REMARK    4  A    between atoms: C_23  and  O_24
REMARK    5  A    between atoms: O_24  and  C_25
REMARK                            x       y       z     vdW  Elec       q    Type
REMARK                         _______ _______ _______ _____ _____    ______ ____
ROOT
ATOM      1  N   UNL     1      -0.942  10.672  20.575  0.00  0.00    +0.000 NA
ATOM      2  C   UNL     1       0.312  10.553  20.281  0.00  0.00    +0.000 C 
ENDROOT
BRANCH   1  13
ATOM      3  O   UNL     1      -0.550  11.933  23.108  0.00  0.00    +0.000 OA
ATOM      4  C   UNL     1      -1.130  12.491  22.171  0.00  0.00    +0.000 A 
ATOM      5  C   UNL     1      -1.601  13.864  22.389  0.00  0.00    +0.000 A 
ATOM      6  C   UNL     1      -1.205  14.586  23.523  0.00  0.00    +0.000 A 
ATOM      7  C   UNL     1      -1.688  15.878  23.718  0.00  0.00    +0.000 A 
ATOM      8  C   UNL     1      -2.571  16.430  22.792  0.00  0.00    +0.000 A 
ATOM      9  C   UNL     1      -2.953  15.700  21.662  0.00  0.00    +0.000 A 
ATOM     10  C   UNL     1      -2.458  14.413  21.444  0.00  0.00    +0.000 A 
ATOM     11  N   UNL     1      -2.858  13.720  20.297  0.00  0.00    +0.000 NA
ATOM     12  C   UNL     1      -2.363  12.538  20.064  0.00  0.00    +0.000 A 
ATOM     13  N   UNL     1      -1.423  11.932  20.914  0.00  0.00    +0.000 N 
BRANCH  12  14
ATOM     14  C   UNL     1      -2.849  11.837  18.828  0.00  0.00    +0.000 A 
ATOM     15  C   UNL     1      -1.943  11.655  17.771  0.00  0.00    +0.000 A 
ATOM     16  C   UNL     1      -2.379  11.163  16.539  0.00  0.00    +0.000 A 
ATOM     17  C   UNL     1      -3.721  10.840  16.353  0.00  0.00    +0.000 A 
ATOM     18  C   UNL     1      -4.625  10.995  17.402  0.00  0.00    +0.000 A 
ATOM     19  C   UNL     1      -4.196  11.505  18.631  0.00  0.00    +0.000 A 
ENDBRANCH  12  14
ENDBRANCH   1  13
BRANCH   2  20
ATOM     20  C   UNL     1       0.940   9.236  20.121  0.00  0.00    +0.000 A 
ATOM     21  C   UNL     1       0.986   8.321  21.172  0.00  0.00    +0.000 A 
ATOM     22  C   UNL     1       1.663   7.115  20.994  0.00  0.00    +0.000 A 
ATOM     23  C   UNL     1       2.301   6.834  19.782  0.00  0.00    +0.000 A 
ATOM     24  C   UNL     1       2.264   7.767  18.741  0.00  0.00    +0.000 A 
ATOM     25  C   UNL     1       1.560   8.960  18.900  0.00  0.00    +0.000 A 
BRANCH  23  26
ATOM     26  O   UNL     1       3.000   5.649  19.758  0.00  0.00    +0.000 OA
BRANCH  26  27
ATOM     27  C   UNL     1       3.561   5.206  18.585  0.00  0.00    +0.000 A 
ATOM     28  C   UNL     1       2.942   4.290  17.736  0.00  0.00    +0.000 A 
ATOM     29  C   UNL     1       3.586   3.882  16.567  0.00  0.00    +0.000 A 
ATOM     30  C   UNL     1       4.863   4.365  16.252  0.00  0.00    +0.000 A 
ATOM     31  C   UNL     1       5.513   3.979  15.071  0.00  0.00    +0.000 A 
ATOM     32  C   UNL     1       6.778   4.480  14.757  0.00  0.00    +0.000 A 
ATOM     33  C   UNL     1       7.417   5.354  15.633  0.00  0.00    +0.000 A 
ATOM     34  C   UNL     1       6.793   5.734  16.822  0.00  0.00    +0.000 A 
ATOM     35  C   UNL     1       5.510   5.259  17.137  0.00  0.00    +0.000 A 
ATOM     36  C   UNL     1       4.850   5.662  18.308  0.00  0.00    +0.000 A 
ENDBRANCH  26  27
ENDBRANCH  23  26
ENDBRANCH   2  20
TORSDOF 5
ENDMDL
MODEL 3
REMARK VINA RESULT:      -9.2      3.101     11.158
REMARK  Name = 
REMARK  5 active torsions:
REMARK  status: ('A' for Active; 'I' for Inactive)
REMARK    1  A    between atoms: C_10  and  C_11
REMARK    2  A    between atoms: N_17  and  N_18
REMARK    3  A    between atoms: C_19  and  C_20
REMARK    4  A    between atoms: C_23  and  O_24
REMARK    5  A    between atoms: O_24  and  C_25
REMARK                            x       y       z     vdW  Elec       q    Type
REMARK                         _______ _______ _______ _____ _____    ______ ____
ROOT
ATOM      1  N   UNL     1       3.279   6.808  19.215  0.00  0.00    +0.000 NA
ATOM      2  C   UNL     1       2.489   7.754  18.823  0.00  0.00    +0.000 C 
ENDROOT
BRANCH   1  13
ATOM      3  O   UNL     1       4.469   7.665  16.764  0.00  0.00    +0.000 OA
ATOM      4  C   UNL     1       4.430   6.479  17.103  0.00  0.00    +0.000 A 
ATOM      5  C   UNL     1       5.050   5.498  16.206  0.00  0.00    +0.000 A 
ATOM      6  C   UNL     1       5.850   5.912  15.133  0.00  0.00    +0.000 A 
ATOM      7  C   UNL     1       6.404   4.961  14.280  0.00  0.00    +0.000 A 
ATOM      8  C   UNL     1       6.144   3.609  14.494  0.00  0.00    +0.000 A 
ATOM      9  C   UNL     1       5.348   3.209  15.572  0.00  0.00    +0.000 A 
ATOM     10  C   UNL     1       4.804   4.152  16.447  0.00  0.00    +0.000 A 
ATOM     11  N   UNL     1       4.021   3.709  17.518  0.00  0.00    +0.000 NA
ATOM     12  C   UNL     1       3.551   4.580  18.363  0.00  0.00    +0.000 A 
ATOM     13  N   UNL     1       3.815   5.956  18.256  0.00  0.00    +0.000 N 
BRANCH  12  14
ATOM     14  C   UNL     1       2.699   4.045  19.478  0.00  0.00    +0.000 A 
ATOM     15  C   UNL     1       3.342   3.435  20.568  0.00  0.00    +0.000 A 
ATOM     16  C   UNL     1       2.601   2.772  21.549  0.00  0.00    +0.000 A 
ATOM     17  C   UNL     1       1.212   2.719  21.455  0.00  0.00    +0.000 A 
ATOM     18  C   UNL     1       0.563   3.339  20.391  0.00  0.00    +0.000 A 
ATOM     19  C   UNL     1       1.302   3.987  19.397  0.00  0.00    +0.000 A 
ENDBRANCH  12  14
ENDBRANCH   1  13
BRANCH   2  20
ATOM     20  C   UNL     1       1.719   8.556  19.781  0.00  0.00    +0.000 A 
ATOM     21  C   UNL     1       1.258   9.831  19.456  0.00  0.00    +0.000 A 
ATOM     22  C   UNL     1       0.601  10.585  20.428  0.00  0.00    +0.000 A 
ATOM     23  C   UNL     1       0.420  10.074  21.717  0.00  0.00    +0.000 A 
ATOM     24  C   UNL     1       0.903   8.801  22.038  0.00  0.00    +0.000 A 
ATOM     25  C   UNL     1       1.531   8.029  21.061  0.00  0.00    +0.000 A 
BRANCH  23  26
ATOM     26  O   UNL     1      -0.171  10.943  22.606  0.00  0.00    +0.000 OA
BRANCH  26  27
ATOM     27  C   UNL     1      -1.362  11.548  22.287  0.00  0.00    +0.000 A 
ATOM     28  C   UNL     1      -1.666  12.021  21.011  0.00  0.00    +0.000 A 
ATOM     29  C   UNL     1      -2.896  12.634  20.774  0.00  0.00    +0.000 A 
ATOM     30  C   UNL     1      -3.820  12.804  21.814  0.00  0.00    +0.000 A 
ATOM     31  C   UNL     1      -5.068  13.400  21.583  0.00  0.00    +0.000 A 
ATOM     32  C   UNL     1      -5.989  13.549  22.622  0.00  0.00    +0.000 A 
ATOM     33  C   UNL     1      -5.662  13.123  23.908  0.00  0.00    +0.000 A 
ATOM     34  C   UNL     1      -4.418  12.545  24.158  0.00  0.00    +0.000 A 
ATOM     35  C   UNL     1      -3.493  12.365  23.118  0.00  0.00    +0.000 A 
ATOM     36  C   UNL     1      -2.253  11.748  23.342  0.00  0.00    +0.000 A 
ENDBRANCH  26  27
ENDBRANCH  23  26
ENDBRANCH   2  20
TORSDOF 5
ENDMDL
MODEL 4
REMARK VINA RESULT:      -9.2      3.116     11.148
REMARK  Name = 
REMARK  5 active torsions:
REMARK  status: ('A' for Active; 'I' for Inactive)
REMARK    1  A    between atoms: C_10  and  C_11
REMARK    2  A    between atoms: N_17  and  N_18
REMARK    3  A    between atoms: C_19  and  C_20
REMARK    4  A    between atoms: C_23  and  O_24
REMARK    5  A    between atoms: O_24  and  C_25
REMARK                            x       y       z     vdW  Elec       q    Type
REMARK                         _______ _______ _______ _____ _____    ______ ____
ROOT
ATOM      1  N   UNL     1       3.196   6.541  19.205  0.00  0.00    +0.000 NA
ATOM      2  C   UNL     1       2.455   7.536  18.836  0.00  0.00    +0.000 C 
ENDROOT
BRANCH   1  13
ATOM      3  O   UNL     1       4.376   7.594  16.826  0.00  0.00    +0.000 OA
ATOM      4  C   UNL     1       4.410   6.392  17.108  0.00  0.00    +0.000 A 
ATOM      5  C   UNL     1       5.113   5.499  16.180  0.00  0.00    +0.000 A 
ATOM      6  C   UNL     1       5.906   6.018  15.147  0.00  0.00    +0.000 A 
ATOM      7  C   UNL     1       6.541   5.149  14.264  0.00  0.00    +0.000 A 
ATOM      8  C   UNL     1       6.368   3.773  14.408  0.00  0.00    +0.000 A 
ATOM      9  C   UNL     1       5.578   3.269  15.446  0.00  0.00    +0.000 A 
ATOM     10  C   UNL     1       4.954   4.130  16.351  0.00  0.00    +0.000 A 
ATOM     11  N   UNL     1       4.180   3.585  17.380  0.00  0.00    +0.000 NA
ATOM     12  C   UNL     1       3.635   4.381  18.255  0.00  0.00    +0.000 A 
ATOM     13  N   UNL     1       3.808   5.775  18.219  0.00  0.00    +0.000 N 
BRANCH  12  14
ATOM     14  C   UNL     1       2.798   3.736  19.322  0.00  0.00    +0.000 A 
ATOM     15  C   UNL     1       1.402   3.745  19.164  0.00  0.00    +0.000 A 
ATOM     16  C   UNL     1       0.568   3.313  20.198  0.00  0.00    +0.000 A 
ATOM     17  C   UNL     1       1.119   2.861  21.395  0.00  0.00    +0.000 A 
ATOM     18  C   UNL     1       2.502   2.827  21.554  0.00  0.00    +0.000 A 
ATOM     19  C   UNL     1       3.340   3.276  20.529  0.00  0.00    +0.000 A 
ENDBRANCH  12  14
ENDBRANCH   1  13
BRANCH   2  20
ATOM     20  C   UNL     1       1.610   8.258  19.795  0.00  0.00    +0.000 A 
ATOM     21  C   UNL     1       1.559   7.891  21.139  0.00  0.00    +0.000 A 
ATOM     22  C   UNL     1       0.681   8.556  21.993  0.00  0.00    +0.000 A 
ATOM     23  C   UNL     1      -0.150   9.569  21.504  0.00  0.00    +0.000 A 
ATOM     24  C   UNL     1      -0.104   9.917  20.150  0.00  0.00    +0.000 A 
ATOM     25  C   UNL     1       0.795   9.278  19.297  0.00  0.00    +0.000 A 
BRANCH  23  26
ATOM     26  O   UNL     1      -1.026  10.095  22.426  0.00  0.00    +0.000 OA
BRANCH  26  27
ATOM     27  C   UNL     1      -1.166  11.455  22.544  0.00  0.00    +0.000 A 
ATOM     28  C   UNL     1      -0.209  12.367  22.100  0.00  0.00    +0.000 A 
ATOM     29  C   UNL     1      -0.424  13.735  22.268  0.00  0.00    +0.000 A 
ATOM     30  C   UNL     1      -1.582  14.201  22.906  0.00  0.00    +0.000 A 
ATOM     31  C   UNL     1      -1.819  15.575  23.062  0.00  0.00    +0.000 A 
ATOM     32  C   UNL     1      -2.985  16.030  23.683  0.00  0.00    +0.000 A 
ATOM     33  C   UNL     1      -3.915  15.115  24.173  0.00  0.00    +0.000 A 
ATOM     34  C   UNL     1      -3.685  13.746  24.041  0.00  0.00    +0.000 A 
ATOM     35  C   UNL     1      -2.531  13.275  23.396  0.00  0.00    +0.000 A 
ATOM     36  C   UNL     1      -2.303  11.901  23.219  0.00  0.00    +0.000 A 
ENDBRANCH  26  27
ENDBRANCH  23  26
ENDBRANCH   2  20
TORSDOF 5
ENDMDL
MODEL 5
REMARK VINA RESULT:      -9.0      2.793      3.917
REMARK  Name = 
REMARK  5 active torsions:
REMARK  status: ('A' for Active; 'I' for Inactive)
REMARK    1  A    between atoms: C_10  and  C_11
REMARK    2  A    between atoms: N_17  and  N_18
REMARK    3  A    between atoms: C_19  and  C_20
REMARK    4  A    between atoms: C_23  and  O_24
REMARK    5  A    between atoms: O_24  and  C_25
REMARK                            x       y       z     vdW  Elec       q    Type
REMARK                         _______ _______ _______ _____ _____    ______ ____
ROOT
ATOM      1  N   UNL     1       0.839  12.404  20.030  0.00  0.00    +0.000 NA
ATOM      2  C   UNL     1       0.690  11.501  19.116  0.00  0.00    +0.000 C 
ENDROOT
BRANCH   1  13
ATOM      3  O   UNL     1       2.633  14.221  18.748  0.00  0.00    +0.000 OA
ATOM      4  C   UNL     1       1.468  14.523  19.027  0.00  0.00    +0.000 A 
ATOM      5  C   UNL     1       1.009  15.864  18.650  0.00  0.00    +0.000 A 
ATOM      6  C   UNL     1       1.781  16.676  17.807  0.00  0.00    +0.000 A 
ATOM      7  C   UNL     1       1.335  17.955  17.486  0.00  0.00    +0.000 A 
ATOM      8  C   UNL     1       0.134  18.419  18.019  0.00  0.00    +0.000 A 
ATOM      9  C   UNL     1      -0.629  17.597  18.855  0.00  0.00    +0.000 A 
ATOM     10  C   UNL     1      -0.203  16.304  19.166  0.00  0.00    +0.000 A 
ATOM     11  N   UNL     1      -0.999  15.511  19.998  0.00  0.00    +0.000 NA
ATOM     12  C   UNL     1      -0.630  14.289  20.253  0.00  0.00    +0.000 A 
ATOM     13  N   UNL     1       0.535  13.722  19.709  0.00  0.00    +0.000 N 
BRANCH  12  14
ATOM     14  C   UNL     1      -1.516  13.496  21.171  0.00  0.00    +0.000 A 
ATOM     15  C   UNL     1      -2.875  13.373  20.837  0.00  0.00    +0.000 A 
ATOM     16  C   UNL     1      -3.776  12.795  21.732  0.00  0.00    +0.000 A 
ATOM     17  C   UNL     1      -3.330  12.326  22.966  0.00  0.00    +0.000 A 
ATOM     18  C   UNL     1      -1.980  12.422  23.298  0.00  0.00    +0.000 A 
ATOM     19  C   UNL     1      -1.078  13.018  22.413  0.00  0.00    +0.000 A 
ENDBRANCH  12  14
ENDBRANCH   1  13
BRANCH   2  20
ATOM     20  C   UNL     1       1.186  10.132  19.304  0.00  0.00    +0.000 A 
ATOM     21  C   UNL     1       1.657   9.376  18.231  0.00  0.00    +0.000 A 
ATOM     22  C   UNL     1       2.042   8.054  18.448  0.00  0.00    +0.000 A 
ATOM     23  C   UNL     1       1.944   7.488  19.723  0.00  0.00    +0.000 A 
ATOM     24  C   UNL     1       1.452   8.250  20.789  0.00  0.00    +0.000 A 
ATOM     25  C   UNL     1       1.097   9.582  20.586  0.00  0.00    +0.000 A 
BRANCH  23  26
ATOM     26  O   UNL     1       2.280   6.155  19.792  0.00  0.00    +0.000 OA
BRANCH  26  27
ATOM     27  C   UNL     1       2.995   5.573  18.775  0.00  0.00    +0.000 A 
ATOM     28  C   UNL     1       2.518   4.506  18.015  0.00  0.00    +0.000 A 
ATOM     29  C   UNL     1       3.314   3.964  17.005  0.00  0.00    +0.000 A 
ATOM     30  C   UNL     1       4.601   4.465  16.765  0.00  0.00    +0.000 A 
ATOM     31  C   UNL     1       5.402   3.943  15.740  0.00  0.00    +0.000 A 
ATOM     32  C   UNL     1       6.676   4.460  15.497  0.00  0.00    +0.000 A 
ATOM     33  C   UNL     1       7.171   5.492  16.293  0.00  0.00    +0.000 A 
ATOM     34  C   UNL     1       6.394   6.010  17.329  0.00  0.00    +0.000 A 
ATOM     35  C   UNL     1       5.101   5.517  17.567  0.00  0.00    +0.000 A 
ATOM     36  C   UNL     1       4.290   6.054  18.578  0.00  0.00    +0.000 A 
ENDBRANCH  26  27
ENDBRANCH  23  26
ENDBRANCH   2  20
TORSDOF 5
ENDMDL
MODEL 6
REMARK VINA RESULT:      -9.0      2.070      3.021
REMARK  Name = 
REMARK  5 active torsions:
REMARK  status: ('A' for Active; 'I' for Inactive)
REMARK    1  A    between atoms: C_10  and  C_11
REMARK    2  A    between atoms: N_17  and  N_18
REMARK    3  A    between atoms: C_19  and  C_20
REMARK    4  A    between atoms: C_23  and  O_24
REMARK    5  A    between atoms: O_24  and  C_25
REMARK                            x       y       z     vdW  Elec       q    Type
REMARK                         _______ _______ _______ _____ _____    ______ ____
ROOT
ATOM      1  N   UNL     1      -1.026  11.695  19.905  0.00  0.00    +0.000 NA
ATOM      2  C   UNL     1      -0.732  10.461  20.162  0.00  0.00    +0.000 C 
ENDROOT
BRANCH   1  13
ATOM      3  O   UNL     1      -1.508  12.597  22.572  0.00  0.00    +0.000 OA
ATOM      4  C   UNL     1      -2.363  12.664  21.684  0.00  0.00    +0.000 A 
ATOM      5  C   UNL     1      -3.657  13.259  22.036  0.00  0.00    +0.000 A 
ATOM      6  C   UNL     1      -3.831  13.929  23.255  0.00  0.00    +0.000 A 
ATOM      7  C   UNL     1      -5.077  14.461  23.575  0.00  0.00    +0.000 A 
ATOM      8  C   UNL     1      -6.141  14.307  22.688  0.00  0.00    +0.000 A 
ATOM      9  C   UNL     1      -5.952  13.641  21.473  0.00  0.00    +0.000 A 
ATOM     10  C   UNL     1      -4.701  13.122  21.130  0.00  0.00    +0.000 A 
ATOM     11  N   UNL     1      -4.553  12.471  19.902  0.00  0.00    +0.000 NA
ATOM     12  C   UNL     1      -3.378  12.027  19.557  0.00  0.00    +0.000 A 
ATOM     13  N   UNL     1      -2.241  12.192  20.365  0.00  0.00    +0.000 N 
BRANCH  12  14
ATOM     14  C   UNL     1      -3.288  11.317  18.236  0.00  0.00    +0.000 A 
ATOM     15  C   UNL     1      -3.845  10.031  18.137  0.00  0.00    +0.000 A 
ATOM     16  C   UNL     1      -3.645   9.258  16.991  0.00  0.00    +0.000 A 
ATOM     17  C   UNL     1      -2.895   9.764  15.932  0.00  0.00    +0.000 A 
ATOM     18  C   UNL     1      -2.358  11.046  16.010  0.00  0.00    +0.000 A 
ATOM     19  C   UNL     1      -2.539  11.816  17.163  0.00  0.00    +0.000 A 
ENDBRANCH  12  14
ENDBRANCH   1  13
BRANCH   2  20
ATOM     20  C   UNL     1       0.421   9.802  19.537  0.00  0.00    +0.000 A 
ATOM     21  C   UNL     1       0.814  10.109  18.235  0.00  0.00    +0.000 A 
ATOM     22  C   UNL     1       1.866   9.399  17.657  0.00  0.00    +0.000 A 
ATOM     23  C   UNL     1       2.508   8.381  18.370  0.00  0.00    +0.000 A 
ATOM     24  C   UNL     1       2.092   8.069  19.669  0.00  0.00    +0.000 A 
ATOM     25  C   UNL     1       1.064   8.798  20.264  0.00  0.00    +0.000 A 
BRANCH  23  26
ATOM     26  O   UNL     1       3.476   7.702  17.665  0.00  0.00    +0.000 OA
BRANCH  26  27
ATOM     27  C   UNL     1       3.556   6.334  17.750  0.00  0.00    +0.000 A 
ATOM     28  C   UNL     1       4.706   5.612  17.435  0.00  0.00    +0.000 A 
ATOM     29  C   UNL     1       4.700   4.220  17.538  0.00  0.00    +0.000 A 
ATOM     30  C   UNL     1       3.539   3.539  17.929  0.00  0.00    +0.000 A 
ATOM     31  C   UNL     1       3.527   2.143  18.056  0.00  0.00    +0.000 A 
ATOM     32  C   UNL     1       2.370   1.475  18.463  0.00  0.00    +0.000 A 
ATOM     33  C   UNL     1       1.207   2.195  18.726  0.00  0.00    +0.000 A 
ATOM     34  C   UNL     1       1.197   3.583  18.587  0.00  0.00    +0.000 A 
ATOM     35  C   UNL     1       2.360   4.269  18.204  0.00  0.00    +0.000 A 
ATOM     36  C   UNL     1       2.380   5.669  18.098  0.00  0.00    +0.000 A 
ENDBRANCH  26  27
ENDBRANCH  23  26
ENDBRANCH   2  20
TORSDOF 5
ENDMDL
MODEL 7
REMARK VINA RESULT:      -9.0      2.660      3.845
REMARK  Name = 
REMARK  5 active torsions:
REMARK  status: ('A' for Active; 'I' for Inactive)
REMARK    1  A    between atoms: C_10  and  C_11
REMARK    2  A    between atoms: N_17  and  N_18
REMARK    3  A    between atoms: C_19  and  C_20
REMARK    4  A    between atoms: C_23  and  O_24
REMARK    5  A    between atoms: O_24  and  C_25
REMARK                            x       y       z     vdW  Elec       q    Type
REMARK                         _______ _______ _______ _____ _____    ______ ____
ROOT
ATOM      1  N   UNL     1      -2.712  12.437  21.164  0.00  0.00    +0.000 NA
ATOM      2  C   UNL     1      -1.592  12.316  20.528  0.00  0.00    +0.000 C 
ENDROOT
BRANCH   1  13
ATOM      3  O   UNL     1      -1.873  14.747  22.621  0.00  0.00    +0.000 OA
ATOM      4  C   UNL     1      -2.834  14.764  21.845  0.00  0.00    +0.000 A 
ATOM      5  C   UNL     1      -3.535  16.040  21.664  0.00  0.00    +0.000 A 
ATOM      6  C   UNL     1      -2.996  17.232  22.169  0.00  0.00    +0.000 A 
ATOM      7  C   UNL     1      -3.695  18.425  22.007  0.00  0.00    +0.000 A 
ATOM      8  C   UNL     1      -4.929  18.418  21.360  0.00  0.00    +0.000 A 
ATOM      9  C   UNL     1      -5.452  17.222  20.857  0.00  0.00    +0.000 A 
ATOM     10  C   UNL     1      -4.751  16.023  20.993  0.00  0.00    +0.000 A 
ATOM     11  N   UNL     1      -5.304  14.852  20.468  0.00  0.00    +0.000 NA
ATOM     12  C   UNL     1      -4.633  13.739  20.550  0.00  0.00    +0.000 A 
ATOM     13  N   UNL     1      -3.356  13.669  21.134  0.00  0.00    +0.000 N 
BRANCH  12  14
ATOM     14  C   UNL     1      -5.292  12.512  19.988  0.00  0.00    +0.000 A 
ATOM     15  C   UNL     1      -4.939  12.108  18.690  0.00  0.00    +0.000 A 
ATOM     16  C   UNL     1      -5.637  11.079  18.053  0.00  0.00    +0.000 A 
ATOM     17  C   UNL     1      -6.686  10.439  18.708  0.00  0.00    +0.000 A 
ATOM     18  C   UNL     1      -7.029  10.817  20.004  0.00  0.00    +0.000 A 
ATOM     19  C   UNL     1      -6.346  11.859  20.638  0.00  0.00    +0.000 A 
ENDBRANCH  12  14
ENDBRANCH   1  13
BRANCH   2  20
ATOM     20  C   UNL     1      -0.747  11.125  20.684  0.00  0.00    +0.000 A 
ATOM     21  C   UNL     1      -0.458  10.599  21.942  0.00  0.00    +0.000 A 
ATOM     22  C   UNL     1       0.413   9.515  22.042  0.00  0.00    +0.000 A 
ATOM     23  C   UNL     1       1.001   8.972  20.896  0.00  0.00    +0.000 A 
ATOM     24  C   UNL     1       0.718   9.519  19.640  0.00  0.00    +0.000 A 
ATOM     25  C   UNL     1      -0.178  10.581  19.530  0.00  0.00    +0.000 A 
BRANCH  23  26
ATOM     26  O   UNL     1       1.901   7.957  21.132  0.00  0.00    +0.000 OA
BRANCH  26  27
ATOM     27  C   UNL     1       2.035   6.933  20.228  0.00  0.00    +0.000 A 
ATOM     28  C   UNL     1       2.499   7.114  18.926  0.00  0.00    +0.000 A 
ATOM     29  C   UNL     1       2.595   6.020  18.066  0.00  0.00    +0.000 A 
ATOM     30  C   UNL     1       2.203   4.743  18.490  0.00  0.00    +0.000 A 
ATOM     31  C   UNL     1       2.314   3.632  17.641  0.00  0.00    +0.000 A 
ATOM     32  C   UNL     1       1.938   2.361  18.080  0.00  0.00    +0.000 A 
ATOM     33  C   UNL     1       1.425   2.191  19.364  0.00  0.00    +0.000 A 
ATOM     34  C   UNL     1       1.291   3.289  20.214  0.00  0.00    +0.000 A 
ATOM     35  C   UNL     1       1.690   4.568  19.796  0.00  0.00    +0.000 A 
ATOM     36  C   UNL     1       1.600   5.677  20.651  0.00  0.00    +0.000 A 
ENDBRANCH  26  27
ENDBRANCH  23  26
ENDBRANCH   2  20
TORSDOF 5
ENDMDL
MODEL 8
REMARK VINA RESULT:      -9.0      2.918      4.246
REMARK  Name = 
REMARK  5 active torsions:
REMARK  status: ('A' for Active; 'I' for Inactive)
REMARK    1  A    between atoms: C_10  and  C_11
REMARK    2  A    between atoms: N_17  and  N_18
REMARK    3  A    between atoms: C_19  and  C_20
REMARK    4  A    between atoms: C_23  and  O_24
REMARK    5  A    between atoms: O_24  and  C_25
REMARK                            x       y       z     vdW  Elec       q    Type
REMARK                         _______ _______ _______ _____ _____    ______ ____
ROOT
ATOM      1  N   UNL     1      -3.218  12.225  21.951  0.00  0.00    +0.000 NA
ATOM      2  C   UNL     1      -1.937  12.404  21.921  0.00  0.00    +0.000 C 
ENDROOT
BRANCH   1  13
ATOM      3  O   UNL     1      -2.947  13.846  24.288  0.00  0.00    +0.000 OA
ATOM      4  C   UNL     1      -3.780  14.084  23.407  0.00  0.00    +0.000 A 
ATOM      5  C   UNL     1      -4.630  15.267  23.583  0.00  0.00    +0.000 A 
ATOM      6  C   UNL     1      -4.351  16.208  24.583  0.00  0.00    +0.000 A 
ATOM      7  C   UNL     1      -5.190  17.307  24.746  0.00  0.00    +0.000 A 
ATOM      8  C   UNL     1      -6.305  17.451  23.923  0.00  0.00    +0.000 A 
ATOM      9  C   UNL     1      -6.568  16.507  22.925  0.00  0.00    +0.000 A 
ATOM     10  C   UNL     1      -5.722  15.412  22.737  0.00  0.00    +0.000 A 
ATOM     11  N   UNL     1      -6.016  14.496  21.723  0.00  0.00    +0.000 NA
ATOM     12  C   UNL     1      -5.205  13.499  21.513  0.00  0.00    +0.000 A 
ATOM     13  N   UNL     1      -4.028  13.313  22.257  0.00  0.00    +0.000 N 
BRANCH  12  14
ATOM     14  C   UNL     1      -5.587  12.537  20.424  0.00  0.00    +0.000 A 
ATOM     15  C   UNL     1      -6.681  11.685  20.648  0.00  0.00    +0.000 A 
ATOM     16  C   UNL     1      -6.977  10.660  19.747  0.00  0.00    +0.000 A 
ATOM     17  C   UNL     1      -6.191  10.482  18.611  0.00  0.00    +0.000 A 
ATOM     18  C   UNL     1      -5.118  11.336  18.367  0.00  0.00    +0.000 A 
ATOM     19  C   UNL     1      -4.806  12.351  19.276  0.00  0.00    +0.000 A 
ENDBRANCH  12  14
ENDBRANCH   1  13
BRANCH   2  20
ATOM     20  C   UNL     1      -1.008  11.271  21.817  0.00  0.00    +0.000 A 
ATOM     21  C   UNL     1      -0.642  10.528  22.938  0.00  0.00    +0.000 A 
ATOM     22  C   UNL     1       0.305   9.513  22.801  0.00  0.00    +0.000 A 
ATOM     23  C   UNL     1       0.891   9.255  21.557  0.00  0.00    +0.000 A 
ATOM     24  C   UNL     1       0.529  10.020  20.443  0.00  0.00    +0.000 A 
ATOM     25  C   UNL     1      -0.441  11.014  20.566  0.00  0.00    +0.000 A 
BRANCH  23  26
ATOM     26  O   UNL     1       1.866   8.284  21.567  0.00  0.00    +0.000 OA
BRANCH  26  27
ATOM     27  C   UNL     1       1.914   7.349  20.563  0.00  0.00    +0.000 A 
ATOM     28  C   UNL     1       2.361   7.629  19.273  0.00  0.00    +0.000 A 
ATOM     29  C   UNL     1       2.368   6.622  18.307  0.00  0.00    +0.000 A 
ATOM     30  C   UNL     1       1.903   5.336  18.615  0.00  0.00    +0.000 A 
ATOM     31  C   UNL     1       1.924   4.310  17.659  0.00  0.00    +0.000 A 
ATOM     32  C   UNL     1       1.475   3.028  17.981  0.00  0.00    +0.000 A 
ATOM     33  C   UNL     1       0.980   2.763  19.256  0.00  0.00    +0.000 A 
ATOM     34  C   UNL     1       0.936   3.777  20.213  0.00  0.00    +0.000 A 
ATOM     35  C   UNL     1       1.408   5.064  19.911  0.00  0.00    +0.000 A 
ATOM     36  C   UNL     1       1.408   6.086  20.874  0.00  0.00    +0.000 A 
ENDBRANCH  26  27
ENDBRANCH  23  26
ENDBRANCH   2  20
TORSDOF 5
ENDMDL
MODEL 9
REMARK VINA RESULT:      -9.0      2.992     11.127
REMARK  Name = 
REMARK  5 active torsions:
REMARK  status: ('A' for Active; 'I' for Inactive)
REMARK    1  A    between atoms: C_10  and  C_11
REMARK    2  A    between atoms: N_17  and  N_18
REMARK    3  A    between atoms: C_19  and  C_20
REMARK    4  A    between atoms: C_23  and  O_24
REMARK    5  A    between atoms: O_24  and  C_25
REMARK                            x       y       z     vdW  Elec       q    Type
REMARK                         _______ _______ _______ _____ _____    ______ ____
ROOT
ATOM      1  N   UNL     1       3.014   6.819  19.099  0.00  0.00    +0.000 NA
ATOM      2  C   UNL     1       2.374   7.839  18.627  0.00  0.00    +0.000 C 
ENDROOT
BRANCH   1  13
ATOM      3  O   UNL     1       4.237   7.678  16.664  0.00  0.00    +0.000 OA
ATOM      4  C   UNL     1       4.287   6.508  17.055  0.00  0.00    +0.000 A 
ATOM      5  C   UNL     1       5.033   5.551  16.231  0.00  0.00    +0.000 A 
ATOM      6  C   UNL     1       5.843   5.992  15.175  0.00  0.00    +0.000 A 
ATOM      7  C   UNL     1       6.519   5.061  14.392  0.00  0.00    +0.000 A 
ATOM      8  C   UNL     1       6.370   3.700  14.656  0.00  0.00    +0.000 A 
ATOM      9  C   UNL     1       5.563   3.275  15.716  0.00  0.00    +0.000 A 
ATOM     10  C   UNL     1       4.898   4.200  16.523  0.00  0.00    +0.000 A 
ATOM     11  N   UNL     1       4.108   3.733  17.578  0.00  0.00    +0.000 NA
ATOM     12  C   UNL     1       3.523   4.592  18.362  0.00  0.00    +0.000 A 
ATOM     13  N   UNL     1       3.668   5.980  18.203  0.00  0.00    +0.000 N 
BRANCH  12  14
ATOM     14  C   UNL     1       2.671   4.028  19.463  0.00  0.00    +0.000 A 
ATOM     15  C   UNL     1       3.315   3.485  20.587  0.00  0.00    +0.000 A 
ATOM     16  C   UNL     1       2.586   2.798  21.560  0.00  0.00    +0.000 A 
ATOM     17  C   UNL     1       1.208   2.654  21.425  0.00  0.00    +0.000 A 
ATOM     18  C   UNL     1       0.555   3.207  20.325  0.00  0.00    +0.000 A 
ATOM     19  C   UNL     1       1.284   3.879  19.340  0.00  0.00    +0.000 A 
ENDBRANCH  12  14
ENDBRANCH   1  13
BRANCH   2  20
ATOM     20  C   UNL     1       1.487   8.646  19.476  0.00  0.00    +0.000 A 
ATOM     21  C   UNL     1       1.303   8.346  20.825  0.00  0.00    +0.000 A 
ATOM     22  C   UNL     1       0.390   9.093  21.568  0.00  0.00    +0.000 A 
ATOM     23  C   UNL     1      -0.342  10.120  20.965  0.00  0.00    +0.000 A 
ATOM     24  C   UNL     1      -0.162  10.400  19.606  0.00  0.00    +0.000 A 
ATOM     25  C   UNL     1       0.773   9.679  18.865  0.00  0.00    +0.000 A 
BRANCH  23  26
ATOM     26  O   UNL     1      -1.266  10.730  21.783  0.00  0.00    +0.000 OA
BRANCH  26  27
ATOM     27  C   UNL     1      -1.078  12.030  22.182  0.00  0.00    +0.000 A 
ATOM     28  C   UNL     1      -0.028  12.829  21.729  0.00  0.00    +0.000 A 
ATOM     29  C   UNL     1       0.097  14.138  22.193  0.00  0.00    +0.000 A 
ATOM     30  C   UNL     1      -0.807  14.651  23.133  0.00  0.00    +0.000 A 
ATOM     31  C   UNL     1      -0.704  15.972  23.592  0.00  0.00    +0.000 A 
ATOM     32  C   UNL     1      -1.621  16.479  24.515  0.00  0.00    +0.000 A 
ATOM     33  C   UNL     1      -2.638  15.663  25.006  0.00  0.00    +0.000 A 
ATOM     34  C   UNL     1      -2.743  14.341  24.574  0.00  0.00    +0.000 A 
ATOM     35  C   UNL     1      -1.845  13.826  23.627  0.00  0.00    +0.000 A 
ATOM     36  C   UNL     1      -1.960  12.511  23.150  0.00  0.00    +0.000 A 
ENDBRANCH  26  27
ENDBRANCH  23  26
ENDBRANCH   2  20
TORSDOF 5
ENDMDL
