MODEL 1
REMARK VINA RESULT:      -8.3      0.000      0.000
REMARK  Name = 
REMARK  7 active torsions:
REMARK  status: ('A' for Active; 'I' for Inactive)
REMARK    1  A    between atoms: C_2  and  C_19
REMARK    2  A    between atoms: N_3  and  C_4
REMARK    3  A    between atoms: C_4  and  C_5
REMARK    4  A    between atoms: N_7  and  C_8
REMARK    5  A    between atoms: N_7  and  C_11
REMARK    6  A    between atoms: C_8  and  C_9
REMARK    7  A    between atoms: C_9  and  O_10
REMARK                            x       y       z     vdW  Elec       q    Type
REMARK                         _______ _______ _______ _____ _____    ______ ____
ROOT
ATOM      1  C   UNL     1       6.178   6.564  16.811  0.00  0.00    +0.000 C 
ENDROOT
BRANCH   1   4
ATOM      2  O   UNL     1       8.180   6.870  18.673  0.00  0.00    +0.000 OA
ATOM      3  C   UNL     1       7.787   7.877  18.087  0.00  0.00    +0.000 C 
ATOM      4  N   UNL     1       6.755   7.836  17.190  0.00  0.00    +0.000 N 
ATOM      5  H   UNL     1       6.462   8.665  16.687  0.00  0.00    +0.000 HD
BRANCH   3   6
ATOM      6  C   UNL     1       8.409   9.164  18.273  0.00  0.00    +0.000 A 
ATOM      7  C   UNL     1       8.429  10.318  17.509  0.00  0.00    +0.000 A 
ATOM      8  C   UNL     1       9.236  11.281  18.180  0.00  0.00    +0.000 A 
ATOM      9  C   UNL     1       9.615  12.606  17.893  0.00  0.00    +0.000 A 
ATOM     10  C   UNL     1      10.435  13.284  18.800  0.00  0.00    +0.000 A 
ATOM     11 CL   UNL     1      10.902  14.907  18.460  0.00  0.00    +0.000 Cl
ATOM     12  C   UNL     1      10.881  12.672  19.969  0.00  0.00    +0.000 A 
ATOM     13  C   UNL     1      10.514  11.357  20.272  0.00  0.00    +0.000 A 
ATOM     14  C   UNL     1       9.690  10.692  19.357  0.00  0.00    +0.000 A 
ATOM     15  N   UNL     1       9.167   9.423  19.394  0.00  0.00    +0.000 N 
ATOM     16  H   UNL     1       9.315   8.747  20.132  0.00  0.00    +0.000 HD
ENDBRANCH   3   6
ENDBRANCH   1   4
BRANCH   1  17
ATOM     17  C   UNL     1       4.682   6.537  17.121  0.00  0.00    +0.000 C 
ATOM     18  O   UNL     1       4.052   7.596  17.067  0.00  0.00    +0.000 OA
ATOM     19  N   UNL     1       4.080   5.336  17.496  0.00  0.00    +0.000 N 
BRANCH  19  20
ATOM     20  C   UNL     1       2.651   5.273  17.895  0.00  0.00    +0.000 C 
ATOM     21  C   UNL     1       2.314   5.826  19.295  0.00  0.00    +0.000 C 
ATOM     22  C   UNL     1       2.513   4.910  20.494  0.00  0.00    +0.000 C 
ATOM     23  S   UNL     1       1.833   3.283  20.257  0.00  0.00    +0.000 S 
ATOM     24  O   UNL     1       2.493   2.369  21.167  0.00  0.00    +0.000 OA
ATOM     25  O   UNL     1       0.386   3.432  20.293  0.00  0.00    +0.000 OA
ATOM     26  C   UNL     1       2.249   2.813  18.590  0.00  0.00    +0.000 C 
ATOM     27  C   UNL     1       1.979   3.925  17.595  0.00  0.00    +0.000 C 
ENDBRANCH  19  20
BRANCH  19  28
ATOM     28  C   UNL     1       4.873   4.101  17.700  0.00  0.00    +0.000 C 
BRANCH  28  29
ATOM     29  C   UNL     1       5.585   4.023  19.059  0.00  0.00    +0.000 C 
BRANCH  29  30
ATOM     30  O   UNL     1       5.293   2.802  19.725  0.00  0.00    +0.000 OA
ATOM     31  H   UNL     1       5.933   2.707  20.452  0.00  0.00    +0.000 HD
ENDBRANCH  29  30
ENDBRANCH  28  29
ENDBRANCH  19  28
ENDBRANCH   1  17
TORSDOF 7
ENDMDL
MODEL 2
REMARK VINA RESULT:      -8.0      1.722      2.853
REMARK  Name = 
REMARK  7 active torsions:
REMARK  status: ('A' for Active; 'I' for Inactive)
REMARK    1  A    between atoms: C_2  and  C_19
REMARK    2  A    between atoms: N_3  and  C_4
REMARK    3  A    between atoms: C_4  and  C_5
REMARK    4  A    between atoms: N_7  and  C_8
REMARK    5  A    between atoms: N_7  and  C_11
REMARK    6  A    between atoms: C_8  and  C_9
REMARK    7  A    between atoms: C_9  and  O_10
REMARK                            x       y       z     vdW  Elec       q    Type
REMARK                         _______ _______ _______ _____ _____    ______ ____
ROOT
ATOM      1  C   UNL     1       7.914   6.018  18.200  0.00  0.00    +0.000 C 
ENDROOT
BRANCH   1   4
ATOM      2  O   UNL     1       7.633   8.382  16.822  0.00  0.00    +0.000 OA
ATOM      3  C   UNL     1       8.202   8.421  17.911  0.00  0.00    +0.000 C 
ATOM      4  N   UNL     1       8.444   7.289  18.642  0.00  0.00    +0.000 N 
ATOM      5  H   UNL     1       8.882   7.336  19.553  0.00  0.00    +0.000 HD
BRANCH   3   6
ATOM      6  C   UNL     1       8.621   9.661  18.514  0.00  0.00    +0.000 A 
ATOM      7  C   UNL     1       9.129   9.977  19.762  0.00  0.00    +0.000 A 
ATOM      8  C   UNL     1       9.342  11.383  19.813  0.00  0.00    +0.000 A 
ATOM      9  C   UNL     1       9.830  12.261  20.799  0.00  0.00    +0.000 A 
ATOM     10  C   UNL     1       9.917  13.625  20.505  0.00  0.00    +0.000 A 
ATOM     11 CL   UNL     1      10.516  14.707  21.704  0.00  0.00    +0.000 Cl
ATOM     12  C   UNL     1       9.528  14.123  19.264  0.00  0.00    +0.000 A 
ATOM     13  C   UNL     1       9.041  13.267  18.270  0.00  0.00    +0.000 A 
ATOM     14  C   UNL     1       8.963  11.904  18.578  0.00  0.00    +0.000 A 
ATOM     15  N   UNL     1       8.545  10.845  17.811  0.00  0.00    +0.000 N 
ATOM     16  H   UNL     1       8.212  10.904  16.857  0.00  0.00    +0.000 HD
ENDBRANCH   3   6
ENDBRANCH   1   4
BRANCH   1  17
ATOM     17  C   UNL     1       6.866   5.498  19.184  0.00  0.00    +0.000 C 
ATOM     18  O   UNL     1       7.177   5.399  20.374  0.00  0.00    +0.000 OA
ATOM     19  N   UNL     1       5.613   5.110  18.712  0.00  0.00    +0.000 N 
BRANCH  19  20
ATOM     20  C   UNL     1       4.593   4.514  19.612  0.00  0.00    +0.000 C 
ATOM     21  C   UNL     1       4.152   3.075  19.276  0.00  0.00    +0.000 C 
ATOM     22  C   UNL     1       3.080   2.883  18.214  0.00  0.00    +0.000 C 
ATOM     23  S   UNL     1       1.679   3.959  18.426  0.00  0.00    +0.000 S 
ATOM     24  O   UNL     1       0.996   4.085  17.154  0.00  0.00    +0.000 OA
ATOM     25  O   UNL     1       0.961   3.475  19.595  0.00  0.00    +0.000 OA
ATOM     26  C   UNL     1       2.343   5.552  18.866  0.00  0.00    +0.000 C 
ATOM     27  C   UNL     1       3.419   5.452  19.930  0.00  0.00    +0.000 C 
ENDBRANCH  19  20
BRANCH  19  28
ATOM     28  C   UNL     1       5.300   5.095  17.263  0.00  0.00    +0.000 C 
BRANCH  28  29
ATOM     29  C   UNL     1       4.837   6.448  16.703  0.00  0.00    +0.000 C 
BRANCH  29  30
ATOM     30  O   UNL     1       5.520   6.769  15.498  0.00  0.00    +0.000 OA
ATOM     31  H   UNL     1       5.888   7.664  15.602  0.00  0.00    +0.000 HD
ENDBRANCH  29  30
ENDBRANCH  28  29
ENDBRANCH  19  28
ENDBRANCH   1  17
TORSDOF 7
ENDMDL
MODEL 3
REMARK VINA RESULT:      -7.9      0.677      1.186
REMARK  Name = 
REMARK  7 active torsions:
REMARK  status: ('A' for Active; 'I' for Inactive)
REMARK    1  A    between atoms: C_2  and  C_19
REMARK    2  A    between atoms: N_3  and  C_4
REMARK    3  A    between atoms: C_4  and  C_5
REMARK    4  A    between atoms: N_7  and  C_8
REMARK    5  A    between atoms: N_7  and  C_11
REMARK    6  A    between atoms: C_8  and  C_9
REMARK    7  A    between atoms: C_9  and  O_10
REMARK                            x       y       z     vdW  Elec       q    Type
REMARK                         _______ _______ _______ _____ _____    ______ ____
ROOT
ATOM      1  C   UNL     1       6.095   6.666  16.718  0.00  0.00    +0.000 C 
ENDROOT
BRANCH   1   4
ATOM      2  O   UNL     1       8.112   6.817  18.584  0.00  0.00    +0.000 OA
ATOM      3  C   UNL     1       7.742   7.865  18.058  0.00  0.00    +0.000 C 
ATOM      4  N   UNL     1       6.705   7.900  17.165  0.00  0.00    +0.000 N 
ATOM      5  H   UNL     1       6.432   8.763  16.711  0.00  0.00    +0.000 HD
BRANCH   3   6
ATOM      6  C   UNL     1       8.397   9.123  18.312  0.00  0.00    +0.000 A 
ATOM      7  C   UNL     1       9.345   9.520  19.239  0.00  0.00    +0.000 A 
ATOM      8  C   UNL     1       9.608  10.905  19.041  0.00  0.00    +0.000 A 
ATOM      9  C   UNL     1      10.458  11.836  19.667  0.00  0.00    +0.000 A 
ATOM     10  C   UNL     1      10.474  13.154  19.202  0.00  0.00    +0.000 A 
ATOM     11 CL   UNL     1      11.514  14.300  19.959  0.00  0.00    +0.000 Cl
ATOM     12  C   UNL     1       9.665  13.557  18.142  0.00  0.00    +0.000 A 
ATOM     13  C   UNL     1       8.814  12.646  17.506  0.00  0.00    +0.000 A 
ATOM     14  C   UNL     1       8.812  11.330  17.980  0.00  0.00    +0.000 A 
ATOM     15  N   UNL     1       8.103  10.234  17.552  0.00  0.00    +0.000 N 
ATOM     16  H   UNL     1       7.439  10.225  16.788  0.00  0.00    +0.000 HD
ENDBRANCH   3   6
ENDBRANCH   1   4
BRANCH   1  17
ATOM     17  C   UNL     1       4.611   6.637  17.079  0.00  0.00    +0.000 C 
ATOM     18  O   UNL     1       3.979   7.696  17.049  0.00  0.00    +0.000 OA
ATOM     19  N   UNL     1       4.023   5.435  17.473  0.00  0.00    +0.000 N 
BRANCH  19  20
ATOM     20  C   UNL     1       2.609   5.371  17.920  0.00  0.00    +0.000 C 
ATOM     21  C   UNL     1       2.322   5.902  19.340  0.00  0.00    +0.000 C 
ATOM     22  C   UNL     1       2.560   4.967  20.516  0.00  0.00    +0.000 C 
ATOM     23  S   UNL     1       1.866   3.346  20.277  0.00  0.00    +0.000 S 
ATOM     24  O   UNL     1       2.554   2.415  21.150  0.00  0.00    +0.000 OA
ATOM     25  O   UNL     1       0.422   3.498  20.367  0.00  0.00    +0.000 OA
ATOM     26  C   UNL     1       2.222   2.901  18.590  0.00  0.00    +0.000 C 
ATOM     27  C   UNL     1       1.921   4.029  17.622  0.00  0.00    +0.000 C 
ENDBRANCH  19  20
BRANCH  19  28
ATOM     28  C   UNL     1       4.823   4.200  17.646  0.00  0.00    +0.000 C 
BRANCH  28  29
ATOM     29  C   UNL     1       5.584   4.122  18.978  0.00  0.00    +0.000 C 
BRANCH  29  30
ATOM     30  O   UNL     1       5.331   2.892  19.646  0.00  0.00    +0.000 OA
ATOM     31  H   UNL     1       5.729   2.955  20.532  0.00  0.00    +0.000 HD
ENDBRANCH  29  30
ENDBRANCH  28  29
ENDBRANCH  19  28
ENDBRANCH   1  17
TORSDOF 7
ENDMDL
MODEL 4
REMARK VINA RESULT:      -7.8      1.577      1.932
REMARK  Name = 
REMARK  7 active torsions:
REMARK  status: ('A' for Active; 'I' for Inactive)
REMARK    1  A    between atoms: C_2  and  C_19
REMARK    2  A    between atoms: N_3  and  C_4
REMARK    3  A    between atoms: C_4  and  C_5
REMARK    4  A    between atoms: N_7  and  C_8
REMARK    5  A    between atoms: N_7  and  C_11
REMARK    6  A    between atoms: C_8  and  C_9
REMARK    7  A    between atoms: C_9  and  O_10
REMARK                            x       y       z     vdW  Elec       q    Type
REMARK                         _______ _______ _______ _____ _____    ______ ____
ROOT
ATOM      1  C   UNL     1       7.625   5.411  18.574  0.00  0.00    +0.000 C 
ENDROOT
BRANCH   1   4
ATOM      2  O   UNL     1       7.599   7.443  16.719  0.00  0.00    +0.000 OA
ATOM      3  C   UNL     1       8.034   7.699  17.840  0.00  0.00    +0.000 C 
ATOM      4  N   UNL     1       8.144   6.740  18.810  0.00  0.00    +0.000 N 
ATOM      5  H   UNL     1       8.471   6.969  19.741  0.00  0.00    +0.000 HD
BRANCH   3   6
ATOM      6  C   UNL     1       8.422   9.033  18.226  0.00  0.00    +0.000 A 
ATOM      7  C   UNL     1       8.318  10.262  17.598  0.00  0.00    +0.000 A 
ATOM      8  C   UNL     1       8.901  11.245  18.446  0.00  0.00    +0.000 A 
ATOM      9  C   UNL     1       9.083  12.637  18.344  0.00  0.00    +0.000 A 
ATOM     10  C   UNL     1       9.706  13.315  19.396  0.00  0.00    +0.000 A 
ATOM     11 CL   UNL     1       9.931  15.019  19.283  0.00  0.00    +0.000 Cl
ATOM     12  C   UNL     1      10.149  12.638  20.531  0.00  0.00    +0.000 A 
ATOM     13  C   UNL     1       9.975  11.255  20.651  0.00  0.00    +0.000 A 
ATOM     14  C   UNL     1       9.347  10.592  19.592  0.00  0.00    +0.000 A 
ATOM     15  N   UNL     1       9.035   9.263  19.438  0.00  0.00    +0.000 N 
ATOM     16  H   UNL     1       9.229   8.531  20.110  0.00  0.00    +0.000 HD
ENDBRANCH   3   6
ENDBRANCH   1   4
BRANCH   1  17
ATOM     17  C   UNL     1       6.097   5.416  18.596  0.00  0.00    +0.000 C 
ATOM     18  O   UNL     1       5.527   5.911  19.571  0.00  0.00    +0.000 OA
ATOM     19  N   UNL     1       5.393   4.827  17.547  0.00  0.00    +0.000 N 
BRANCH  19  20
ATOM     20  C   UNL     1       3.912   4.725  17.565  0.00  0.00    +0.000 C 
ATOM     21  C   UNL     1       3.191   5.518  18.674  0.00  0.00    +0.000 C 
ATOM     22  C   UNL     1       3.082   4.884  20.053  0.00  0.00    +0.000 C 
ATOM     23  S   UNL     1       2.538   3.191  20.007  0.00  0.00    +0.000 S 
ATOM     24  O   UNL     1       2.951   2.539  21.234  0.00  0.00    +0.000 OA
ATOM     25  O   UNL     1       1.132   3.220  19.634  0.00  0.00    +0.000 OA
ATOM     26  C   UNL     1       3.404   2.431  18.650  0.00  0.00    +0.000 C 
ATOM     27  C   UNL     1       3.384   3.291  17.401  0.00  0.00    +0.000 C 
ENDBRANCH  19  20
BRANCH  19  28
ATOM     28  C   UNL     1       6.087   4.107  16.453  0.00  0.00    +0.000 C 
BRANCH  28  29
ATOM     29  C   UNL     1       6.117   4.863  15.117  0.00  0.00    +0.000 C 
BRANCH  29  30
ATOM     30  O   UNL     1       7.418   5.359  14.833  0.00  0.00    +0.000 OA
ATOM     31  H   UNL     1       7.981   4.593  14.621  0.00  0.00    +0.000 HD
ENDBRANCH  29  30
ENDBRANCH  28  29
ENDBRANCH  19  28
ENDBRANCH   1  17
TORSDOF 7
ENDMDL
MODEL 5
REMARK VINA RESULT:      -7.8      1.543      2.223
REMARK  Name = 
REMARK  7 active torsions:
REMARK  status: ('A' for Active; 'I' for Inactive)
REMARK    1  A    between atoms: C_2  and  C_19
REMARK    2  A    between atoms: N_3  and  C_4
REMARK    3  A    between atoms: C_4  and  C_5
REMARK    4  A    between atoms: N_7  and  C_8
REMARK    5  A    between atoms: N_7  and  C_11
REMARK    6  A    between atoms: C_8  and  C_9
REMARK    7  A    between atoms: C_9  and  O_10
REMARK                            x       y       z     vdW  Elec       q    Type
REMARK                         _______ _______ _______ _____ _____    ______ ____
ROOT
ATOM      1  C   UNL     1       7.457   5.694  17.891  0.00  0.00    +0.000 C 
ENDROOT
BRANCH   1   4
ATOM      2  O   UNL     1       6.711   8.115  16.818  0.00  0.00    +0.000 OA
ATOM      3  C   UNL     1       7.647   8.108  17.615  0.00  0.00    +0.000 C 
ATOM      4  N   UNL     1       8.130   6.947  18.155  0.00  0.00    +0.000 N 
ATOM      5  H   UNL     1       8.879   6.956  18.837  0.00  0.00    +0.000 HD
BRANCH   3   6
ATOM      6  C   UNL     1       8.277   9.323  18.069  0.00  0.00    +0.000 A 
ATOM      7  C   UNL     1       8.416  10.578  17.503  0.00  0.00    +0.000 A 
ATOM      8  C   UNL     1       9.164  11.391  18.401  0.00  0.00    +0.000 A 
ATOM      9  C   UNL     1       9.609  12.726  18.370  0.00  0.00    +0.000 A 
ATOM     10  C   UNL     1      10.336  13.220  19.457  0.00  0.00    +0.000 A 
ATOM     11 CL   UNL     1      10.882  14.854  19.430  0.00  0.00    +0.000 Cl
ATOM     12  C   UNL     1      10.627  12.417  20.557  0.00  0.00    +0.000 A 
ATOM     13  C   UNL     1      10.193  11.088  20.608  0.00  0.00    +0.000 A 
ATOM     14  C   UNL     1       9.463  10.609  19.514  0.00  0.00    +0.000 A 
ATOM     15  N   UNL     1       8.907   9.373  19.293  0.00  0.00    +0.000 N 
ATOM     16  H   UNL     1       8.950   8.586  19.928  0.00  0.00    +0.000 HD
ENDBRANCH   3   6
ENDBRANCH   1   4
BRANCH   1  17
ATOM     17  C   UNL     1       6.522   5.330  19.044  0.00  0.00    +0.000 C 
ATOM     18  O   UNL     1       7.013   5.134  20.158  0.00  0.00    +0.000 OA
ATOM     19  N   UNL     1       5.156   5.187  18.801  0.00  0.00    +0.000 N 
BRANCH  19  20
ATOM     20  C   UNL     1       4.219   4.746  19.865  0.00  0.00    +0.000 C 
ATOM     21  C   UNL     1       4.050   3.222  20.031  0.00  0.00    +0.000 C 
ATOM     22  C   UNL     1       3.073   2.506  19.110  0.00  0.00    +0.000 C 
ATOM     23  S   UNL     1       1.498   3.324  18.981  0.00  0.00    +0.000 S 
ATOM     24  O   UNL     1       0.857   2.903  17.751  0.00  0.00    +0.000 OA
ATOM     25  O   UNL     1       0.827   3.129  20.257  0.00  0.00    +0.000 OA
ATOM     26  C   UNL     1       1.856   5.064  18.860  0.00  0.00    +0.000 C 
ATOM     27  C   UNL     1       2.887   5.512  19.878  0.00  0.00    +0.000 C 
ENDBRANCH  19  20
BRANCH  19  28
ATOM     28  C   UNL     1       4.597   5.281  17.432  0.00  0.00    +0.000 C 
BRANCH  28  29
ATOM     29  C   UNL     1       4.798   4.020  16.578  0.00  0.00    +0.000 C 
BRANCH  29  30
ATOM     30  O   UNL     1       5.457   4.324  15.356  0.00  0.00    +0.000 OA
ATOM     31  H   UNL     1       6.303   4.748  15.579  0.00  0.00    +0.000 HD
ENDBRANCH  29  30
ENDBRANCH  28  29
ENDBRANCH  19  28
ENDBRANCH   1  17
TORSDOF 7
ENDMDL
MODEL 6
REMARK VINA RESULT:      -7.7      1.284      1.536
REMARK  Name = 
REMARK  7 active torsions:
REMARK  status: ('A' for Active; 'I' for Inactive)
REMARK    1  A    between atoms: C_2  and  C_19
REMARK    2  A    between atoms: N_3  and  C_4
REMARK    3  A    between atoms: C_4  and  C_5
REMARK    4  A    between atoms: N_7  and  C_8
REMARK    5  A    between atoms: N_7  and  C_11
REMARK    6  A    between atoms: C_8  and  C_9
REMARK    7  A    between atoms: C_9  and  O_10
REMARK                            x       y       z     vdW  Elec       q    Type
REMARK                         _______ _______ _______ _____ _____    ______ ____
ROOT
ATOM      1  C   UNL     1       6.914   6.551  16.767  0.00  0.00    +0.000 C 
ENDROOT
BRANCH   1   4
ATOM      2  O   UNL     1       8.447   7.122  18.979  0.00  0.00    +0.000 OA
ATOM      3  C   UNL     1       8.137   8.057  18.243  0.00  0.00    +0.000 C 
ATOM      4  N   UNL     1       7.326   7.882  17.154  0.00  0.00    +0.000 N 
ATOM      5  H   UNL     1       7.105   8.652  16.535  0.00  0.00    +0.000 HD
BRANCH   3   6
ATOM      6  C   UNL     1       8.633   9.394  18.451  0.00  0.00    +0.000 A 
ATOM      7  C   UNL     1       8.568  10.550  17.693  0.00  0.00    +0.000 A 
ATOM      8  C   UNL     1       9.265  11.578  18.388  0.00  0.00    +0.000 A 
ATOM      9  C   UNL     1       9.529  12.933  18.117  0.00  0.00    +0.000 A 
ATOM     10  C   UNL     1      10.261  13.678  19.048  0.00  0.00    +0.000 A 
ATOM     11 CL   UNL     1      10.586  15.339  18.727  0.00  0.00    +0.000 Cl
ATOM     12  C   UNL     1      10.730  13.102  20.226  0.00  0.00    +0.000 A 
ATOM     13  C   UNL     1      10.477  11.756  20.515  0.00  0.00    +0.000 A 
ATOM     14  C   UNL     1       9.741  11.025  19.575  0.00  0.00    +0.000 A 
ATOM     15  N   UNL     1       9.336   9.713  19.593  0.00  0.00    +0.000 N 
ATOM     16  H   UNL     1       9.525   9.049  20.332  0.00  0.00    +0.000 HD
ENDBRANCH   3   6
ENDBRANCH   1   4
BRANCH   1  17
ATOM     17  C   UNL     1       5.427   6.341  17.052  0.00  0.00    +0.000 C 
ATOM     18  O   UNL     1       4.760   7.309  17.427  0.00  0.00    +0.000 OA
ATOM     19  N   UNL     1       4.877   5.066  16.927  0.00  0.00    +0.000 N 
BRANCH  19  20
ATOM     20  C   UNL     1       3.461   4.792  17.279  0.00  0.00    +0.000 C 
ATOM     21  C   UNL     1       2.945   5.453  18.574  0.00  0.00    +0.000 C 
ATOM     22  C   UNL     1       3.231   4.757  19.897  0.00  0.00    +0.000 C 
ATOM     23  S   UNL     1       2.870   3.016  19.868  0.00  0.00    +0.000 S 
ATOM     24  O   UNL     1       3.627   2.369  20.921  0.00  0.00    +0.000 OA
ATOM     25  O   UNL     1       1.421   2.896  19.831  0.00  0.00    +0.000 OA
ATOM     26  C   UNL     1       3.465   2.414  18.301  0.00  0.00    +0.000 C 
ATOM     27  C   UNL     1       3.061   3.315  17.149  0.00  0.00    +0.000 C 
ENDBRANCH  19  20
BRANCH  19  28
ATOM     28  C   UNL     1       5.717   3.885  16.619  0.00  0.00    +0.000 C 
BRANCH  28  29
ATOM     29  C   UNL     1       6.209   3.820  15.165  0.00  0.00    +0.000 C 
BRANCH  29  30
ATOM     30  O   UNL     1       5.226   4.315  14.266  0.00  0.00    +0.000 OA
ATOM     31  H   UNL     1       5.381   5.270  14.162  0.00  0.00    +0.000 HD
ENDBRANCH  29  30
ENDBRANCH  28  29
ENDBRANCH  19  28
ENDBRANCH   1  17
TORSDOF 7
ENDMDL
MODEL 7
REMARK VINA RESULT:      -7.6      1.766      2.478
REMARK  Name = 
REMARK  7 active torsions:
REMARK  status: ('A' for Active; 'I' for Inactive)
REMARK    1  A    between atoms: C_2  and  C_19
REMARK    2  A    between atoms: N_3  and  C_4
REMARK    3  A    between atoms: C_4  and  C_5
REMARK    4  A    between atoms: N_7  and  C_8
REMARK    5  A    between atoms: N_7  and  C_11
REMARK    6  A    between atoms: C_8  and  C_9
REMARK    7  A    between atoms: C_9  and  O_10
REMARK                            x       y       z     vdW  Elec       q    Type
REMARK                         _______ _______ _______ _____ _____    ______ ____
ROOT
ATOM      1  C   UNL     1       7.540   5.720  18.012  0.00  0.00    +0.000 C 
ENDROOT
BRANCH   1   4
ATOM      2  O   UNL     1       6.855   8.106  16.826  0.00  0.00    +0.000 OA
ATOM      3  C   UNL     1       7.740   8.127  17.679  0.00  0.00    +0.000 C 
ATOM      4  N   UNL     1       8.192   6.983  18.280  0.00  0.00    +0.000 N 
ATOM      5  H   UNL     1       8.897   7.015  19.006  0.00  0.00    +0.000 HD
BRANCH   3   6
ATOM      6  C   UNL     1       8.338   9.356  18.135  0.00  0.00    +0.000 A 
ATOM      7  C   UNL     1       9.133   9.669  19.223  0.00  0.00    +0.000 A 
ATOM      8  C   UNL     1       9.410  11.065  19.186  0.00  0.00    +0.000 A 
ATOM      9  C   UNL     1      10.148  11.936  20.008  0.00  0.00    +0.000 A 
ATOM     10  C   UNL     1      10.221  13.289  19.665  0.00  0.00    +0.000 A 
ATOM     11 CL   UNL     1      11.125  14.363  20.663  0.00  0.00    +0.000 Cl
ATOM     12  C   UNL     1       9.577  13.784  18.533  0.00  0.00    +0.000 A 
ATOM     13  C   UNL     1       8.839  12.934  17.702  0.00  0.00    +0.000 A 
ATOM     14  C   UNL     1       8.778  11.582  18.057  0.00  0.00    +0.000 A 
ATOM     15  N   UNL     1       8.151  10.529  17.436  0.00  0.00    +0.000 N 
ATOM     16  H   UNL     1       7.609  10.587  16.583  0.00  0.00    +0.000 HD
ENDBRANCH   3   6
ENDBRANCH   1   4
BRANCH   1  17
ATOM     17  C   UNL     1       6.514   5.401  19.098  0.00  0.00    +0.000 C 
ATOM     18  O   UNL     1       6.913   5.254  20.256  0.00  0.00    +0.000 OA
ATOM     19  N   UNL     1       5.173   5.240  18.751  0.00  0.00    +0.000 N 
BRANCH  19  20
ATOM     20  C   UNL     1       4.153   4.840  19.753  0.00  0.00    +0.000 C 
ATOM     21  C   UNL     1       4.107   3.341  20.112  0.00  0.00    +0.000 C 
ATOM     22  C   UNL     1       3.328   2.408  19.197  0.00  0.00    +0.000 C 
ATOM     23  S   UNL     1       1.713   3.024  18.775  0.00  0.00    +0.000 S 
ATOM     24  O   UNL     1       1.277   2.379  17.552  0.00  0.00    +0.000 OA
ATOM     25  O   UNL     1       0.906   2.923  19.980  0.00  0.00    +0.000 OA
ATOM     26  C   UNL     1       1.918   4.763  18.450  0.00  0.00    +0.000 C 
ATOM     27  C   UNL     1       2.764   5.449  19.505  0.00  0.00    +0.000 C 
ENDBRANCH  19  20
BRANCH  19  28
ATOM     28  C   UNL     1       4.728   5.274  17.338  0.00  0.00    +0.000 C 
BRANCH  28  29
ATOM     29  C   UNL     1       4.877   3.938  16.596  0.00  0.00    +0.000 C 
BRANCH  29  30
ATOM     30  O   UNL     1       5.904   4.004  15.616  0.00  0.00    +0.000 OA
ATOM     31  H   UNL     1       5.931   3.142  15.164  0.00  0.00    +0.000 HD
ENDBRANCH  29  30
ENDBRANCH  28  29
ENDBRANCH  19  28
ENDBRANCH   1  17
TORSDOF 7
ENDMDL
MODEL 8
REMARK VINA RESULT:      -7.4      1.684      2.228
REMARK  Name = 
REMARK  7 active torsions:
REMARK  status: ('A' for Active; 'I' for Inactive)
REMARK    1  A    between atoms: C_2  and  C_19
REMARK    2  A    between atoms: N_3  and  C_4
REMARK    3  A    between atoms: C_4  and  C_5
REMARK    4  A    between atoms: N_7  and  C_8
REMARK    5  A    between atoms: N_7  and  C_11
REMARK    6  A    between atoms: C_8  and  C_9
REMARK    7  A    between atoms: C_9  and  O_10
REMARK                            x       y       z     vdW  Elec       q    Type
REMARK                         _______ _______ _______ _____ _____    ______ ____
ROOT
ATOM      1  C   UNL     1       7.528   5.393  18.487  0.00  0.00    +0.000 C 
ENDROOT
BRANCH   1   4
ATOM      2  O   UNL     1       7.539   7.513  16.733  0.00  0.00    +0.000 OA
ATOM      3  C   UNL     1       8.006   7.698  17.855  0.00  0.00    +0.000 C 
ATOM      4  N   UNL     1       8.101   6.690  18.776  0.00  0.00    +0.000 N 
ATOM      5  H   UNL     1       8.454   6.862  19.709  0.00  0.00    +0.000 HD
BRANCH   3   6
ATOM      6  C   UNL     1       8.450   8.997  18.296  0.00  0.00    +0.000 A 
ATOM      7  C   UNL     1       9.109   9.430  19.433  0.00  0.00    +0.000 A 
ATOM      8  C   UNL     1       9.268  10.842  19.345  0.00  0.00    +0.000 A 
ATOM      9  C   UNL     1       9.848  11.813  20.183  0.00  0.00    +0.000 A 
ATOM     10  C   UNL     1       9.837  13.150  19.774  0.00  0.00    +0.000 A 
ATOM     11 CL   UNL     1      10.547  14.345  20.791  0.00  0.00    +0.000 Cl
ATOM     12  C   UNL     1       9.263  13.531  18.564  0.00  0.00    +0.000 A 
ATOM     13  C   UNL     1       8.683  12.581  17.716  0.00  0.00    +0.000 A 
ATOM     14  C   UNL     1       8.704  11.247  18.137  0.00  0.00    +0.000 A 
ATOM     15  N   UNL     1       8.231  10.115  17.520  0.00  0.00    +0.000 N 
ATOM     16  H   UNL     1       7.770  10.084  16.620  0.00  0.00    +0.000 HD
ENDBRANCH   3   6
ENDBRANCH   1   4
BRANCH   1  17
ATOM     17  C   UNL     1       6.003   5.449  18.551  0.00  0.00    +0.000 C 
ATOM     18  O   UNL     1       5.476   5.950  19.547  0.00  0.00    +0.000 OA
ATOM     19  N   UNL     1       5.251   4.899  17.513  0.00  0.00    +0.000 N 
BRANCH  19  20
ATOM     20  C   UNL     1       3.768   4.846  17.570  0.00  0.00    +0.000 C 
ATOM     21  C   UNL     1       3.107   5.613  18.734  0.00  0.00    +0.000 C 
ATOM     22  C   UNL     1       3.014   4.922  20.086  0.00  0.00    +0.000 C 
ATOM     23  S   UNL     1       2.409   3.252  19.982  0.00  0.00    +0.000 S 
ATOM     24  O   UNL     1       2.833   2.532  21.167  0.00  0.00    +0.000 OA
ATOM     25  O   UNL     1       0.996   3.345  19.651  0.00  0.00    +0.000 OA
ATOM     26  C   UNL     1       3.210   2.524  18.568  0.00  0.00    +0.000 C 
ATOM     27  C   UNL     1       3.186   3.440  17.359  0.00  0.00    +0.000 C 
ENDBRANCH  19  20
BRANCH  19  28
ATOM     28  C   UNL     1       5.891   4.170  16.392  0.00  0.00    +0.000 C 
BRANCH  28  29
ATOM     29  C   UNL     1       6.020   4.988  15.099  0.00  0.00    +0.000 C 
BRANCH  29  30
ATOM     30  O   UNL     1       7.367   5.379  14.867  0.00  0.00    +0.000 OA
ATOM     31  H   UNL     1       7.676   5.844  15.664  0.00  0.00    +0.000 HD
ENDBRANCH  29  30
ENDBRANCH  28  29
ENDBRANCH  19  28
ENDBRANCH   1  17
TORSDOF 7
ENDMDL
MODEL 9
REMARK VINA RESULT:      -7.3      6.041      9.020
REMARK  Name = 
REMARK  7 active torsions:
REMARK  status: ('A' for Active; 'I' for Inactive)
REMARK    1  A    between atoms: C_2  and  C_19
REMARK    2  A    between atoms: N_3  and  C_4
REMARK    3  A    between atoms: C_4  and  C_5
REMARK    4  A    between atoms: N_7  and  C_8
REMARK    5  A    between atoms: N_7  and  C_11
REMARK    6  A    between atoms: C_8  and  C_9
REMARK    7  A    between atoms: C_9  and  O_10
REMARK                            x       y       z     vdW  Elec       q    Type
REMARK                         _______ _______ _______ _____ _____    ______ ____
ROOT
ATOM      1  C   UNL     1       2.077   8.179  19.463  0.00  0.00    +0.000 C 
ENDROOT
BRANCH   1   4
ATOM      2  O   UNL     1       1.308  10.805  19.752  0.00  0.00    +0.000 OA
ATOM      3  C   UNL     1       0.501  10.026  19.247  0.00  0.00    +0.000 C 
ATOM      4  N   UNL     1       0.768   8.690  19.118  0.00  0.00    +0.000 N 
ATOM      5  H   UNL     1       0.111   8.063  18.670  0.00  0.00    +0.000 HD
BRANCH   3   6
ATOM      6  C   UNL     1      -0.766  10.468  18.722  0.00  0.00    +0.000 A 
ATOM      7  C   UNL     1      -1.833  11.146  19.285  0.00  0.00    +0.000 A 
ATOM      8  C   UNL     1      -2.842  11.292  18.291  0.00  0.00    +0.000 A 
ATOM      9  C   UNL     1      -4.120  11.881  18.277  0.00  0.00    +0.000 A 
ATOM     10  C   UNL     1      -4.863  11.851  17.093  0.00  0.00    +0.000 A 
ATOM     11 CL   UNL     1      -6.428  12.572  17.065  0.00  0.00    +0.000 Cl
ATOM     12  C   UNL     1      -4.364  11.250  15.940  0.00  0.00    +0.000 A 
ATOM     13  C   UNL     1      -3.095  10.661  15.933  0.00  0.00    +0.000 A 
ATOM     14  C   UNL     1      -2.361  10.701  17.124  0.00  0.00    +0.000 A 
ATOM     15  N   UNL     1      -1.105  10.225  17.408  0.00  0.00    +0.000 N 
ATOM     16  H   UNL     1      -0.496   9.746  16.757  0.00  0.00    +0.000 HD
ENDBRANCH   3   6
ENDBRANCH   1   4
BRANCH   1  17
ATOM     17  C   UNL     1       2.838   7.752  18.208  0.00  0.00    +0.000 C 
ATOM     18  O   UNL     1       2.660   8.392  17.169  0.00  0.00    +0.000 OA
ATOM     19  N   UNL     1       3.670   6.634  18.256  0.00  0.00    +0.000 N 
BRANCH  19  20
ATOM     20  C   UNL     1       4.359   6.125  17.043  0.00  0.00    +0.000 C 
ATOM     21  C   UNL     1       4.526   4.595  16.951  0.00  0.00    +0.000 C 
ATOM     22  C   UNL     1       5.700   3.957  17.679  0.00  0.00    +0.000 C 
ATOM     23  S   UNL     1       7.243   4.796  17.396  0.00  0.00    +0.000 S 
ATOM     24  O   UNL     1       8.151   4.472  18.479  0.00  0.00    +0.000 OA
ATOM     25  O   UNL     1       7.619   4.514  16.020  0.00  0.00    +0.000 OA
ATOM     26  C   UNL     1       6.878   6.537  17.472  0.00  0.00    +0.000 C 
ATOM     27  C   UNL     1       5.636   6.899  16.681  0.00  0.00    +0.000 C 
ENDBRANCH  19  20
BRANCH  19  28
ATOM     28  C   UNL     1       3.764   5.787  19.468  0.00  0.00    +0.000 C 
BRANCH  28  29
ATOM     29  C   UNL     1       2.445   5.108  19.868  0.00  0.00    +0.000 C 
BRANCH  29  30
ATOM     30  O   UNL     1       2.342   4.970  21.279  0.00  0.00    +0.000 OA
ATOM     31  H   UNL     1       1.584   5.506  21.569  0.00  0.00    +0.000 HD
ENDBRANCH  29  30
ENDBRANCH  28  29
ENDBRANCH  19  28
ENDBRANCH   1  17
TORSDOF 7
ENDMDL
