MODEL 1
REMARK VINA RESULT:      -8.3      0.000      0.000
REMARK  Name = 
REMARK  7 active torsions:
REMARK  status: ('A' for Active; 'I' for Inactive)
REMARK    1  A    between atoms: C_1  and  O_2
REMARK    2  A    between atoms: O_2  and  C_3
REMARK    3  A    between atoms: C_7  and  N_8
REMARK    4  A    between atoms: N_10  and  C_11
REMARK    5  A    between atoms: C_11  and  C_13
REMARK    6  A    between atoms: C_13  and  C_14
REMARK    7  A    between atoms: C_14  and  C_15
REMARK                            x       y       z     vdW  Elec       q    Type
REMARK                         _______ _______ _______ _____ _____    ______ ____
ROOT
ATOM      1  N   UNL     1       2.514   5.761  18.817  0.00  0.00    +0.000 N 
ATOM      2  C   UNL     1       3.678   5.289  18.237  0.00  0.00    +0.000 C 
ATOM      3  N   UNL     1       4.844   5.813  18.406  0.00  0.00    +0.000 NA
ATOM      4  S   UNL     1       3.289   3.828  17.341  0.00  0.00    +0.000 S 
ATOM      5  C   UNL     1       1.849   3.446  18.377  0.00  0.00    +0.000 C 
ATOM      6  C   UNL     1       2.154   2.255  19.271  0.00  0.00    +0.000 C 
ATOM      7  S   UNL     1       2.592   2.914  20.845  0.00  0.00    +0.000 S 
ATOM      8  O   UNL     1       3.998   3.258  20.855  0.00  0.00    +0.000 OA
ATOM      9  O   UNL     1       1.991   2.096  21.878  0.00  0.00    +0.000 OA
ATOM     10  C   UNL     1       1.651   4.397  20.697  0.00  0.00    +0.000 C 
ATOM     11  C   UNL     1       1.549   4.718  19.207  0.00  0.00    +0.000 C 
ENDROOT
BRANCH   1  16
ATOM     12  C   UNL     1       1.364   9.032  20.259  0.00  0.00    +0.000 A 
ATOM     13  C   UNL     1       1.378   9.838  19.124  0.00  0.00    +0.000 A 
ATOM     14  C   UNL     1       1.785   9.312  17.902  0.00  0.00    +0.000 A 
ATOM     15  C   UNL     1       2.185   7.975  17.810  0.00  0.00    +0.000 A 
ATOM     16  C   UNL     1       2.163   7.123  18.929  0.00  0.00    +0.000 A 
ATOM     17  C   UNL     1       1.741   7.689  20.148  0.00  0.00    +0.000 A 
BRANCH  12  19
ATOM     18  C   UNL     1      -0.225   9.163  22.028  0.00  0.00    +0.000 C 
ATOM     19  O   UNL     1       0.960   9.652  21.410  0.00  0.00    +0.000 OA
ENDBRANCH  12  19
ENDBRANCH   1  16
BRANCH   3  20
ATOM     20  C   UNL     1       6.006   5.208  18.001  0.00  0.00    +0.000 C 
ATOM     21  O   UNL     1       6.627   4.313  18.569  0.00  0.00    +0.000 OA
BRANCH  20  22
ATOM     22  C   UNL     1       6.540   5.789  16.708  0.00  0.00    +0.000 C 
BRANCH  22  23
ATOM     23  C   UNL     1       7.076   4.690  15.796  0.00  0.00    +0.000 C 
BRANCH  23  24
ATOM     24  C   UNL     1       6.661   4.856  14.330  0.00  0.00    +0.000 C 
ATOM     25  C   UNL     1       7.825   5.056  13.363  0.00  0.00    +0.000 C 
ATOM     26  C   UNL     1       7.205   4.712  12.019  0.00  0.00    +0.000 C 
ATOM     27  C   UNL     1       6.321   3.509  12.315  0.00  0.00    +0.000 C 
ATOM     28  C   UNL     1       5.934   3.619  13.791  0.00  0.00    +0.000 C 
ENDBRANCH  23  24
ENDBRANCH  22  23
ENDBRANCH  20  22
ENDBRANCH   3  20
TORSDOF 6
ENDMDL
MODEL 2
REMARK VINA RESULT:      -8.2      3.213      4.428
REMARK  Name = 
REMARK  7 active torsions:
REMARK  status: ('A' for Active; 'I' for Inactive)
REMARK    1  A    between atoms: C_1  and  O_2
REMARK    2  A    between atoms: O_2  and  C_3
REMARK    3  A    between atoms: C_7  and  N_8
REMARK    4  A    between atoms: N_10  and  C_11
REMARK    5  A    between atoms: C_11  and  C_13
REMARK    6  A    between atoms: C_13  and  C_14
REMARK    7  A    between atoms: C_14  and  C_15
REMARK                            x       y       z     vdW  Elec       q    Type
REMARK                         _______ _______ _______ _____ _____    ______ ____
ROOT
ATOM      1  N   UNL     1       3.531   6.232  18.033  0.00  0.00    +0.000 N 
ATOM      2  C   UNL     1       4.761   6.282  17.400  0.00  0.00    +0.000 C 
ATOM      3  N   UNL     1       5.716   7.088  17.719  0.00  0.00    +0.000 NA
ATOM      4  S   UNL     1       4.805   5.008  16.190  0.00  0.00    +0.000 S 
ATOM      5  C   UNL     1       3.593   3.983  17.068  0.00  0.00    +0.000 C 
ATOM      6  C   UNL     1       4.283   2.776  17.684  0.00  0.00    +0.000 C 
ATOM      7  S   UNL     1       4.558   3.173  19.379  0.00  0.00    +0.000 S 
ATOM      8  O   UNL     1       5.790   3.922  19.511  0.00  0.00    +0.000 OA
ATOM      9  O   UNL     1       4.277   2.002  20.185  0.00  0.00    +0.000 OA
ATOM     10  C   UNL     1       3.202   4.288  19.534  0.00  0.00    +0.000 C 
ATOM     11  C   UNL     1       2.949   4.884  18.150  0.00  0.00    +0.000 C 
ENDROOT
BRANCH   1  16
ATOM     12  C   UNL     1       1.520   8.603  20.139  0.00  0.00    +0.000 A 
ATOM     13  C   UNL     1       1.211   9.586  19.204  0.00  0.00    +0.000 A 
ATOM     14  C   UNL     1       1.681   9.478  17.898  0.00  0.00    +0.000 A 
ATOM     15  C   UNL     1       2.469   8.385  17.524  0.00  0.00    +0.000 A 
ATOM     16  C   UNL     1       2.784   7.359  18.433  0.00  0.00    +0.000 A 
ATOM     17  C   UNL     1       2.287   7.501  19.744  0.00  0.00    +0.000 A 
BRANCH  12  19
ATOM     18  C   UNL     1      -0.371   8.569  21.587  0.00  0.00    +0.000 C 
ATOM     19  O   UNL     1       1.018   8.813  21.395  0.00  0.00    +0.000 OA
ENDBRANCH  12  19
ENDBRANCH   1  16
BRANCH   3  20
ATOM     20  C   UNL     1       6.991   6.976  17.229  0.00  0.00    +0.000 C 
ATOM     21  O   UNL     1       7.368   6.337  16.249  0.00  0.00    +0.000 OA
BRANCH  20  22
ATOM     22  C   UNL     1       8.000   7.735  18.065  0.00  0.00    +0.000 C 
BRANCH  22  23
ATOM     23  C   UNL     1       7.834   9.241  17.891  0.00  0.00    +0.000 C 
BRANCH  23  24
ATOM     24  C   UNL     1       9.080  10.043  18.278  0.00  0.00    +0.000 C 
ATOM     25  C   UNL     1       9.051  11.504  17.840  0.00  0.00    +0.000 C 
ATOM     26  C   UNL     1      10.107  12.140  18.729  0.00  0.00    +0.000 C 
ATOM     27  C   UNL     1       9.900  11.477  20.083  0.00  0.00    +0.000 C 
ATOM     28  C   UNL     1       9.277  10.110  19.796  0.00  0.00    +0.000 C 
ENDBRANCH  23  24
ENDBRANCH  22  23
ENDBRANCH  20  22
ENDBRANCH   3  20
TORSDOF 6
ENDMDL
MODEL 3
REMARK VINA RESULT:      -8.0      1.104      1.463
REMARK  Name = 
REMARK  7 active torsions:
REMARK  status: ('A' for Active; 'I' for Inactive)
REMARK    1  A    between atoms: C_1  and  O_2
REMARK    2  A    between atoms: O_2  and  C_3
REMARK    3  A    between atoms: C_7  and  N_8
REMARK    4  A    between atoms: N_10  and  C_11
REMARK    5  A    between atoms: C_11  and  C_13
REMARK    6  A    between atoms: C_13  and  C_14
REMARK    7  A    between atoms: C_14  and  C_15
REMARK                            x       y       z     vdW  Elec       q    Type
REMARK                         _______ _______ _______ _____ _____    ______ ____
ROOT
ATOM      1  N   UNL     1       2.516   5.709  19.059  0.00  0.00    +0.000 N 
ATOM      2  C   UNL     1       3.773   5.197  18.791  0.00  0.00    +0.000 C 
ATOM      3  N   UNL     1       4.878   5.711  19.213  0.00  0.00    +0.000 NA
ATOM      4  S   UNL     1       3.574   3.705  17.884  0.00  0.00    +0.000 S 
ATOM      5  C   UNL     1       1.921   3.387  18.562  0.00  0.00    +0.000 C 
ATOM      6  C   UNL     1       1.977   2.230  19.546  0.00  0.00    +0.000 C 
ATOM      7  S   UNL     1       2.045   2.949  21.154  0.00  0.00    +0.000 S 
ATOM      8  O   UNL     1       3.416   3.274  21.485  0.00  0.00    +0.000 OA
ATOM      9  O   UNL     1       1.197   2.183  22.045  0.00  0.00    +0.000 OA
ATOM     10  C   UNL     1       1.201   4.437  20.731  0.00  0.00    +0.000 C 
ATOM     11  C   UNL     1       1.462   4.696  19.249  0.00  0.00    +0.000 C 
ENDROOT
BRANCH   1  16
ATOM     12  C   UNL     1       1.354   9.109  20.151  0.00  0.00    +0.000 A 
ATOM     13  C   UNL     1       1.427   9.808  18.950  0.00  0.00    +0.000 A 
ATOM     14  C   UNL     1       1.877   9.170  17.798  0.00  0.00    +0.000 A 
ATOM     15  C   UNL     1       2.261   7.826  17.845  0.00  0.00    +0.000 A 
ATOM     16  C   UNL     1       2.180   7.079  19.033  0.00  0.00    +0.000 A 
ATOM     17  C   UNL     1       1.716   7.757  20.178  0.00  0.00    +0.000 A 
BRANCH  12  19
ATOM     18  C   UNL     1       0.495  11.173  20.973  0.00  0.00    +0.000 C 
ATOM     19  O   UNL     1       0.911   9.835  21.223  0.00  0.00    +0.000 OA
ENDBRANCH  12  19
ENDBRANCH   1  16
BRANCH   3  20
ATOM     20  C   UNL     1       6.088   5.075  19.120  0.00  0.00    +0.000 C 
ATOM     21  O   UNL     1       6.366   3.929  19.467  0.00  0.00    +0.000 OA
BRANCH  20  22
ATOM     22  C   UNL     1       7.166   5.965  18.535  0.00  0.00    +0.000 C 
BRANCH  22  23
ATOM     23  C   UNL     1       6.617   6.808  17.389  0.00  0.00    +0.000 C 
BRANCH  23  24
ATOM     24  C   UNL     1       6.658   6.097  16.033  0.00  0.00    +0.000 C 
ATOM     25  C   UNL     1       7.167   4.660  16.089  0.00  0.00    +0.000 C 
ATOM     26  C   UNL     1       6.663   4.075  14.780  0.00  0.00    +0.000 C 
ATOM     27  C   UNL     1       5.265   4.656  14.629  0.00  0.00    +0.000 C 
ATOM     28  C   UNL     1       5.268   5.978  15.399  0.00  0.00    +0.000 C 
ENDBRANCH  23  24
ENDBRANCH  22  23
ENDBRANCH  20  22
ENDBRANCH   3  20
TORSDOF 6
ENDMDL
MODEL 4
REMARK VINA RESULT:      -7.7      1.487      2.488
REMARK  Name = 
REMARK  7 active torsions:
REMARK  status: ('A' for Active; 'I' for Inactive)
REMARK    1  A    between atoms: C_1  and  O_2
REMARK    2  A    between atoms: O_2  and  C_3
REMARK    3  A    between atoms: C_7  and  N_8
REMARK    4  A    between atoms: N_10  and  C_11
REMARK    5  A    between atoms: C_11  and  C_13
REMARK    6  A    between atoms: C_13  and  C_14
REMARK    7  A    between atoms: C_14  and  C_15
REMARK                            x       y       z     vdW  Elec       q    Type
REMARK                         _______ _______ _______ _____ _____    ______ ____
ROOT
ATOM      1  N   UNL     1       2.048   5.631  18.994  0.00  0.00    +0.000 N 
ATOM      2  C   UNL     1       2.723   5.017  17.954  0.00  0.00    +0.000 C 
ATOM      3  N   UNL     1       3.850   5.421  17.474  0.00  0.00    +0.000 NA
ATOM      4  S   UNL     1       1.831   3.573  17.500  0.00  0.00    +0.000 S 
ATOM      5  C   UNL     1       1.087   3.384  19.144  0.00  0.00    +0.000 C 
ATOM      6  C   UNL     1       1.714   2.202  19.864  0.00  0.00    +0.000 C 
ATOM      7  S   UNL     1       2.933   2.869  20.948  0.00  0.00    +0.000 S 
ATOM      8  O   UNL     1       4.172   3.063  20.227  0.00  0.00    +0.000 OA
ATOM      9  O   UNL     1       2.878   2.159  22.209  0.00  0.00    +0.000 OA
ATOM     10  C   UNL     1       2.156   4.437  21.163  0.00  0.00    +0.000 C 
ATOM     11  C   UNL     1       1.340   4.711  19.901  0.00  0.00    +0.000 C 
ENDROOT
BRANCH   1  16
ATOM     12  C   UNL     1       1.389   8.989  20.541  0.00  0.00    +0.000 A 
ATOM     13  C   UNL     1       1.523   9.819  19.432  0.00  0.00    +0.000 A 
ATOM     14  C   UNL     1       1.851   9.277  18.193  0.00  0.00    +0.000 A 
ATOM     15  C   UNL     1       2.051   7.899  18.058  0.00  0.00    +0.000 A 
ATOM     16  C   UNL     1       1.901   7.025  19.149  0.00  0.00    +0.000 A 
ATOM     17  C   UNL     1       1.564   7.609  20.387  0.00  0.00    +0.000 A 
BRANCH  12  19
ATOM     18  C   UNL     1      -0.148   9.264  22.340  0.00  0.00    +0.000 C 
ATOM     19  O   UNL     1       1.077   9.625  21.712  0.00  0.00    +0.000 OA
ENDBRANCH  12  19
ENDBRANCH   1  16
BRANCH   3  20
ATOM     20  C   UNL     1       4.602   4.683  16.597  0.00  0.00    +0.000 C 
ATOM     21  O   UNL     1       4.734   3.462  16.560  0.00  0.00    +0.000 OA
BRANCH  20  22
ATOM     22  C   UNL     1       5.353   5.550  15.608  0.00  0.00    +0.000 C 
BRANCH  22  23
ATOM     23  C   UNL     1       6.811   5.117  15.496  0.00  0.00    +0.000 C 
BRANCH  23  24
ATOM     24  C   UNL     1       7.696   5.651  16.627  0.00  0.00    +0.000 C 
ATOM     25  C   UNL     1       7.285   7.023  17.154  0.00  0.00    +0.000 C 
ATOM     26  C   UNL     1       7.973   7.080  18.508  0.00  0.00    +0.000 C 
ATOM     27  C   UNL     1       7.799   5.677  19.072  0.00  0.00    +0.000 C 
ATOM     28  C   UNL     1       7.661   4.748  17.865  0.00  0.00    +0.000 C 
ENDBRANCH  23  24
ENDBRANCH  22  23
ENDBRANCH  20  22
ENDBRANCH   3  20
TORSDOF 6
ENDMDL
MODEL 5
REMARK VINA RESULT:      -7.7      3.324      4.681
REMARK  Name = 
REMARK  7 active torsions:
REMARK  status: ('A' for Active; 'I' for Inactive)
REMARK    1  A    between atoms: C_1  and  O_2
REMARK    2  A    between atoms: O_2  and  C_3
REMARK    3  A    between atoms: C_7  and  N_8
REMARK    4  A    between atoms: N_10  and  C_11
REMARK    5  A    between atoms: C_11  and  C_13
REMARK    6  A    between atoms: C_13  and  C_14
REMARK    7  A    between atoms: C_14  and  C_15
REMARK                            x       y       z     vdW  Elec       q    Type
REMARK                         _______ _______ _______ _____ _____    ______ ____
ROOT
ATOM      1  N   UNL     1       3.526   6.210  18.055  0.00  0.00    +0.000 N 
ATOM      2  C   UNL     1       4.763   6.261  17.436  0.00  0.00    +0.000 C 
ATOM      3  N   UNL     1       5.723   7.049  17.782  0.00  0.00    +0.000 NA
ATOM      4  S   UNL     1       4.805   5.015  16.197  0.00  0.00    +0.000 S 
ATOM      5  C   UNL     1       3.573   3.984  17.039  0.00  0.00    +0.000 C 
ATOM      6  C   UNL     1       4.243   2.756  17.634  0.00  0.00    +0.000 C 
ATOM      7  S   UNL     1       4.507   3.110  19.340  0.00  0.00    +0.000 S 
ATOM      8  O   UNL     1       5.745   3.841  19.501  0.00  0.00    +0.000 OA
ATOM      9  O   UNL     1       4.205   1.924  20.115  0.00  0.00    +0.000 OA
ATOM     10  C   UNL     1       3.162   4.236  19.508  0.00  0.00    +0.000 C 
ATOM     11  C   UNL     1       2.929   4.866  18.136  0.00  0.00    +0.000 C 
ENDROOT
BRANCH   1  16
ATOM     12  C   UNL     1       2.017   9.648  18.134  0.00  0.00    +0.000 A 
ATOM     13  C   UNL     1       1.371   9.622  19.366  0.00  0.00    +0.000 A 
ATOM     14  C   UNL     1       1.413   8.474  20.151  0.00  0.00    +0.000 A 
ATOM     15  C   UNL     1       2.102   7.342  19.702  0.00  0.00    +0.000 A 
ATOM     16  C   UNL     1       2.787   7.337  18.475  0.00  0.00    +0.000 A 
ATOM     17  C   UNL     1       2.725   8.518  17.709  0.00  0.00    +0.000 A 
BRANCH  12  19
ATOM     18  C   UNL     1       2.298  12.014  18.108  0.00  0.00    +0.000 C 
ATOM     19  O   UNL     1       1.901  10.821  17.439  0.00  0.00    +0.000 OA
ENDBRANCH  12  19
ENDBRANCH   1  16
BRANCH   3  20
ATOM     20  C   UNL     1       7.001   6.934  17.301  0.00  0.00    +0.000 C 
ATOM     21  O   UNL     1       7.397   6.231  16.375  0.00  0.00    +0.000 OA
BRANCH  20  22
ATOM     22  C   UNL     1       7.989   7.783  18.075  0.00  0.00    +0.000 C 
BRANCH  22  23
ATOM     23  C   UNL     1       7.856   9.255  17.700  0.00  0.00    +0.000 C 
BRANCH  23  24
ATOM     24  C   UNL     1       9.034  10.114  18.171  0.00  0.00    +0.000 C 
ATOM     25  C   UNL     1       8.868  11.609  17.913  0.00  0.00    +0.000 C 
ATOM     26  C   UNL     1       9.879  12.227  18.865  0.00  0.00    +0.000 C 
ATOM     27  C   UNL     1       9.756  11.391  20.131  0.00  0.00    +0.000 C 
ATOM     28  C   UNL     1       9.252  10.017  19.685  0.00  0.00    +0.000 C 
ENDBRANCH  23  24
ENDBRANCH  22  23
ENDBRANCH  20  22
ENDBRANCH   3  20
TORSDOF 6
ENDMDL
MODEL 6
REMARK VINA RESULT:      -7.6      0.988      1.626
REMARK  Name = 
REMARK  7 active torsions:
REMARK  status: ('A' for Active; 'I' for Inactive)
REMARK    1  A    between atoms: C_1  and  O_2
REMARK    2  A    between atoms: O_2  and  C_3
REMARK    3  A    between atoms: C_7  and  N_8
REMARK    4  A    between atoms: N_10  and  C_11
REMARK    5  A    between atoms: C_11  and  C_13
REMARK    6  A    between atoms: C_13  and  C_14
REMARK    7  A    between atoms: C_14  and  C_15
REMARK                            x       y       z     vdW  Elec       q    Type
REMARK                         _______ _______ _______ _____ _____    ______ ____
ROOT
ATOM      1  N   UNL     1       2.642   5.709  18.716  0.00  0.00    +0.000 N 
ATOM      2  C   UNL     1       3.850   5.330  18.157  0.00  0.00    +0.000 C 
ATOM      3  N   UNL     1       4.990   5.855  18.455  0.00  0.00    +0.000 NA
ATOM      4  S   UNL     1       3.552   3.975  17.079  0.00  0.00    +0.000 S 
ATOM      5  C   UNL     1       2.066   3.448  17.976  0.00  0.00    +0.000 C 
ATOM      6  C   UNL     1       2.351   2.167  18.745  0.00  0.00    +0.000 C 
ATOM      7  S   UNL     1       2.680   2.649  20.408  0.00  0.00    +0.000 S 
ATOM      8  O   UNL     1       4.073   3.018  20.542  0.00  0.00    +0.000 OA
ATOM      9  O   UNL     1       2.043   1.705  21.303  0.00  0.00    +0.000 OA
ATOM     10  C   UNL     1       1.710   4.120  20.373  0.00  0.00    +0.000 C 
ATOM     11  C   UNL     1       1.685   4.609  18.926  0.00  0.00    +0.000 C 
ENDROOT
BRANCH   1  16
ATOM     12  C   UNL     1       2.072   9.392  18.257  0.00  0.00    +0.000 A 
ATOM     13  C   UNL     1       1.533   9.730  19.495  0.00  0.00    +0.000 A 
ATOM     14  C   UNL     1       1.339   8.748  20.462  0.00  0.00    +0.000 A 
ATOM     15  C   UNL     1       1.681   7.419  20.191  0.00  0.00    +0.000 A 
ATOM     16  C   UNL     1       2.248   7.041  18.961  0.00  0.00    +0.000 A 
ATOM     17  C   UNL     1       2.434   8.063  18.009  0.00  0.00    +0.000 A 
BRANCH  12  19
ATOM     18  C   UNL     1       2.348  11.735  17.930  0.00  0.00    +0.000 C 
ATOM     19  O   UNL     1       2.208  10.431  17.377  0.00  0.00    +0.000 OA
ENDBRANCH  12  19
ENDBRANCH   1  16
BRANCH   3  20
ATOM     20  C   UNL     1       6.189   5.325  18.055  0.00  0.00    +0.000 C 
ATOM     21  O   UNL     1       6.900   4.527  18.662  0.00  0.00    +0.000 OA
BRANCH  20  22
ATOM     22  C   UNL     1       6.636   5.857  16.709  0.00  0.00    +0.000 C 
BRANCH  22  23
ATOM     23  C   UNL     1       7.113   4.725  15.804  0.00  0.00    +0.000 C 
BRANCH  23  24
ATOM     24  C   UNL     1       6.699   4.898  14.340  0.00  0.00    +0.000 C 
ATOM     25  C   UNL     1       7.865   5.090  13.373  0.00  0.00    +0.000 C 
ATOM     26  C   UNL     1       7.242   4.755  12.028  0.00  0.00    +0.000 C 
ATOM     27  C   UNL     1       6.348   3.559  12.321  0.00  0.00    +0.000 C 
ATOM     28  C   UNL     1       5.962   3.669  13.797  0.00  0.00    +0.000 C 
ENDBRANCH  23  24
ENDBRANCH  22  23
ENDBRANCH  20  22
ENDBRANCH   3  20
TORSDOF 6
ENDMDL
MODEL 7
REMARK VINA RESULT:      -7.5      4.088      7.422
REMARK  Name = 
REMARK  7 active torsions:
REMARK  status: ('A' for Active; 'I' for Inactive)
REMARK    1  A    between atoms: C_1  and  O_2
REMARK    2  A    between atoms: O_2  and  C_3
REMARK    3  A    between atoms: C_7  and  N_8
REMARK    4  A    between atoms: N_10  and  C_11
REMARK    5  A    between atoms: C_11  and  C_13
REMARK    6  A    between atoms: C_13  and  C_14
REMARK    7  A    between atoms: C_14  and  C_15
REMARK                            x       y       z     vdW  Elec       q    Type
REMARK                         _______ _______ _______ _____ _____    ______ ____
ROOT
ATOM      1  N   UNL     1       6.242   4.855  16.236  0.00  0.00    +0.000 N 
ATOM      2  C   UNL     1       6.979   5.608  17.134  0.00  0.00    +0.000 C 
ATOM      3  N   UNL     1       7.468   6.774  16.882  0.00  0.00    +0.000 NA
ATOM      4  S   UNL     1       7.028   4.742  18.662  0.00  0.00    +0.000 S 
ATOM      5  C   UNL     1       5.474   3.863  18.338  0.00  0.00    +0.000 C 
ATOM      6  C   UNL     1       4.370   4.416  19.225  0.00  0.00    +0.000 C 
ATOM      7  S   UNL     1       3.455   5.549  18.231  0.00  0.00    +0.000 S 
ATOM      8  O   UNL     1       4.098   6.845  18.253  0.00  0.00    +0.000 OA
ATOM      9  O   UNL     1       2.044   5.383  18.512  0.00  0.00    +0.000 OA
ATOM     10  C   UNL     1       3.807   4.772  16.689  0.00  0.00    +0.000 C 
ATOM     11  C   UNL     1       5.153   4.065  16.838  0.00  0.00    +0.000 C 
ENDROOT
BRANCH   1  16
ATOM     12  C   UNL     1       6.181   3.616  12.692  0.00  0.00    +0.000 A 
ATOM     13  C   UNL     1       7.216   4.362  12.136  0.00  0.00    +0.000 A 
ATOM     14  C   UNL     1       7.911   5.281  12.918  0.00  0.00    +0.000 A 
ATOM     15  C   UNL     1       7.568   5.460  14.262  0.00  0.00    +0.000 A 
ATOM     16  C   UNL     1       6.544   4.709  14.866  0.00  0.00    +0.000 A 
ATOM     17  C   UNL     1       5.866   3.786  14.045  0.00  0.00    +0.000 A 
BRANCH  12  19
ATOM     18  C   UNL     1       4.298   3.156  11.308  0.00  0.00    +0.000 C 
ATOM     19  O   UNL     1       5.558   2.753  11.832  0.00  0.00    +0.000 OA
ENDBRANCH  12  19
ENDBRANCH   1  16
BRANCH   3  20
ATOM     20  C   UNL     1       8.005   7.589  17.844  0.00  0.00    +0.000 C 
ATOM     21  O   UNL     1       8.533   7.258  18.903  0.00  0.00    +0.000 OA
BRANCH  20  22
ATOM     22  C   UNL     1       7.864   9.058  17.502  0.00  0.00    +0.000 C 
BRANCH  22  23
ATOM     23  C   UNL     1       8.531   9.932  18.559  0.00  0.00    +0.000 C 
BRANCH  23  24
ATOM     24  C   UNL     1       9.523  10.944  17.978  0.00  0.00    +0.000 C 
ATOM     25  C   UNL     1       8.933  12.329  17.720  0.00  0.00    +0.000 C 
ATOM     26  C   UNL     1      10.170  13.206  17.626  0.00  0.00    +0.000 C 
ATOM     27  C   UNL     1      11.085  12.676  18.720  0.00  0.00    +0.000 C 
ATOM     28  C   UNL     1      10.701  11.209  18.922  0.00  0.00    +0.000 C 
ENDBRANCH  23  24
ENDBRANCH  22  23
ENDBRANCH  20  22
ENDBRANCH   3  20
TORSDOF 6
ENDMDL
MODEL 8
REMARK VINA RESULT:      -7.4      2.091      7.386
REMARK  Name = 
REMARK  7 active torsions:
REMARK  status: ('A' for Active; 'I' for Inactive)
REMARK    1  A    between atoms: C_1  and  O_2
REMARK    2  A    between atoms: O_2  and  C_3
REMARK    3  A    between atoms: C_7  and  N_8
REMARK    4  A    between atoms: N_10  and  C_11
REMARK    5  A    between atoms: C_11  and  C_13
REMARK    6  A    between atoms: C_13  and  C_14
REMARK    7  A    between atoms: C_14  and  C_15
REMARK                            x       y       z     vdW  Elec       q    Type
REMARK                         _______ _______ _______ _____ _____    ______ ____
ROOT
ATOM      1  N   UNL     1       3.903   5.059  19.042  0.00  0.00    +0.000 N 
ATOM      2  C   UNL     1       3.044   6.143  19.076  0.00  0.00    +0.000 C 
ATOM      3  N   UNL     1       2.963   7.042  18.155  0.00  0.00    +0.000 NA
ATOM      4  S   UNL     1       2.048   6.006  20.517  0.00  0.00    +0.000 S 
ATOM      5  C   UNL     1       2.213   4.201  20.591  0.00  0.00    +0.000 C 
ATOM      6  C   UNL     1       0.901   3.543  20.193  0.00  0.00    +0.000 C 
ATOM      7  S   UNL     1       1.074   3.075  18.502  0.00  0.00    +0.000 S 
ATOM      8  O   UNL     1       0.749   4.198  17.650  0.00  0.00    +0.000 OA
ATOM      9  O   UNL     1       0.479   1.768  18.316  0.00  0.00    +0.000 OA
ATOM     10  C   UNL     1       2.826   2.884  18.538  0.00  0.00    +0.000 C 
ATOM     11  C   UNL     1       3.358   3.819  19.623  0.00  0.00    +0.000 C 
ENDROOT
BRANCH   1  16
ATOM     12  C   UNL     1       6.973   4.781  16.897  0.00  0.00    +0.000 A 
ATOM     13  C   UNL     1       7.963   5.128  17.812  0.00  0.00    +0.000 A 
ATOM     14  C   UNL     1       7.618   5.472  19.115  0.00  0.00    +0.000 A 
ATOM     15  C   UNL     1       6.275   5.475  19.509  0.00  0.00    +0.000 A 
ATOM     16  C   UNL     1       5.248   5.108  18.622  0.00  0.00    +0.000 A 
ATOM     17  C   UNL     1       5.636   4.761  17.312  0.00  0.00    +0.000 A 
BRANCH  12  19
ATOM     18  C   UNL     1       6.464   4.497  14.588  0.00  0.00    +0.000 C 
ATOM     19  O   UNL     1       7.420   4.472  15.642  0.00  0.00    +0.000 OA
ENDBRANCH  12  19
ENDBRANCH   1  16
BRANCH   3  20
ATOM     20  C   UNL     1       1.965   7.979  18.104  0.00  0.00    +0.000 C 
ATOM     21  O   UNL     1       0.954   7.967  17.405  0.00  0.00    +0.000 OA
BRANCH  20  22
ATOM     22  C   UNL     1       2.226   9.152  19.026  0.00  0.00    +0.000 C 
BRANCH  22  23
ATOM     23  C   UNL     1       0.963   9.984  19.226  0.00  0.00    +0.000 C 
BRANCH  23  24
ATOM     24  C   UNL     1       0.205   9.645  20.513  0.00  0.00    +0.000 C 
ATOM     25  C   UNL     1       1.100   9.291  21.697  0.00  0.00    +0.000 C 
ATOM     26  C   UNL     1       0.172   9.478  22.886  0.00  0.00    +0.000 C 
ATOM     27  C   UNL     1      -0.618  10.734  22.545  0.00  0.00    +0.000 C 
ATOM     28  C   UNL     1      -0.635  10.824  21.018  0.00  0.00    +0.000 C 
ENDBRANCH  23  24
ENDBRANCH  22  23
ENDBRANCH  20  22
ENDBRANCH   3  20
TORSDOF 6
ENDMDL
MODEL 9
REMARK VINA RESULT:      -7.3      2.514      5.710
REMARK  Name = 
REMARK  7 active torsions:
REMARK  status: ('A' for Active; 'I' for Inactive)
REMARK    1  A    between atoms: C_1  and  O_2
REMARK    2  A    between atoms: O_2  and  C_3
REMARK    3  A    between atoms: C_7  and  N_8
REMARK    4  A    between atoms: N_10  and  C_11
REMARK    5  A    between atoms: C_11  and  C_13
REMARK    6  A    between atoms: C_13  and  C_14
REMARK    7  A    between atoms: C_14  and  C_15
REMARK                            x       y       z     vdW  Elec       q    Type
REMARK                         _______ _______ _______ _____ _____    ______ ____
ROOT
ATOM      1  N   UNL     1       4.073   6.105  18.127  0.00  0.00    +0.000 N 
ATOM      2  C   UNL     1       3.738   4.764  18.187  0.00  0.00    +0.000 C 
ATOM      3  N   UNL     1       2.645   4.261  17.723  0.00  0.00    +0.000 NA
ATOM      4  S   UNL     1       5.089   3.894  18.898  0.00  0.00    +0.000 S 
ATOM      5  C   UNL     1       6.306   5.130  18.365  0.00  0.00    +0.000 C 
ATOM      6  C   UNL     1       7.151   4.571  17.232  0.00  0.00    +0.000 C 
ATOM      7  S   UNL     1       6.465   5.208  15.739  0.00  0.00    +0.000 S 
ATOM      8  O   UNL     1       5.367   4.368  15.310  0.00  0.00    +0.000 OA
ATOM      9  O   UNL     1       7.545   5.579  14.849  0.00  0.00    +0.000 OA
ATOM     10  C   UNL     1       5.804   6.680  16.449  0.00  0.00    +0.000 C 
ATOM     11  C   UNL     1       5.506   6.377  17.916  0.00  0.00    +0.000 C 
ENDROOT
BRANCH   1  16
ATOM     12  C   UNL     1       1.613   8.359  19.851  0.00  0.00    +0.000 A 
ATOM     13  C   UNL     1       1.332   9.266  18.834  0.00  0.00    +0.000 A 
ATOM     14  C   UNL     1       1.966   9.148  17.600  0.00  0.00    +0.000 A 
ATOM     15  C   UNL     1       2.889   8.121  17.381  0.00  0.00    +0.000 A 
ATOM     16  C   UNL     1       3.183   7.171  18.375  0.00  0.00    +0.000 A 
ATOM     17  C   UNL     1       2.519   7.320  19.609  0.00  0.00    +0.000 A 
BRANCH  12  19
ATOM     18  C   UNL     1      -0.158   9.472  20.989  0.00  0.00    +0.000 C 
ATOM     19  O   UNL     1       0.946   8.574  21.026  0.00  0.00    +0.000 OA
ENDBRANCH  12  19
ENDBRANCH   1  16
BRANCH   3  20
ATOM     20  C   UNL     1       2.430   2.914  17.599  0.00  0.00    +0.000 C 
ATOM     21  O   UNL     1       3.205   2.063  17.167  0.00  0.00    +0.000 OA
BRANCH  20  22
ATOM     22  C   UNL     1       1.038   2.507  18.039  0.00  0.00    +0.000 C 
BRANCH  22  23
ATOM     23  C   UNL     1       1.088   1.701  19.333  0.00  0.00    +0.000 C 
BRANCH  23  24
ATOM     24  C   UNL     1       1.209   2.569  20.589  0.00  0.00    +0.000 C 
ATOM     25  C   UNL     1       2.625   2.672  21.150  0.00  0.00    +0.000 C 
ATOM     26  C   UNL     1       2.546   3.907  22.031  0.00  0.00    +0.000 C 
ATOM     27  C   UNL     1       1.693   4.881  21.231  0.00  0.00    +0.000 C 
ATOM     28  C   UNL     1       0.802   4.023  20.331  0.00  0.00    +0.000 C 
ENDBRANCH  23  24
ENDBRANCH  22  23
ENDBRANCH  20  22
ENDBRANCH   3  20
TORSDOF 6
ENDMDL
