MODEL 1
REMARK VINA RESULT:      -8.1      0.000      0.000
REMARK  Name = 
REMARK  13 active torsions:
REMARK  status: ('A' for Active; 'I' for Inactive)
REMARK    1  A    between atoms: C_1  and  O_2
REMARK    2  A    between atoms: O_2  and  C_3
REMARK    3  A    between atoms: C_5  and  N_6
REMARK    4  A    between atoms: C_7  and  C_9
REMARK    5  A    between atoms: C_9  and  N_10
REMARK    6  A    between atoms: C_11  and  C_13
REMARK    7  A    between atoms: C_13  and  N_14
REMARK    8  A    between atoms: C_19  and  C_20
REMARK    9  A    between atoms: C_21  and  C_22
REMARK   10  A    between atoms: C_27  and  O_28
REMARK   11  A    between atoms: O_28  and  C_29
REMARK   12  A    between atoms: C_30  and  O_31
REMARK   13  A    between atoms: O_31  and  C_32
REMARK                            x       y       z     vdW  Elec       q    Type
REMARK                         _______ _______ _______ _____ _____    ______ ____
ROOT
ATOM      1  C   UNL     1       7.936   7.321  18.177  0.00  0.00    +0.000 C 
ENDROOT
BRANCH   1   3
ATOM      2  N   UNL     1       9.128   9.265  19.072  0.00  0.00    +0.000 N 
ATOM      3  C   UNL     1       8.210   8.830  18.124  0.00  0.00    +0.000 C 
ATOM      4  O   UNL     1       7.650   9.533  17.285  0.00  0.00    +0.000 OA
ATOM      5  H   UNL     1       9.605   8.537  19.604  0.00  0.00    +0.000 HD
BRANCH   2   8
ATOM      6  C   UNL     1       9.762  12.445  20.971  0.00  0.00    +0.000 A 
ATOM      7  C   UNL     1       9.289  11.156  20.648  0.00  0.00    +0.000 A 
ATOM      8  C   UNL     1       9.455  10.603  19.386  0.00  0.00    +0.000 A 
ATOM      9  C   UNL     1      10.036  11.397  18.398  0.00  0.00    +0.000 A 
ATOM     10  C   UNL     1      10.441  12.718  18.669  0.00  0.00    +0.000 A 
ATOM     11  C   UNL     1      10.295  13.269  19.962  0.00  0.00    +0.000 A 
BRANCH   6  13
ATOM     12  C   UNL     1       8.423  13.401  22.674  0.00  0.00    +0.000 C 
ATOM     13  O   UNL     1       9.700  12.901  22.267  0.00  0.00    +0.000 OA
ENDBRANCH   6  13
BRANCH  10  14
ATOM     14  O   UNL     1      10.927  13.357  17.550  0.00  0.00    +0.000 OA
ATOM     15  C   UNL     1      12.332  13.313  17.330  0.00  0.00    +0.000 C 
ENDBRANCH  10  14
BRANCH  11  16
ATOM     16  O   UNL     1      10.676  14.576  20.090  0.00  0.00    +0.000 OA
ATOM     17  C   UNL     1       9.749  15.635  19.941  0.00  0.00    +0.000 C 
ENDBRANCH  11  16
ENDBRANCH   2   8
ENDBRANCH   1   3
BRANCH   1  18
ATOM     18  N   UNL     1       6.656   6.992  17.571  0.00  0.00    +0.000 N 
ATOM     19  C   UNL     1       6.551   6.292  16.394  0.00  0.00    +0.000 C 
ATOM     20  O   UNL     1       7.534   5.922  15.758  0.00  0.00    +0.000 OA
ATOM     21  H   UNL     1       5.817   7.417  17.967  0.00  0.00    +0.000 HD
BRANCH  19  22
ATOM     22  C   UNL     1       5.115   5.989  15.957  0.00  0.00    +0.000 C 
BRANCH  22  23
ATOM     23  N   UNL     1       4.461   5.011  16.811  0.00  0.00    +0.000 N 
ATOM     24  C   UNL     1       4.688   3.664  16.609  0.00  0.00    +0.000 A 
ATOM     25  N   UNL     1       4.229   2.703  17.342  0.00  0.00    +0.000 NA
ATOM     26  C   UNL     1       3.460   3.110  18.382  0.00  0.00    +0.000 A 
ATOM     27  S   UNL     1       2.731   1.989  19.431  0.00  0.00    +0.000 S 
ATOM     28  C   UNL     1       2.018   3.223  20.379  0.00  0.00    +0.000 A 
ATOM     29  C   UNL     1       1.170   2.844  21.552  0.00  0.00    +0.000 C 
ATOM     30  C   UNL     1       2.339   4.492  19.913  0.00  0.00    +0.000 A 
ATOM     31  C   UNL     1       1.893   5.776  20.540  0.00  0.00    +0.000 C 
ATOM     32  C   UNL     1       3.167   4.410  18.735  0.00  0.00    +0.000 A 
ATOM     33  C   UNL     1       3.722   5.470  17.903  0.00  0.00    +0.000 A 
ATOM     34  O   UNL     1       3.559   6.666  18.141  0.00  0.00    +0.000 OA
ENDBRANCH  22  23
ENDBRANCH  19  22
ENDBRANCH   1  18
TORSDOF 8
ENDMDL
MODEL 2
REMARK VINA RESULT:      -8.0      0.332      2.258
REMARK  Name = 
REMARK  13 active torsions:
REMARK  status: ('A' for Active; 'I' for Inactive)
REMARK    1  A    between atoms: C_1  and  O_2
REMARK    2  A    between atoms: O_2  and  C_3
REMARK    3  A    between atoms: C_5  and  N_6
REMARK    4  A    between atoms: C_7  and  C_9
REMARK    5  A    between atoms: C_9  and  N_10
REMARK    6  A    between atoms: C_11  and  C_13
REMARK    7  A    between atoms: C_13  and  N_14
REMARK    8  A    between atoms: C_19  and  C_20
REMARK    9  A    between atoms: C_21  and  C_22
REMARK   10  A    between atoms: C_27  and  O_28
REMARK   11  A    between atoms: O_28  and  C_29
REMARK   12  A    between atoms: C_30  and  O_31
REMARK   13  A    between atoms: O_31  and  C_32
REMARK                            x       y       z     vdW  Elec       q    Type
REMARK                         _______ _______ _______ _____ _____    ______ ____
ROOT
ATOM      1  C   UNL     1       7.987   7.346  18.242  0.00  0.00    +0.000 C 
ENDROOT
BRANCH   1   3
ATOM      2  N   UNL     1       9.226   9.278  19.097  0.00  0.00    +0.000 N 
ATOM      3  C   UNL     1       8.343   8.833  18.122  0.00  0.00    +0.000 C 
ATOM      4  O   UNL     1       7.870   9.512  17.211  0.00  0.00    +0.000 OA
ATOM      5  H   UNL     1       9.632   8.560  19.697  0.00  0.00    +0.000 HD
BRANCH   2   8
ATOM      6  C   UNL     1      10.446  12.804  18.647  0.00  0.00    +0.000 A 
ATOM      7  C   UNL     1      10.216  11.432  18.413  0.00  0.00    +0.000 A 
ATOM      8  C   UNL     1       9.605  10.614  19.354  0.00  0.00    +0.000 A 
ATOM      9  C   UNL     1       9.292  11.169  20.594  0.00  0.00    +0.000 A 
ATOM     10  C   UNL     1       9.587  12.515  20.886  0.00  0.00    +0.000 A 
ATOM     11  C   UNL     1      10.185  13.351  19.917  0.00  0.00    +0.000 A 
BRANCH   6  13
ATOM     12  C   UNL     1      12.323  13.459  17.361  0.00  0.00    +0.000 C 
ATOM     13  O   UNL     1      10.928  13.607  17.639  0.00  0.00    +0.000 OA
ENDBRANCH   6  13
BRANCH  10  14
ATOM     14  O   UNL     1       9.265  12.853  22.182  0.00  0.00    +0.000 OA
ATOM     15  C   UNL     1       8.544  11.894  22.948  0.00  0.00    +0.000 C 
ENDBRANCH  10  14
BRANCH  11  16
ATOM     16  O   UNL     1      10.471  14.622  20.333  0.00  0.00    +0.000 OA
ATOM     17  C   UNL     1       9.464  15.613  20.430  0.00  0.00    +0.000 C 
ENDBRANCH  11  16
ENDBRANCH   2   8
ENDBRANCH   1   3
BRANCH   1  18
ATOM     18  N   UNL     1       6.692   7.059  17.646  0.00  0.00    +0.000 N 
ATOM     19  C   UNL     1       6.556   6.434  16.431  0.00  0.00    +0.000 C 
ATOM     20  O   UNL     1       7.523   6.101  15.751  0.00  0.00    +0.000 OA
ATOM     21  H   UNL     1       5.864   7.462  18.087  0.00  0.00    +0.000 HD
BRANCH  19  22
ATOM     22  C   UNL     1       5.110   6.164  16.009  0.00  0.00    +0.000 C 
BRANCH  22  23
ATOM     23  N   UNL     1       4.461   5.160  16.836  0.00  0.00    +0.000 N 
ATOM     24  C   UNL     1       4.700   3.820  16.602  0.00  0.00    +0.000 A 
ATOM     25  N   UNL     1       4.246   2.837  17.309  0.00  0.00    +0.000 NA
ATOM     26  C   UNL     1       3.469   3.213  18.356  0.00  0.00    +0.000 A 
ATOM     27  S   UNL     1       2.745   2.060  19.373  0.00  0.00    +0.000 S 
ATOM     28  C   UNL     1       2.017   3.265  20.347  0.00  0.00    +0.000 A 
ATOM     29  C   UNL     1       1.168   2.850  21.507  0.00  0.00    +0.000 C 
ATOM     30  C   UNL     1       2.330   4.547  19.915  0.00  0.00    +0.000 A 
ATOM     31  C   UNL     1       1.870   5.811  20.571  0.00  0.00    +0.000 C 
ATOM     32  C   UNL     1       3.163   4.501  18.738  0.00  0.00    +0.000 A 
ATOM     33  C   UNL     1       3.713   5.585  17.935  0.00  0.00    +0.000 A 
ATOM     34  O   UNL     1       3.539   6.774  18.201  0.00  0.00    +0.000 OA
ENDBRANCH  22  23
ENDBRANCH  19  22
ENDBRANCH   1  18
TORSDOF 8
ENDMDL
MODEL 3
REMARK VINA RESULT:      -7.8      1.236      2.790
REMARK  Name = 
REMARK  13 active torsions:
REMARK  status: ('A' for Active; 'I' for Inactive)
REMARK    1  A    between atoms: C_1  and  O_2
REMARK    2  A    between atoms: O_2  and  C_3
REMARK    3  A    between atoms: C_5  and  N_6
REMARK    4  A    between atoms: C_7  and  C_9
REMARK    5  A    between atoms: C_9  and  N_10
REMARK    6  A    between atoms: C_11  and  C_13
REMARK    7  A    between atoms: C_13  and  N_14
REMARK    8  A    between atoms: C_19  and  C_20
REMARK    9  A    between atoms: C_21  and  C_22
REMARK   10  A    between atoms: C_27  and  O_28
REMARK   11  A    between atoms: O_28  and  C_29
REMARK   12  A    between atoms: C_30  and  O_31
REMARK   13  A    between atoms: O_31  and  C_32
REMARK                            x       y       z     vdW  Elec       q    Type
REMARK                         _______ _______ _______ _____ _____    ______ ____
ROOT
ATOM      1  C   UNL     1       7.980   7.112  18.288  0.00  0.00    +0.000 C 
ENDROOT
BRANCH   1   3
ATOM      2  N   UNL     1       9.134   9.128  19.064  0.00  0.00    +0.000 N 
ATOM      3  C   UNL     1       8.201   8.626  18.166  0.00  0.00    +0.000 C 
ATOM      4  O   UNL     1       7.591   9.275  17.318  0.00  0.00    +0.000 OA
ATOM      5  H   UNL     1       9.652   8.438  19.608  0.00  0.00    +0.000 HD
BRANCH   2   8
ATOM      6  C   UNL     1       9.884  12.778  18.572  0.00  0.00    +0.000 A 
ATOM      7  C   UNL     1       9.746  11.398  18.314  0.00  0.00    +0.000 A 
ATOM      8  C   UNL     1       9.426  10.488  19.313  0.00  0.00    +0.000 A 
ATOM      9  C   UNL     1       9.326  10.963  20.619  0.00  0.00    +0.000 A 
ATOM     10  C   UNL     1       9.544  12.322  20.920  0.00  0.00    +0.000 A 
ATOM     11  C   UNL     1       9.842  13.250  19.897  0.00  0.00    +0.000 A 
BRANCH   6  13
ATOM     12  C   UNL     1      11.410  13.774  17.060  0.00  0.00    +0.000 C 
ATOM     13  O   UNL     1      10.065  13.662  17.534  0.00  0.00    +0.000 OA
ENDBRANCH   6  13
BRANCH  10  14
ATOM     14  O   UNL     1       9.467  12.579  22.270  0.00  0.00    +0.000 OA
ATOM     15  C   UNL     1       8.183  12.875  22.808  0.00  0.00    +0.000 C 
ENDBRANCH  10  14
BRANCH  11  16
ATOM     16  O   UNL     1      10.083  14.529  20.317  0.00  0.00    +0.000 OA
ATOM     17  C   UNL     1       9.084  15.530  20.252  0.00  0.00    +0.000 C 
ENDBRANCH  11  16
ENDBRANCH   2   8
ENDBRANCH   1   3
BRANCH   1  18
ATOM     18  N   UNL     1       6.696   6.717  17.732  0.00  0.00    +0.000 N 
ATOM     19  C   UNL     1       6.563   6.206  16.463  0.00  0.00    +0.000 C 
ATOM     20  O   UNL     1       7.518   6.077  15.702  0.00  0.00    +0.000 OA
ATOM     21  H   UNL     1       5.854   6.957  18.256  0.00  0.00    +0.000 HD
BRANCH  19  22
ATOM     22  C   UNL     1       5.139   5.788  16.089  0.00  0.00    +0.000 C 
BRANCH  22  23
ATOM     23  N   UNL     1       4.286   5.594  17.250  0.00  0.00    +0.000 N 
ATOM     24  C   UNL     1       3.558   6.654  17.752  0.00  0.00    +0.000 A 
ATOM     25  N   UNL     1       2.711   6.595  18.727  0.00  0.00    +0.000 NA
ATOM     26  C   UNL     1       2.567   5.360  19.270  0.00  0.00    +0.000 A 
ATOM     27  S   UNL     1       1.532   5.093  20.591  0.00  0.00    +0.000 S 
ATOM     28  C   UNL     1       1.898   3.421  20.638  0.00  0.00    +0.000 A 
ATOM     29  C   UNL     1       1.252   2.562  21.678  0.00  0.00    +0.000 C 
ATOM     30  C   UNL     1       2.797   3.054  19.644  0.00  0.00    +0.000 A 
ATOM     31  C   UNL     1       3.293   1.663  19.406  0.00  0.00    +0.000 C 
ATOM     32  C   UNL     1       3.194   4.201  18.865  0.00  0.00    +0.000 A 
ATOM     33  C   UNL     1       4.123   4.299  17.747  0.00  0.00    +0.000 A 
ATOM     34  O   UNL     1       4.711   3.326  17.274  0.00  0.00    +0.000 OA
ENDBRANCH  22  23
ENDBRANCH  19  22
ENDBRANCH   1  18
TORSDOF 8
ENDMDL
MODEL 4
REMARK VINA RESULT:      -7.7      1.254      1.716
REMARK  Name = 
REMARK  13 active torsions:
REMARK  status: ('A' for Active; 'I' for Inactive)
REMARK    1  A    between atoms: C_1  and  O_2
REMARK    2  A    between atoms: O_2  and  C_3
REMARK    3  A    between atoms: C_5  and  N_6
REMARK    4  A    between atoms: C_7  and  C_9
REMARK    5  A    between atoms: C_9  and  N_10
REMARK    6  A    between atoms: C_11  and  C_13
REMARK    7  A    between atoms: C_13  and  N_14
REMARK    8  A    between atoms: C_19  and  C_20
REMARK    9  A    between atoms: C_21  and  C_22
REMARK   10  A    between atoms: C_27  and  O_28
REMARK   11  A    between atoms: O_28  and  C_29
REMARK   12  A    between atoms: C_30  and  O_31
REMARK   13  A    between atoms: O_31  and  C_32
REMARK                            x       y       z     vdW  Elec       q    Type
REMARK                         _______ _______ _______ _____ _____    ______ ____
ROOT
ATOM      1  C   UNL     1       8.001   7.264  18.212  0.00  0.00    +0.000 C 
ENDROOT
BRANCH   1   3
ATOM      2  N   UNL     1       9.123   9.285  19.022  0.00  0.00    +0.000 N 
ATOM      3  C   UNL     1       8.173   8.787  18.140  0.00  0.00    +0.000 C 
ATOM      4  O   UNL     1       7.513   9.448  17.340  0.00  0.00    +0.000 OA
ATOM      5  H   UNL     1       9.680   8.592  19.521  0.00  0.00    +0.000 HD
BRANCH   2   8
ATOM      6  C   UNL     1       9.707  12.504  20.872  0.00  0.00    +0.000 A 
ATOM      7  C   UNL     1       9.297  11.185  20.587  0.00  0.00    +0.000 A 
ATOM      8  C   UNL     1       9.383  10.643  19.312  0.00  0.00    +0.000 A 
ATOM      9  C   UNL     1       9.814  11.475  18.279  0.00  0.00    +0.000 A 
ATOM     10  C   UNL     1      10.148  12.821  18.518  0.00  0.00    +0.000 A 
ATOM     11  C   UNL     1      10.085  13.362  19.822  0.00  0.00    +0.000 A 
BRANCH   6  13
ATOM     12  C   UNL     1       8.456  13.281  22.726  0.00  0.00    +0.000 C 
ATOM     13  O   UNL     1       9.734  12.956  22.171  0.00  0.00    +0.000 OA
ENDBRANCH   6  13
BRANCH  10  14
ATOM     14  O   UNL     1      10.483  13.492  17.363  0.00  0.00    +0.000 OA
ATOM     15  C   UNL     1      11.655  13.066  16.675  0.00  0.00    +0.000 C 
ENDBRANCH  10  14
BRANCH  11  16
ATOM     16  O   UNL     1      10.384  14.693  19.922  0.00  0.00    +0.000 OA
ATOM     17  C   UNL     1      11.715  15.140  20.104  0.00  0.00    +0.000 C 
ENDBRANCH  11  16
ENDBRANCH   2   8
ENDBRANCH   1   3
BRANCH   1  18
ATOM     18  N   UNL     1       6.719   6.848  17.668  0.00  0.00    +0.000 N 
ATOM     19  C   UNL     1       6.598   6.217  16.453  0.00  0.00    +0.000 C 
ATOM     20  O   UNL     1       7.566   5.989  15.732  0.00  0.00    +0.000 OA
ATOM     21  H   UNL     1       5.873   7.160  18.145  0.00  0.00    +0.000 HD
BRANCH  19  22
ATOM     22  C   UNL     1       5.171   5.800  16.089  0.00  0.00    +0.000 C 
BRANCH  22  23
ATOM     23  N   UNL     1       4.325   5.609  17.255  0.00  0.00    +0.000 N 
ATOM     24  C   UNL     1       3.616   6.675  17.771  0.00  0.00    +0.000 A 
ATOM     25  N   UNL     1       2.776   6.621  18.752  0.00  0.00    +0.000 NA
ATOM     26  C   UNL     1       2.621   5.385  19.287  0.00  0.00    +0.000 A 
ATOM     27  S   UNL     1       1.592   5.123  20.615  0.00  0.00    +0.000 S 
ATOM     28  C   UNL     1       1.936   3.446  20.647  0.00  0.00    +0.000 A 
ATOM     29  C   UNL     1       1.286   2.588  21.687  0.00  0.00    +0.000 C 
ATOM     30  C   UNL     1       2.821   3.073  19.644  0.00  0.00    +0.000 A 
ATOM     31  C   UNL     1       3.297   1.677  19.392  0.00  0.00    +0.000 C 
ATOM     32  C   UNL     1       3.228   4.220  18.869  0.00  0.00    +0.000 A 
ATOM     33  C   UNL     1       4.149   4.313  17.744  0.00  0.00    +0.000 A 
ATOM     34  O   UNL     1       4.720   3.336  17.260  0.00  0.00    +0.000 OA
ENDBRANCH  22  23
ENDBRANCH  19  22
ENDBRANCH   1  18
TORSDOF 8
ENDMDL
MODEL 5
REMARK VINA RESULT:      -7.4      3.599     10.936
REMARK  Name = 
REMARK  13 active torsions:
REMARK  status: ('A' for Active; 'I' for Inactive)
REMARK    1  A    between atoms: C_1  and  O_2
REMARK    2  A    between atoms: O_2  and  C_3
REMARK    3  A    between atoms: C_5  and  N_6
REMARK    4  A    between atoms: C_7  and  C_9
REMARK    5  A    between atoms: C_9  and  N_10
REMARK    6  A    between atoms: C_11  and  C_13
REMARK    7  A    between atoms: C_13  and  N_14
REMARK    8  A    between atoms: C_19  and  C_20
REMARK    9  A    between atoms: C_21  and  C_22
REMARK   10  A    between atoms: C_27  and  O_28
REMARK   11  A    between atoms: O_28  and  C_29
REMARK   12  A    between atoms: C_30  and  O_31
REMARK   13  A    between atoms: O_31  and  C_32
REMARK                            x       y       z     vdW  Elec       q    Type
REMARK                         _______ _______ _______ _____ _____    ______ ____
ROOT
ATOM      1  C   UNL     1       7.835   7.625  17.574  0.00  0.00    +0.000 C 
ENDROOT
BRANCH   1   3
ATOM      2  N   UNL     1       5.787   6.321  17.903  0.00  0.00    +0.000 N 
ATOM      3  C   UNL     1       7.096   6.510  18.328  0.00  0.00    +0.000 C 
ATOM      4  O   UNL     1       7.672   5.868  19.204  0.00  0.00    +0.000 OA
ATOM      5  H   UNL     1       5.504   6.841  17.073  0.00  0.00    +0.000 HD
BRANCH   2   8
ATOM      6  C   UNL     1       3.945   3.320  19.218  0.00  0.00    +0.000 A 
ATOM      7  C   UNL     1       4.849   4.113  18.479  0.00  0.00    +0.000 A 
ATOM      8  C   UNL     1       4.809   5.500  18.508  0.00  0.00    +0.000 A 
ATOM      9  C   UNL     1       3.783   6.108  19.230  0.00  0.00    +0.000 A 
ATOM     10  C   UNL     1       2.814   5.341  19.906  0.00  0.00    +0.000 A 
ATOM     11  C   UNL     1       2.874   3.929  19.897  0.00  0.00    +0.000 A 
BRANCH   6  13
ATOM     12  C   UNL     1       3.595   1.241  18.142  0.00  0.00    +0.000 C 
ATOM     13  O   UNL     1       4.105   1.955  19.271  0.00  0.00    +0.000 OA
ENDBRANCH   6  13
BRANCH  10  14
ATOM     14  O   UNL     1       1.849   6.123  20.500  0.00  0.00    +0.000 OA
ATOM     15  C   UNL     1       1.879   7.520  20.229  0.00  0.00    +0.000 C 
ENDBRANCH  10  14
BRANCH  11  16
ATOM     16  O   UNL     1       1.851   3.294  20.547  0.00  0.00    +0.000 OA
ATOM     17  C   UNL     1       1.967   2.898  21.901  0.00  0.00    +0.000 C 
ENDBRANCH  11  16
ENDBRANCH   2   8
ENDBRANCH   1   3
BRANCH   1  18
ATOM     18  N   UNL     1       8.596   8.466  18.483  0.00  0.00    +0.000 N 
ATOM     19  C   UNL     1       8.601   9.837  18.397  0.00  0.00    +0.000 C 
ATOM     20  O   UNL     1       7.984  10.443  17.526  0.00  0.00    +0.000 OA
ATOM     21  H   UNL     1       9.255   8.011  19.116  0.00  0.00    +0.000 HD
BRANCH  19  22
ATOM     22  C   UNL     1       9.412  10.542  19.487  0.00  0.00    +0.000 C 
BRANCH  22  23
ATOM     23  N   UNL     1      10.149  11.691  18.986  0.00  0.00    +0.000 N 
ATOM     24  C   UNL     1      11.264  11.498  18.195  0.00  0.00    +0.000 A 
ATOM     25  N   UNL     1      11.959  12.430  17.629  0.00  0.00    +0.000 NA
ATOM     26  C   UNL     1      11.511  13.687  17.870  0.00  0.00    +0.000 A 
ATOM     27  S   UNL     1      12.321  15.045  17.248  0.00  0.00    +0.000 S 
ATOM     28  C   UNL     1      11.198  16.131  17.948  0.00  0.00    +0.000 A 
ATOM     29  C   UNL     1      11.385  17.602  17.750  0.00  0.00    +0.000 C 
ATOM     30  C   UNL     1      10.195  15.469  18.646  0.00  0.00    +0.000 A 
ATOM     31  C   UNL     1       9.053  16.135  19.346  0.00  0.00    +0.000 C 
ATOM     32  C   UNL     1      10.402  14.042  18.608  0.00  0.00    +0.000 A 
ATOM     33  C   UNL     1       9.628  12.966  19.211  0.00  0.00    +0.000 A 
ATOM     34  O   UNL     1       8.599  13.159  19.858  0.00  0.00    +0.000 OA
ENDBRANCH  22  23
ENDBRANCH  19  22
ENDBRANCH   1  18
TORSDOF 8
ENDMDL
MODEL 6
REMARK VINA RESULT:      -7.3      6.705     10.642
REMARK  Name = 
REMARK  13 active torsions:
REMARK  status: ('A' for Active; 'I' for Inactive)
REMARK    1  A    between atoms: C_1  and  O_2
REMARK    2  A    between atoms: O_2  and  C_3
REMARK    3  A    between atoms: C_5  and  N_6
REMARK    4  A    between atoms: C_7  and  C_9
REMARK    5  A    between atoms: C_9  and  N_10
REMARK    6  A    between atoms: C_11  and  C_13
REMARK    7  A    between atoms: C_13  and  N_14
REMARK    8  A    between atoms: C_19  and  C_20
REMARK    9  A    between atoms: C_21  and  C_22
REMARK   10  A    between atoms: C_27  and  O_28
REMARK   11  A    between atoms: O_28  and  C_29
REMARK   12  A    between atoms: C_30  and  O_31
REMARK   13  A    between atoms: O_31  and  C_32
REMARK                            x       y       z     vdW  Elec       q    Type
REMARK                         _______ _______ _______ _____ _____    ______ ____
ROOT
ATOM      1  C   UNL     1       0.178   9.852  22.789  0.00  0.00    +0.000 C 
ENDROOT
BRANCH   1   3
ATOM      2  N   UNL     1       1.433   8.203  21.484  0.00  0.00    +0.000 N 
ATOM      3  C   UNL     1       0.166   8.627  21.865  0.00  0.00    +0.000 C 
ATOM      4  O   UNL     1      -0.899   8.105  21.543  0.00  0.00    +0.000 OA
ATOM      5  H   UNL     1       2.219   8.659  21.947  0.00  0.00    +0.000 HD
BRANCH   2   8
ATOM      6  C   UNL     1       2.773   6.504  18.411  0.00  0.00    +0.000 A 
ATOM      7  C   UNL     1       2.337   7.514  19.294  0.00  0.00    +0.000 A 
ATOM      8  C   UNL     1       1.744   7.223  20.515  0.00  0.00    +0.000 A 
ATOM      9  C   UNL     1       1.505   5.884  20.821  0.00  0.00    +0.000 A 
ATOM     10  C   UNL     1       1.852   4.858  19.920  0.00  0.00    +0.000 A 
ATOM     11  C   UNL     1       2.480   5.156  18.690  0.00  0.00    +0.000 A 
BRANCH   6  13
ATOM     12  C   UNL     1       4.899   6.870  17.435  0.00  0.00    +0.000 C 
ATOM     13  O   UNL     1       3.478   6.833  17.277  0.00  0.00    +0.000 OA
ENDBRANCH   6  13
BRANCH  10  14
ATOM     14  O   UNL     1       1.474   3.613  20.373  0.00  0.00    +0.000 OA
ATOM     15  C   UNL     1       2.181   3.081  21.488  0.00  0.00    +0.000 C 
ENDBRANCH  10  14
BRANCH  11  16
ATOM     16  O   UNL     1       2.722   4.082  17.878  0.00  0.00    +0.000 OA
ATOM     17  C   UNL     1       3.935   3.357  17.952  0.00  0.00    +0.000 C 
ENDBRANCH  11  16
ENDBRANCH   2   8
ENDBRANCH   1   3
BRANCH   1  18
ATOM     18  N   UNL     1      -0.253  11.051  22.089  0.00  0.00    +0.000 N 
ATOM     19  C   UNL     1       0.584  11.776  21.276  0.00  0.00    +0.000 C 
ATOM     20  O   UNL     1       1.763  11.476  21.110  0.00  0.00    +0.000 OA
ATOM     21  H   UNL     1      -1.169  11.437  22.321  0.00  0.00    +0.000 HD
BRANCH  19  22
ATOM     22  C   UNL     1      -0.078  12.966  20.576  0.00  0.00    +0.000 C 
BRANCH  22  23
ATOM     23  N   UNL     1      -1.194  12.573  19.732  0.00  0.00    +0.000 N 
ATOM     24  C   UNL     1      -0.954  12.012  18.494  0.00  0.00    +0.000 A 
ATOM     25  N   UNL     1      -1.853  11.554  17.685  0.00  0.00    +0.000 NA
ATOM     26  C   UNL     1      -3.125  11.666  18.140  0.00  0.00    +0.000 A 
ATOM     27  S   UNL     1      -4.445  11.161  17.197  0.00  0.00    +0.000 S 
ATOM     28  C   UNL     1      -5.575  11.601  18.406  0.00  0.00    +0.000 A 
ATOM     29  C   UNL     1      -7.034  11.393  18.151  0.00  0.00    +0.000 C 
ATOM     30  C   UNL     1      -4.957  12.121  19.536  0.00  0.00    +0.000 A 
ATOM     31  C   UNL     1      -5.667  12.572  20.774  0.00  0.00    +0.000 C 
ATOM     32  C   UNL     1      -3.526  12.171  19.359  0.00  0.00    +0.000 A 
ATOM     33  C   UNL     1      -2.486  12.653  20.257  0.00  0.00    +0.000 A 
ATOM     34  O   UNL     1      -2.720  13.090  21.384  0.00  0.00    +0.000 OA
ENDBRANCH  22  23
ENDBRANCH  19  22
ENDBRANCH   1  18
TORSDOF 8
ENDMDL
MODEL 7
REMARK VINA RESULT:      -7.2      3.446     10.920
REMARK  Name = 
REMARK  13 active torsions:
REMARK  status: ('A' for Active; 'I' for Inactive)
REMARK    1  A    between atoms: C_1  and  O_2
REMARK    2  A    between atoms: O_2  and  C_3
REMARK    3  A    between atoms: C_5  and  N_6
REMARK    4  A    between atoms: C_7  and  C_9
REMARK    5  A    between atoms: C_9  and  N_10
REMARK    6  A    between atoms: C_11  and  C_13
REMARK    7  A    between atoms: C_13  and  N_14
REMARK    8  A    between atoms: C_19  and  C_20
REMARK    9  A    between atoms: C_21  and  C_22
REMARK   10  A    between atoms: C_27  and  O_28
REMARK   11  A    between atoms: O_28  and  C_29
REMARK   12  A    between atoms: C_30  and  O_31
REMARK   13  A    between atoms: O_31  and  C_32
REMARK                            x       y       z     vdW  Elec       q    Type
REMARK                         _______ _______ _______ _____ _____    ______ ____
ROOT
ATOM      1  C   UNL     1       7.423   7.520  17.421  0.00  0.00    +0.000 C 
ENDROOT
BRANCH   1   3
ATOM      2  N   UNL     1       5.265   6.411  17.752  0.00  0.00    +0.000 N 
ATOM      3  C   UNL     1       6.584   6.485  18.181  0.00  0.00    +0.000 C 
ATOM      4  O   UNL     1       7.096   5.802  19.067  0.00  0.00    +0.000 OA
ATOM      5  H   UNL     1       5.033   6.947  16.916  0.00  0.00    +0.000 HD
BRANCH   2   8
ATOM      6  C   UNL     1       2.266   5.526  19.838  0.00  0.00    +0.000 A 
ATOM      7  C   UNL     1       3.400   6.213  19.356  0.00  0.00    +0.000 A 
ATOM      8  C   UNL     1       4.214   5.689  18.361  0.00  0.00    +0.000 A 
ATOM      9  C   UNL     1       3.931   4.405  17.897  0.00  0.00    +0.000 A 
ATOM     10  C   UNL     1       2.856   3.660  18.421  0.00  0.00    +0.000 A 
ATOM     11  C   UNL     1       2.014   4.208  19.414  0.00  0.00    +0.000 A 
BRANCH   6  13
ATOM     12  C   UNL     1       1.477   7.567  20.743  0.00  0.00    +0.000 C 
ATOM     13  O   UNL     1       1.410   6.138  20.723  0.00  0.00    +0.000 OA
ENDBRANCH   6  13
BRANCH  10  14
ATOM     14  O   UNL     1       2.785   2.395  17.884  0.00  0.00    +0.000 OA
ATOM     15  C   UNL     1       3.633   1.398  18.442  0.00  0.00    +0.000 C 
ENDBRANCH  10  14
BRANCH  11  16
ATOM     16  O   UNL     1       1.036   3.372  19.881  0.00  0.00    +0.000 OA
ATOM     17  C   UNL     1       1.215   2.611  21.061  0.00  0.00    +0.000 C 
ENDBRANCH  11  16
ENDBRANCH   2   8
ENDBRANCH   1   3
BRANCH   1  18
ATOM     18  N   UNL     1       8.369   8.187  18.300  0.00  0.00    +0.000 N 
ATOM     19  C   UNL     1       8.505   9.553  18.345  0.00  0.00    +0.000 C 
ATOM     20  O   UNL     1       7.856  10.303  17.620  0.00  0.00    +0.000 OA
ATOM     21  H   UNL     1       9.047   7.609  18.799  0.00  0.00    +0.000 HD
BRANCH  19  22
ATOM     22  C   UNL     1       9.507  10.062  19.384  0.00  0.00    +0.000 C 
BRANCH  22  23
ATOM     23  N   UNL     1       9.610  11.512  19.404  0.00  0.00    +0.000 N 
ATOM     24  C   UNL     1       8.924  12.236  20.358  0.00  0.00    +0.000 A 
ATOM     25  N   UNL     1       8.991  13.516  20.529  0.00  0.00    +0.000 NA
ATOM     26  C   UNL     1       9.819  14.153  19.664  0.00  0.00    +0.000 A 
ATOM     27  S   UNL     1      10.003  15.842  19.703  0.00  0.00    +0.000 S 
ATOM     28  C   UNL     1      11.127  15.826  18.412  0.00  0.00    +0.000 A 
ATOM     29  C   UNL     1      11.704  17.120  17.931  0.00  0.00    +0.000 C 
ATOM     30  C   UNL     1      11.379  14.539  17.953  0.00  0.00    +0.000 A 
ATOM     31  C   UNL     1      12.333  14.190  16.854  0.00  0.00    +0.000 C 
ATOM     32  C   UNL     1      10.593  13.574  18.681  0.00  0.00    +0.000 A 
ATOM     33  C   UNL     1      10.513  12.127  18.534  0.00  0.00    +0.000 A 
ATOM     34  O   UNL     1      11.184  11.496  17.717  0.00  0.00    +0.000 OA
ENDBRANCH  22  23
ENDBRANCH  19  22
ENDBRANCH   1  18
TORSDOF 8
ENDMDL
MODEL 8
REMARK VINA RESULT:      -7.2      6.276     10.067
REMARK  Name = 
REMARK  13 active torsions:
REMARK  status: ('A' for Active; 'I' for Inactive)
REMARK    1  A    between atoms: C_1  and  O_2
REMARK    2  A    between atoms: O_2  and  C_3
REMARK    3  A    between atoms: C_5  and  N_6
REMARK    4  A    between atoms: C_7  and  C_9
REMARK    5  A    between atoms: C_9  and  N_10
REMARK    6  A    between atoms: C_11  and  C_13
REMARK    7  A    between atoms: C_13  and  N_14
REMARK    8  A    between atoms: C_19  and  C_20
REMARK    9  A    between atoms: C_21  and  C_22
REMARK   10  A    between atoms: C_27  and  O_28
REMARK   11  A    between atoms: O_28  and  C_29
REMARK   12  A    between atoms: C_30  and  O_31
REMARK   13  A    between atoms: O_31  and  C_32
REMARK                            x       y       z     vdW  Elec       q    Type
REMARK                         _______ _______ _______ _____ _____    ______ ____
ROOT
ATOM      1  C   UNL     1       1.034   7.755  21.232  0.00  0.00    +0.000 C 
ENDROOT
BRANCH   1   3
ATOM      2  N   UNL     1       2.564   7.214  19.397  0.00  0.00    +0.000 N 
ATOM      3  C   UNL     1       1.878   6.708  20.493  0.00  0.00    +0.000 C 
ATOM      4  O   UNL     1       1.917   5.546  20.897  0.00  0.00    +0.000 OA
ATOM      5  H   UNL     1       2.535   8.227  19.277  0.00  0.00    +0.000 HD
BRANCH   2   8
ATOM      6  C   UNL     1       5.161   6.167  16.890  0.00  0.00    +0.000 A 
ATOM      7  C   UNL     1       4.377   6.975  17.740  0.00  0.00    +0.000 A 
ATOM      8  C   UNL     1       3.278   6.476  18.427  0.00  0.00    +0.000 A 
ATOM      9  C   UNL     1       2.906   5.154  18.189  0.00  0.00    +0.000 A 
ATOM     10  C   UNL     1       3.619   4.348  17.279  0.00  0.00    +0.000 A 
ATOM     11  C   UNL     1       4.753   4.851  16.603  0.00  0.00    +0.000 A 
BRANCH   6  13
ATOM     12  C   UNL     1       7.355   6.970  17.274  0.00  0.00    +0.000 C 
ATOM     13  O   UNL     1       6.319   6.663  16.337  0.00  0.00    +0.000 OA
ENDBRANCH   6  13
BRANCH  10  14
ATOM     14  O   UNL     1       3.057   3.100  17.132  0.00  0.00    +0.000 OA
ATOM     15  C   UNL     1       3.293   2.150  18.165  0.00  0.00    +0.000 C 
ENDBRANCH  10  14
BRANCH  11  16
ATOM     16  O   UNL     1       5.332   3.993  15.708  0.00  0.00    +0.000 OA
ATOM     17  C   UNL     1       5.490   4.341  14.345  0.00  0.00    +0.000 C 
ENDBRANCH  11  16
ENDBRANCH   2   8
ENDBRANCH   1   3
BRANCH   1  18
ATOM     18  N   UNL     1       0.661   8.852  20.354  0.00  0.00    +0.000 N 
ATOM     19  C   UNL     1       0.745  10.169  20.736  0.00  0.00    +0.000 C 
ATOM     20  O   UNL     1       1.114  10.506  21.858  0.00  0.00    +0.000 OA
ATOM     21  H   UNL     1       0.193   8.623  19.476  0.00  0.00    +0.000 HD
BRANCH  19  22
ATOM     22  C   UNL     1       0.370  11.175  19.645  0.00  0.00    +0.000 C 
BRANCH  22  23
ATOM     23  N   UNL     1      -1.037  11.537  19.674  0.00  0.00    +0.000 N 
ATOM     24  C   UNL     1      -1.536  12.270  20.732  0.00  0.00    +0.000 A 
ATOM     25  N   UNL     1      -2.744  12.718  20.838  0.00  0.00    +0.000 NA
ATOM     26  C   UNL     1      -3.551  12.406  19.794  0.00  0.00    +0.000 A 
ATOM     27  S   UNL     1      -5.186  12.868  19.774  0.00  0.00    +0.000 S 
ATOM     28  C   UNL     1      -5.448  12.155  18.240  0.00  0.00    +0.000 A 
ATOM     29  C   UNL     1      -6.811  12.224  17.627  0.00  0.00    +0.000 C 
ATOM     30  C   UNL     1      -4.295  11.575  17.728  0.00  0.00    +0.000 A 
ATOM     31  C   UNL     1      -4.191  10.897  16.398  0.00  0.00    +0.000 C 
ATOM     32  C   UNL     1      -3.198  11.712  18.655  0.00  0.00    +0.000 A 
ATOM     33  C   UNL     1      -1.822  11.246  18.556  0.00  0.00    +0.000 A 
ATOM     34  O   UNL     1      -1.383  10.650  17.573  0.00  0.00    +0.000 OA
ENDBRANCH  22  23
ENDBRANCH  19  22
ENDBRANCH   1  18
TORSDOF 8
ENDMDL
MODEL 9
REMARK VINA RESULT:      -7.2      6.563     10.061
REMARK  Name = 
REMARK  13 active torsions:
REMARK  status: ('A' for Active; 'I' for Inactive)
REMARK    1  A    between atoms: C_1  and  O_2
REMARK    2  A    between atoms: O_2  and  C_3
REMARK    3  A    between atoms: C_5  and  N_6
REMARK    4  A    between atoms: C_7  and  C_9
REMARK    5  A    between atoms: C_9  and  N_10
REMARK    6  A    between atoms: C_11  and  C_13
REMARK    7  A    between atoms: C_13  and  N_14
REMARK    8  A    between atoms: C_19  and  C_20
REMARK    9  A    between atoms: C_21  and  C_22
REMARK   10  A    between atoms: C_27  and  O_28
REMARK   11  A    between atoms: O_28  and  C_29
REMARK   12  A    between atoms: C_30  and  O_31
REMARK   13  A    between atoms: O_31  and  C_32
REMARK                            x       y       z     vdW  Elec       q    Type
REMARK                         _______ _______ _______ _____ _____    ______ ____
ROOT
ATOM      1  C   UNL     1       1.384   8.890  20.060  0.00  0.00    +0.000 C 
ENDROOT
BRANCH   1   3
ATOM      2  N   UNL     1       2.613   6.928  19.260  0.00  0.00    +0.000 N 
ATOM      3  C   UNL     1       2.042   8.140  18.895  0.00  0.00    +0.000 C 
ATOM      4  O   UNL     1       2.017   8.614  17.760  0.00  0.00    +0.000 OA
ATOM      5  H   UNL     1       2.429   6.613  20.213  0.00  0.00    +0.000 HD
BRANCH   2   8
ATOM      6  C   UNL     1       3.918   3.990  17.314  0.00  0.00    +0.000 A 
ATOM      7  C   UNL     1       3.172   4.754  18.235  0.00  0.00    +0.000 A 
ATOM      8  C   UNL     1       3.432   6.099  18.461  0.00  0.00    +0.000 A 
ATOM      9  C   UNL     1       4.523   6.671  17.807  0.00  0.00    +0.000 A 
ATOM     10  C   UNL     1       5.338   5.910  16.948  0.00  0.00    +0.000 A 
ATOM     11  C   UNL     1       5.055   4.548  16.699  0.00  0.00    +0.000 A 
BRANCH   6  13
ATOM     12  C   UNL     1       3.436   1.826  18.146  0.00  0.00    +0.000 C 
ATOM     13  O   UNL     1       3.542   2.700  17.019  0.00  0.00    +0.000 OA
ENDBRANCH   6  13
BRANCH  10  14
ATOM     14  O   UNL     1       6.400   6.635  16.455  0.00  0.00    +0.000 OA
ATOM     15  C   UNL     1       7.385   7.068  17.387  0.00  0.00    +0.000 C 
ENDBRANCH  10  14
BRANCH  11  16
ATOM     16  O   UNL     1       5.946   3.901  15.888  0.00  0.00    +0.000 OA
ATOM     17  C   UNL     1       5.865   3.994  14.478  0.00  0.00    +0.000 C 
ENDBRANCH  11  16
ENDBRANCH   2   8
ENDBRANCH   1   3
BRANCH   1  18
ATOM     18  N   UNL     1       0.812  10.153  19.624  0.00  0.00    +0.000 N 
ATOM     19  C   UNL     1       0.494  11.164  20.498  0.00  0.00    +0.000 C 
ATOM     20  O   UNL     1       0.646  11.057  21.712  0.00  0.00    +0.000 OA
ATOM     21  H   UNL     1       0.511  10.230  18.652  0.00  0.00    +0.000 HD
BRANCH  19  22
ATOM     22  C   UNL     1      -0.035  12.438  19.834  0.00  0.00    +0.000 C 
BRANCH  22  23
ATOM     23  N   UNL     1      -1.383  12.283  19.312  0.00  0.00    +0.000 N 
ATOM     24  C   UNL     1      -1.572  11.789  18.037  0.00  0.00    +0.000 A 
ATOM     25  N   UNL     1      -2.714  11.535  17.487  0.00  0.00    +0.000 NA
ATOM     26  C   UNL     1      -3.786  11.799  18.274  0.00  0.00    +0.000 A 
ATOM     27  S   UNL     1      -5.372  11.571  17.709  0.00  0.00    +0.000 S 
ATOM     28  C   UNL     1      -6.056  12.080  19.193  0.00  0.00    +0.000 A 
ATOM     29  C   UNL     1      -7.545  12.112  19.337  0.00  0.00    +0.000 C 
ATOM     30  C   UNL     1      -5.086  12.413  20.130  0.00  0.00    +0.000 A 
ATOM     31  C   UNL     1      -5.362  12.868  21.529  0.00  0.00    +0.000 C 
ATOM     32  C   UNL     1      -3.764  12.262  19.573  0.00  0.00    +0.000 A 
ATOM     33  C   UNL     1      -2.460  12.514  20.171  0.00  0.00    +0.000 A 
ATOM     34  O   UNL     1      -2.315  12.892  21.333  0.00  0.00    +0.000 OA
ENDBRANCH  22  23
ENDBRANCH  19  22
ENDBRANCH   1  18
TORSDOF 8
ENDMDL
