MODEL 1
REMARK VINA RESULT:      -9.1      0.000      0.000
REMARK  Name = 
REMARK  6 active torsions:
REMARK  status: ('A' for Active; 'I' for Inactive)
REMARK    1  A    between atoms: C_1  and  O_2
REMARK    2  A    between atoms: O_2  and  C_3
REMARK    3  A    between atoms: C_6  and  C_7
REMARK    4  A    between atoms: C_7  and  C_8
REMARK    5  A    between atoms: C_26  and  O_27
REMARK    6  A    between atoms: O_27  and  C_28
REMARK                            x       y       z     vdW  Elec       q    Type
REMARK                         _______ _______ _______ _____ _____    ______ ____
ROOT
ATOM      1  C   UNL     1       6.912   7.375  17.451  0.00  0.00    +0.000 C 
ATOM      2  N   UNL     1       7.772   6.626  16.417  0.00  0.00    +0.000 NA
ATOM      3  C   UNL     1       7.111   5.685  15.524  0.00  0.00    +0.000 C 
ATOM      4  C   UNL     1       6.664   4.496  16.342  0.00  0.00    +0.000 C 
ATOM      5  C   UNL     1       5.753   5.000  17.384  0.00  0.00    +0.000 A 
ATOM      6  C   UNL     1       5.949   6.191  18.096  0.00  0.00    +0.000 A 
ATOM      7  N   UNL     1       4.875   6.117  19.049  0.00  0.00    +0.000 N 
ATOM      8  C   UNL     1       4.007   4.983  18.805  0.00  0.00    +0.000 A 
ATOM      9  C   UNL     1       4.458   4.491  17.586  0.00  0.00    +0.000 A 
ATOM     10  C   UNL     1       3.696   3.577  16.831  0.00  0.00    +0.000 A 
ATOM     11  C   UNL     1       2.521   3.050  17.318  0.00  0.00    +0.000 A 
ATOM     12  C   UNL     1       2.143   3.310  18.618  0.00  0.00    +0.000 A 
ATOM     13  C   UNL     1       1.075   2.540  19.086  0.00  0.00    +0.000 A 
ATOM     14  C   UNL     1       0.698   2.596  20.419  0.00  0.00    +0.000 A 
ATOM     15  C   UNL     1       1.387   3.458  21.262  0.00  0.00    +0.000 A 
ATOM     16  C   UNL     1       2.414   4.315  20.789  0.00  0.00    +0.000 A 
ATOM     17  C   UNL     1       2.868   4.263  19.439  0.00  0.00    +0.000 A 
ATOM     18  H   UNL     1       8.450   6.089  16.964  0.00  0.00    +0.000 HD
ATOM     19  H   UNL     1       4.669   6.817  19.744  0.00  0.00    +0.000 HD
ENDROOT
BRANCH   1  20
ATOM     20  C   UNL     1       8.189   8.224  18.036  0.00  0.00    +0.000 C 
BRANCH  20  24
ATOM     21  C   UNL     1       9.276  12.527  18.573  0.00  0.00    +0.000 A 
ATOM     22  C   UNL     1       8.330  12.108  17.641  0.00  0.00    +0.000 A 
ATOM     23  C   UNL     1       8.020  10.726  17.516  0.00  0.00    +0.000 A 
ATOM     24  C   UNL     1       8.629   9.693  18.300  0.00  0.00    +0.000 A 
ATOM     25  C   UNL     1       9.556  10.136  19.227  0.00  0.00    +0.000 A 
ATOM     26  C   UNL     1       9.901  11.523  19.361  0.00  0.00    +0.000 A 
BRANCH  21  28
ATOM     27  C   UNL     1       8.730  14.892  18.645  0.00  0.00    +0.000 C 
ATOM     28  O   UNL     1       9.682  13.829  18.692  0.00  0.00    +0.000 OA
ENDBRANCH  21  28
BRANCH  26  29
ATOM     29  O   UNL     1      10.861  11.721  20.324  0.00  0.00    +0.000 OA
ATOM     30  C   UNL     1      12.219  11.901  19.938  0.00  0.00    +0.000 C 
ENDBRANCH  26  29
ENDBRANCH  20  24
ENDBRANCH   1  20
TORSDOF 4
ENDMDL
MODEL 2
REMARK VINA RESULT:      -9.1      0.814      1.747
REMARK  Name = 
REMARK  6 active torsions:
REMARK  status: ('A' for Active; 'I' for Inactive)
REMARK    1  A    between atoms: C_1  and  O_2
REMARK    2  A    between atoms: O_2  and  C_3
REMARK    3  A    between atoms: C_6  and  C_7
REMARK    4  A    between atoms: C_7  and  C_8
REMARK    5  A    between atoms: C_26  and  O_27
REMARK    6  A    between atoms: O_27  and  C_28
REMARK                            x       y       z     vdW  Elec       q    Type
REMARK                         _______ _______ _______ _____ _____    ______ ____
ROOT
ATOM      1  C   UNL     1       6.861   7.308  17.354  0.00  0.00    +0.000 C 
ATOM      2  N   UNL     1       7.709   6.542  16.323  0.00  0.00    +0.000 NA
ATOM      3  C   UNL     1       7.039   5.584  15.455  0.00  0.00    +0.000 C 
ATOM      4  C   UNL     1       6.603   4.409  16.299  0.00  0.00    +0.000 C 
ATOM      5  C   UNL     1       5.705   4.931  17.343  0.00  0.00    +0.000 A 
ATOM      6  C   UNL     1       5.907   6.134  18.031  0.00  0.00    +0.000 A 
ATOM      7  N   UNL     1       4.845   6.076  18.999  0.00  0.00    +0.000 N 
ATOM      8  C   UNL     1       3.976   4.937  18.785  0.00  0.00    +0.000 A 
ATOM      9  C   UNL     1       4.412   4.425  17.569  0.00  0.00    +0.000 A 
ATOM     10  C   UNL     1       3.642   3.497  16.839  0.00  0.00    +0.000 A 
ATOM     11  C   UNL     1       2.474   2.977  17.350  0.00  0.00    +0.000 A 
ATOM     12  C   UNL     1       2.111   3.260  18.650  0.00  0.00    +0.000 A 
ATOM     13  C   UNL     1       1.050   2.497  19.144  0.00  0.00    +0.000 A 
ATOM     14  C   UNL     1       0.689   2.576  20.480  0.00  0.00    +0.000 A 
ATOM     15  C   UNL     1       1.387   3.454  21.300  0.00  0.00    +0.000 A 
ATOM     16  C   UNL     1       2.408   4.303  20.799  0.00  0.00    +0.000 A 
ATOM     17  C   UNL     1       2.845   4.227  19.446  0.00  0.00    +0.000 A 
ATOM     18  H   UNL     1       8.395   6.015  16.871  0.00  0.00    +0.000 HD
ATOM     19  H   UNL     1       4.647   6.788  19.683  0.00  0.00    +0.000 HD
ENDROOT
BRANCH   1  20
ATOM     20  C   UNL     1       8.145   8.168  17.909  0.00  0.00    +0.000 C 
BRANCH  20  24
ATOM     21  C   UNL     1       9.422  12.268  19.148  0.00  0.00    +0.000 A 
ATOM     22  C   UNL     1       9.786  11.128  19.860  0.00  0.00    +0.000 A 
ATOM     23  C   UNL     1       9.355   9.847  19.417  0.00  0.00    +0.000 A 
ATOM     24  C   UNL     1       8.543   9.631  18.256  0.00  0.00    +0.000 A 
ATOM     25  C   UNL     1       8.205  10.779  17.560  0.00  0.00    +0.000 A 
ATOM     26  C   UNL     1       8.612  12.085  17.996  0.00  0.00    +0.000 A 
BRANCH  21  28
ATOM     27  C   UNL     1      10.992  14.119  19.227  0.00  0.00    +0.000 C 
ATOM     28  O   UNL     1       9.733  13.537  19.561  0.00  0.00    +0.000 OA
ENDBRANCH  21  28
BRANCH  26  29
ATOM     29  O   UNL     1       8.139  13.073  17.165  0.00  0.00    +0.000 OA
ATOM     30  C   UNL     1       7.103  13.936  17.618  0.00  0.00    +0.000 C 
ENDBRANCH  26  29
ENDBRANCH  20  24
ENDBRANCH   1  20
TORSDOF 4
ENDMDL
MODEL 3
REMARK VINA RESULT:      -8.6      6.757      9.241
REMARK  Name = 
REMARK  6 active torsions:
REMARK  status: ('A' for Active; 'I' for Inactive)
REMARK    1  A    between atoms: C_1  and  O_2
REMARK    2  A    between atoms: O_2  and  C_3
REMARK    3  A    between atoms: C_6  and  C_7
REMARK    4  A    between atoms: C_7  and  C_8
REMARK    5  A    between atoms: C_26  and  O_27
REMARK    6  A    between atoms: O_27  and  C_28
REMARK                            x       y       z     vdW  Elec       q    Type
REMARK                         _______ _______ _______ _____ _____    ______ ____
ROOT
ATOM      1  C   UNL     1       1.534   9.725  19.371  0.00  0.00    +0.000 C 
ATOM      2  N   UNL     1       0.676   9.079  20.473  0.00  0.00    +0.000 NA
ATOM      3  C   UNL     1       1.261   8.002  21.259  0.00  0.00    +0.000 C 
ATOM      4  C   UNL     1       1.413   6.795  20.362  0.00  0.00    +0.000 C 
ATOM      5  C   UNL     1       2.279   7.193  19.239  0.00  0.00    +0.000 A 
ATOM      6  C   UNL     1       2.211   8.431  18.588  0.00  0.00    +0.000 A 
ATOM      7  N   UNL     1       3.149   8.228  17.518  0.00  0.00    +0.000 N 
ATOM      8  C   UNL     1       3.837   6.957  17.630  0.00  0.00    +0.000 A 
ATOM      9  C   UNL     1       3.443   6.489  18.878  0.00  0.00    +0.000 A 
ATOM     10  C   UNL     1       4.117   5.429  19.516  0.00  0.00    +0.000 A 
ATOM     11  C   UNL     1       5.128   4.741  18.884  0.00  0.00    +0.000 A 
ATOM     12  C   UNL     1       5.404   4.996  17.558  0.00  0.00    +0.000 A 
ATOM     13  C   UNL     1       6.272   4.085  16.952  0.00  0.00    +0.000 A 
ATOM     14  C   UNL     1       6.509   4.141  15.587  0.00  0.00    +0.000 A 
ATOM     15  C   UNL     1       5.889   5.142  14.851  0.00  0.00    +0.000 A 
ATOM     16  C   UNL     1       5.075   6.132  15.462  0.00  0.00    +0.000 A 
ATOM     17  C   UNL     1       4.766   6.091  16.851  0.00  0.00    +0.000 A 
ATOM     18  H   UNL     1      -0.137   8.685  19.991  0.00  0.00    +0.000 HD
ATOM     19  H   UNL     1       3.395   8.917  16.824  0.00  0.00    +0.000 HD
ENDROOT
BRANCH   1  20
ATOM     20  C   UNL     1       0.361  10.797  18.957  0.00  0.00    +0.000 C 
BRANCH  20  24
ATOM     21  C   UNL     1      -3.902  11.040  17.636  0.00  0.00    +0.000 A 
ATOM     22  C   UNL     1      -3.430  11.718  18.757  0.00  0.00    +0.000 A 
ATOM     23  C   UNL     1      -2.062  11.608  19.128  0.00  0.00    +0.000 A 
ATOM     24  C   UNL     1      -1.097  10.824  18.417  0.00  0.00    +0.000 A 
ATOM     25  C   UNL     1      -1.590  10.169  17.301  0.00  0.00    +0.000 A 
ATOM     26  C   UNL     1      -2.969  10.248  16.914  0.00  0.00    +0.000 A 
BRANCH  21  28
ATOM     27  C   UNL     1      -6.250  11.009  18.254  0.00  0.00    +0.000 C 
ATOM     28  O   UNL     1      -5.221  11.035  17.266  0.00  0.00    +0.000 OA
ENDBRANCH  21  28
BRANCH  26  29
ATOM     29  O   UNL     1      -3.231   9.498  15.792  0.00  0.00    +0.000 OA
ATOM     30  C   UNL     1      -3.073  10.080  14.504  0.00  0.00    +0.000 C 
ENDBRANCH  26  29
ENDBRANCH  20  24
ENDBRANCH   1  20
TORSDOF 4
ENDMDL
MODEL 4
REMARK VINA RESULT:      -8.2      6.868      9.357
REMARK  Name = 
REMARK  6 active torsions:
REMARK  status: ('A' for Active; 'I' for Inactive)
REMARK    1  A    between atoms: C_1  and  O_2
REMARK    2  A    between atoms: O_2  and  C_3
REMARK    3  A    between atoms: C_6  and  C_7
REMARK    4  A    between atoms: C_7  and  C_8
REMARK    5  A    between atoms: C_26  and  O_27
REMARK    6  A    between atoms: O_27  and  C_28
REMARK                            x       y       z     vdW  Elec       q    Type
REMARK                         _______ _______ _______ _____ _____    ______ ____
ROOT
ATOM      1  C   UNL     1       1.428   9.843  19.219  0.00  0.00    +0.000 C 
ATOM      2  N   UNL     1       0.561   9.228  20.332  0.00  0.00    +0.000 NA
ATOM      3  C   UNL     1       1.148   8.191  21.168  0.00  0.00    +0.000 C 
ATOM      4  C   UNL     1       1.331   6.952  20.322  0.00  0.00    +0.000 C 
ATOM      5  C   UNL     1       2.209   7.318  19.198  0.00  0.00    +0.000 A 
ATOM      6  C   UNL     1       2.135   8.528  18.498  0.00  0.00    +0.000 A 
ATOM      7  N   UNL     1       3.093   8.297  17.451  0.00  0.00    +0.000 N 
ATOM      8  C   UNL     1       3.796   7.041  17.624  0.00  0.00    +0.000 A 
ATOM      9  C   UNL     1       3.388   6.617  18.883  0.00  0.00    +0.000 A 
ATOM     10  C   UNL     1       4.066   5.592  19.573  0.00  0.00    +0.000 A 
ATOM     11  C   UNL     1       5.096   4.894  18.984  0.00  0.00    +0.000 A 
ATOM     12  C   UNL     1       5.390   5.101  17.654  0.00  0.00    +0.000 A 
ATOM     13  C   UNL     1       6.280   4.179  17.097  0.00  0.00    +0.000 A 
ATOM     14  C   UNL     1       6.538   4.185  15.735  0.00  0.00    +0.000 A 
ATOM     15  C   UNL     1       5.916   5.148  14.951  0.00  0.00    +0.000 A 
ATOM     16  C   UNL     1       5.080   6.150  15.509  0.00  0.00    +0.000 A 
ATOM     17  C   UNL     1       4.748   6.159  16.894  0.00  0.00    +0.000 A 
ATOM     18  H   UNL     1      -0.238   8.805  19.853  0.00  0.00    +0.000 HD
ATOM     19  H   UNL     1       3.341   8.962  16.735  0.00  0.00    +0.000 HD
ENDROOT
BRANCH   1  20
ATOM     20  C   UNL     1       0.248  10.881  18.746  0.00  0.00    +0.000 C 
BRANCH  20  24
ATOM     21  C   UNL     1      -4.169  10.836  18.062  0.00  0.00    +0.000 A 
ATOM     22  C   UNL     1      -3.307   9.955  17.416  0.00  0.00    +0.000 A 
ATOM     23  C   UNL     1      -1.909  10.011  17.675  0.00  0.00    +0.000 A 
ATOM     24  C   UNL     1      -1.297  10.939  18.579  0.00  0.00    +0.000 A 
ATOM     25  C   UNL     1      -2.178  11.796  19.217  0.00  0.00    +0.000 A 
ATOM     26  C   UNL     1      -3.589  11.772  18.960  0.00  0.00    +0.000 A 
BRANCH  21  28
ATOM     27  C   UNL     1      -6.454  10.366  18.735  0.00  0.00    +0.000 C 
ATOM     28  O   UNL     1      -5.513  10.893  17.801  0.00  0.00    +0.000 OA
ENDBRANCH  21  28
BRANCH  26  29
ATOM     29  O   UNL     1      -4.258  12.729  19.687  0.00  0.00    +0.000 OA
ATOM     30  C   UNL     1      -3.972  12.887  21.071  0.00  0.00    +0.000 C 
ENDBRANCH  26  29
ENDBRANCH  20  24
ENDBRANCH   1  20
TORSDOF 4
ENDMDL
MODEL 5
REMARK VINA RESULT:      -8.0      6.639      9.222
REMARK  Name = 
REMARK  6 active torsions:
REMARK  status: ('A' for Active; 'I' for Inactive)
REMARK    1  A    between atoms: C_1  and  O_2
REMARK    2  A    between atoms: O_2  and  C_3
REMARK    3  A    between atoms: C_6  and  C_7
REMARK    4  A    between atoms: C_7  and  C_8
REMARK    5  A    between atoms: C_26  and  O_27
REMARK    6  A    between atoms: O_27  and  C_28
REMARK                            x       y       z     vdW  Elec       q    Type
REMARK                         _______ _______ _______ _____ _____    ______ ____
ROOT
ATOM      1  C   UNL     1       1.281   9.411  19.683  0.00  0.00    +0.000 C 
ATOM      2  N   UNL     1       0.537   8.649  20.794  0.00  0.00    +0.000 NA
ATOM      3  C   UNL     1       1.259   7.615  21.521  0.00  0.00    +0.000 C 
ATOM      4  C   UNL     1       1.497   6.457  20.580  0.00  0.00    +0.000 C 
ATOM      5  C   UNL     1       2.273   6.974  19.440  0.00  0.00    +0.000 A 
ATOM      6  C   UNL     1       2.054   8.217  18.833  0.00  0.00    +0.000 A 
ATOM      7  N   UNL     1       2.964   8.142  17.723  0.00  0.00    +0.000 N 
ATOM      8  C   UNL     1       3.781   6.946  17.768  0.00  0.00    +0.000 A 
ATOM      9  C   UNL     1       3.486   6.404  19.013  0.00  0.00    +0.000 A 
ATOM     10  C   UNL     1       4.289   5.400  19.591  0.00  0.00    +0.000 A 
ATOM     11  C   UNL     1       5.339   4.838  18.900  0.00  0.00    +0.000 A 
ATOM     12  C   UNL     1       5.534   5.159  17.574  0.00  0.00    +0.000 A 
ATOM     13  C   UNL     1       6.465   4.359  16.906  0.00  0.00    +0.000 A 
ATOM     14  C   UNL     1       6.641   4.479  15.536  0.00  0.00    +0.000 A 
ATOM     15  C   UNL     1       5.893   5.432  14.857  0.00  0.00    +0.000 A 
ATOM     16  C   UNL     1       5.009   6.316  15.529  0.00  0.00    +0.000 A 
ATOM     17  C   UNL     1       4.761   6.203  16.927  0.00  0.00    +0.000 A 
ATOM     18  H   UNL     1      -0.250   8.189  20.329  0.00  0.00    +0.000 HD
ATOM     19  H   UNL     1       3.111   8.872  17.044  0.00  0.00    +0.000 HD
ENDROOT
BRANCH   1  20
ATOM     20  C   UNL     1      -0.010  10.369  19.348  0.00  0.00    +0.000 C 
BRANCH  20  24
ATOM     21  C   UNL     1      -3.277  10.474  16.299  0.00  0.00    +0.000 A 
ATOM     22  C   UNL     1      -2.138   9.688  16.143  0.00  0.00    +0.000 A 
ATOM     23  C   UNL     1      -1.132   9.689  17.149  0.00  0.00    +0.000 A 
ATOM     24  C   UNL     1      -1.199  10.468  18.350  0.00  0.00    +0.000 A 
ATOM     25  C   UNL     1      -2.346  11.231  18.485  0.00  0.00    +0.000 A 
ATOM     26  C   UNL     1      -3.367  11.261  17.478  0.00  0.00    +0.000 A 
BRANCH  21  28
ATOM     27  C   UNL     1      -4.014  10.094  14.017  0.00  0.00    +0.000 C 
ATOM     28  O   UNL     1      -4.246  10.583  15.337  0.00  0.00    +0.000 OA
ENDBRANCH  21  28
BRANCH  26  29
ATOM     29  O   UNL     1      -4.397  12.108  17.817  0.00  0.00    +0.000 OA
ATOM     30  C   UNL     1      -5.019  11.982  19.091  0.00  0.00    +0.000 C 
ENDBRANCH  26  29
ENDBRANCH  20  24
ENDBRANCH   1  20
TORSDOF 4
ENDMDL
MODEL 6
REMARK VINA RESULT:      -7.9      4.779      7.556
REMARK  Name = 
REMARK  6 active torsions:
REMARK  status: ('A' for Active; 'I' for Inactive)
REMARK    1  A    between atoms: C_1  and  O_2
REMARK    2  A    between atoms: O_2  and  C_3
REMARK    3  A    between atoms: C_6  and  C_7
REMARK    4  A    between atoms: C_7  and  C_8
REMARK    5  A    between atoms: C_26  and  O_27
REMARK    6  A    between atoms: O_27  and  C_28
REMARK                            x       y       z     vdW  Elec       q    Type
REMARK                         _______ _______ _______ _____ _____    ______ ____
ROOT
ATOM      1  C   UNL     1       2.338   5.444  18.215  0.00  0.00    +0.000 C 
ATOM      2  N   UNL     1       2.455   4.580  19.484  0.00  0.00    +0.000 NA
ATOM      3  C   UNL     1       1.560   4.865  20.596  0.00  0.00    +0.000 C 
ATOM      4  C   UNL     1       1.964   6.193  21.195  0.00  0.00    +0.000 C 
ATOM      5  C   UNL     1       1.858   7.203  20.128  0.00  0.00    +0.000 A 
ATOM      6  C   UNL     1       2.244   6.992  18.798  0.00  0.00    +0.000 A 
ATOM      7  N   UNL     1       2.065   8.309  18.250  0.00  0.00    +0.000 N 
ATOM      8  C   UNL     1       1.465   9.219  19.205  0.00  0.00    +0.000 A 
ATOM      9  C   UNL     1       1.111   8.388  20.261  0.00  0.00    +0.000 A 
ATOM     10  C   UNL     1       0.224   8.812  21.270  0.00  0.00    +0.000 A 
ATOM     11  C   UNL     1      -0.247  10.105  21.312  0.00  0.00    +0.000 A 
ATOM     12  C   UNL     1       0.254  11.043  20.435  0.00  0.00    +0.000 A 
ATOM     13  C   UNL     1      -0.106  12.363  20.717  0.00  0.00    +0.000 A 
ATOM     14  C   UNL     1       0.455  13.413  20.005  0.00  0.00    +0.000 A 
ATOM     15  C   UNL     1       1.353  13.113  18.989  0.00  0.00    +0.000 A 
ATOM     16  C   UNL     1       1.663  11.776  18.627  0.00  0.00    +0.000 A 
ATOM     17  C   UNL     1       1.149  10.667  19.356  0.00  0.00    +0.000 A 
ATOM     18  H   UNL     1       3.408   4.725  19.826  0.00  0.00    +0.000 HD
ATOM     19  H   UNL     1       2.229   8.563  17.289  0.00  0.00    +0.000 HD
ENDROOT
BRANCH   1  20
ATOM     20  C   UNL     1       3.514   4.611  17.428  0.00  0.00    +0.000 C 
BRANCH  20  24
ATOM     21  C   UNL     1       7.089   5.114  14.792  0.00  0.00    +0.000 A 
ATOM     22  C   UNL     1       6.084   4.191  14.515  0.00  0.00    +0.000 A 
ATOM     23  C   UNL     1       4.965   4.077  15.387  0.00  0.00    +0.000 A 
ATOM     24  C   UNL     1       4.788   4.863  16.571  0.00  0.00    +0.000 A 
ATOM     25  C   UNL     1       5.795   5.781  16.817  0.00  0.00    +0.000 A 
ATOM     26  C   UNL     1       6.942   5.903  15.964  0.00  0.00    +0.000 A 
BRANCH  21  28
ATOM     27  C   UNL     1       8.161   5.592  12.666  0.00  0.00    +0.000 C 
ATOM     28  O   UNL     1       8.230   5.222  14.042  0.00  0.00    +0.000 OA
ENDBRANCH  21  28
BRANCH  26  29
ATOM     29  O   UNL     1       7.819   6.859  16.419  0.00  0.00    +0.000 OA
ATOM     30  C   UNL     1       7.489   7.623  17.574  0.00  0.00    +0.000 C 
ENDBRANCH  26  29
ENDBRANCH  20  24
ENDBRANCH   1  20
TORSDOF 4
ENDMDL
MODEL 7
REMARK VINA RESULT:      -7.8      7.660     10.283
REMARK  Name = 
REMARK  6 active torsions:
REMARK  status: ('A' for Active; 'I' for Inactive)
REMARK    1  A    between atoms: C_1  and  O_2
REMARK    2  A    between atoms: O_2  and  C_3
REMARK    3  A    between atoms: C_6  and  C_7
REMARK    4  A    between atoms: C_7  and  C_8
REMARK    5  A    between atoms: C_26  and  O_27
REMARK    6  A    between atoms: O_27  and  C_28
REMARK                            x       y       z     vdW  Elec       q    Type
REMARK                         _______ _______ _______ _____ _____    ______ ____
ROOT
ATOM      1  C   UNL     1       1.329   8.848  20.769  0.00  0.00    +0.000 C 
ATOM      2  N   UNL     1       1.372   8.777  19.232  0.00  0.00    +0.000 NA
ATOM      3  C   UNL     1       1.149  10.004  18.480  0.00  0.00    +0.000 C 
ATOM      4  C   UNL     1      -0.301  10.396  18.641  0.00  0.00    +0.000 C 
ATOM      5  C   UNL     1      -0.546  10.580  20.082  0.00  0.00    +0.000 A 
ATOM      6  C   UNL     1      -0.023   9.753  21.085  0.00  0.00    +0.000 A 
ATOM      7  N   UNL     1      -0.678  10.287  22.248  0.00  0.00    +0.000 N 
ATOM      8  C   UNL     1      -1.451  11.474  21.940  0.00  0.00    +0.000 A 
ATOM      9  C   UNL     1      -1.098  11.755  20.626  0.00  0.00    +0.000 A 
ATOM     10  C   UNL     1      -1.385  13.001  20.033  0.00  0.00    +0.000 A 
ATOM     11  C   UNL     1      -2.122  13.956  20.697  0.00  0.00    +0.000 A 
ATOM     12  C   UNL     1      -2.706  13.649  21.907  0.00  0.00    +0.000 A 
ATOM     13  C   UNL     1      -3.623  14.594  22.375  0.00  0.00    +0.000 A 
ATOM     14  C   UNL     1      -4.390  14.334  23.499  0.00  0.00    +0.000 A 
ATOM     15  C   UNL     1      -4.199  13.128  24.162  0.00  0.00    +0.000 A 
ATOM     16  C   UNL     1      -3.211  12.194  23.757  0.00  0.00    +0.000 A 
ATOM     17  C   UNL     1      -2.429  12.395  22.583  0.00  0.00    +0.000 A 
ATOM     18  H   UNL     1       0.627   8.128  18.967  0.00  0.00    +0.000 HD
ATOM     19  H   UNL     1      -0.543   9.958  23.190  0.00  0.00    +0.000 HD
ENDROOT
BRANCH   1  20
ATOM     20  C   UNL     1       1.676   7.253  20.944  0.00  0.00    +0.000 C 
BRANCH  20  24
ATOM     21  C   UNL     1       2.251   3.455  18.657  0.00  0.00    +0.000 A 
ATOM     22  C   UNL     1       1.433   3.531  19.782  0.00  0.00    +0.000 A 
ATOM     23  C   UNL     1       1.282   4.767  20.468  0.00  0.00    +0.000 A 
ATOM     24  C   UNL     1       1.933   5.984  20.082  0.00  0.00    +0.000 A 
ATOM     25  C   UNL     1       2.731   5.884  18.955  0.00  0.00    +0.000 A 
ATOM     26  C   UNL     1       2.914   4.645  18.254  0.00  0.00    +0.000 A 
BRANCH  21  28
ATOM     27  C   UNL     1       3.555   1.420  18.429  0.00  0.00    +0.000 C 
ATOM     28  O   UNL     1       2.504   2.282  17.996  0.00  0.00    +0.000 OA
ENDBRANCH  21  28
BRANCH  26  29
ATOM     29  O   UNL     1       3.767   4.782  17.185  0.00  0.00    +0.000 OA
ATOM     30  C   UNL     1       5.168   4.628  17.380  0.00  0.00    +0.000 C 
ENDBRANCH  26  29
ENDBRANCH  20  24
ENDBRANCH   1  20
TORSDOF 4
ENDMDL
MODEL 8
REMARK VINA RESULT:      -7.7      6.400     10.575
REMARK  Name = 
REMARK  6 active torsions:
REMARK  status: ('A' for Active; 'I' for Inactive)
REMARK    1  A    between atoms: C_1  and  O_2
REMARK    2  A    between atoms: O_2  and  C_3
REMARK    3  A    between atoms: C_6  and  C_7
REMARK    4  A    between atoms: C_7  and  C_8
REMARK    5  A    between atoms: C_26  and  O_27
REMARK    6  A    between atoms: O_27  and  C_28
REMARK                            x       y       z     vdW  Elec       q    Type
REMARK                         _______ _______ _______ _____ _____    ______ ____
ROOT
ATOM      1  C   UNL     1       1.868   9.271  18.156  0.00  0.00    +0.000 C 
ATOM      2  N   UNL     1       1.309   8.722  19.481  0.00  0.00    +0.000 NA
ATOM      3  C   UNL     1       0.237   9.459  20.134  0.00  0.00    +0.000 C 
ATOM      4  C   UNL     1       0.809  10.756  20.658  0.00  0.00    +0.000 C 
ATOM      5  C   UNL     1       1.358  11.487  19.503  0.00  0.00    +0.000 A 
ATOM      6  C   UNL     1       2.065  10.890  18.452  0.00  0.00    +0.000 A 
ATOM      7  N   UNL     1       2.475  12.049  17.706  0.00  0.00    +0.000 N 
ATOM      8  C   UNL     1       1.906  13.270  18.241  0.00  0.00    +0.000 A 
ATOM      9  C   UNL     1       1.001  12.812  19.191  0.00  0.00    +0.000 A 
ATOM     10  C   UNL     1       0.011  13.655  19.734  0.00  0.00    +0.000 A 
ATOM     11  C   UNL     1      -0.036  14.995  19.426  0.00  0.00    +0.000 A 
ATOM     12  C   UNL     1       0.976  15.561  18.681  0.00  0.00    +0.000 A 
ATOM     13  C   UNL     1       0.961  16.957  18.631  0.00  0.00    +0.000 A 
ATOM     14  C   UNL     1       2.008  17.651  18.044  0.00  0.00    +0.000 A 
ATOM     15  C   UNL     1       3.048  16.923  17.482  0.00  0.00    +0.000 A 
ATOM     16  C   UNL     1       3.040  15.504  17.442  0.00  0.00    +0.000 A 
ATOM     17  C   UNL     1       2.011  14.746  18.070  0.00  0.00    +0.000 A 
ATOM     18  H   UNL     1       2.101   8.715  20.129  0.00  0.00    +0.000 HD
ATOM     19  H   UNL     1       3.005  12.028  16.849  0.00  0.00    +0.000 HD
ENDROOT
BRANCH   1  20
ATOM     20  C   UNL     1       2.924   8.027  17.978  0.00  0.00    +0.000 C 
BRANCH  20  24
ATOM     21  C   UNL     1       3.225   3.578  17.669  0.00  0.00    +0.000 A 
ATOM     22  C   UNL     1       4.206   4.428  17.164  0.00  0.00    +0.000 A 
ATOM     23  C   UNL     1       4.061   5.836  17.296  0.00  0.00    +0.000 A 
ATOM     24  C   UNL     1       2.942   6.473  17.924  0.00  0.00    +0.000 A 
ATOM     25  C   UNL     1       1.987   5.606  18.427  0.00  0.00    +0.000 A 
ATOM     26  C   UNL     1       2.100   4.181  18.292  0.00  0.00    +0.000 A 
BRANCH  21  28
ATOM     27  C   UNL     1       3.743   1.377  18.554  0.00  0.00    +0.000 C 
ATOM     28  O   UNL     1       3.260   2.218  17.507  0.00  0.00    +0.000 OA
ENDBRANCH  21  28
BRANCH  26  29
ATOM     29  O   UNL     1       1.024   3.527  18.843  0.00  0.00    +0.000 OA
ATOM     30  C   UNL     1       0.986   3.293  20.246  0.00  0.00    +0.000 C 
ENDBRANCH  26  29
ENDBRANCH  20  24
ENDBRANCH   1  20
TORSDOF 4
ENDMDL
MODEL 9
REMARK VINA RESULT:      -7.7      7.981     10.586
REMARK  Name = 
REMARK  6 active torsions:
REMARK  status: ('A' for Active; 'I' for Inactive)
REMARK    1  A    between atoms: C_1  and  O_2
REMARK    2  A    between atoms: O_2  and  C_3
REMARK    3  A    between atoms: C_6  and  C_7
REMARK    4  A    between atoms: C_7  and  C_8
REMARK    5  A    between atoms: C_26  and  O_27
REMARK    6  A    between atoms: O_27  and  C_28
REMARK                            x       y       z     vdW  Elec       q    Type
REMARK                         _______ _______ _______ _____ _____    ______ ____
ROOT
ATOM      1  C   UNL     1       1.288   9.280  20.697  0.00  0.00    +0.000 C 
ATOM      2  N   UNL     1       1.222   9.139  19.165  0.00  0.00    +0.000 NA
ATOM      3  C   UNL     1       0.804  10.295  18.385  0.00  0.00    +0.000 C 
ATOM      4  C   UNL     1      -0.665  10.534  18.649  0.00  0.00    +0.000 C 
ATOM      5  C   UNL     1      -0.817  10.761  20.096  0.00  0.00    +0.000 A 
ATOM      6  C   UNL     1      -0.129  10.046  21.085  0.00  0.00    +0.000 A 
ATOM      7  N   UNL     1      -0.749  10.562  22.275  0.00  0.00    +0.000 N 
ATOM      8  C   UNL     1      -1.673  11.640  21.984  0.00  0.00    +0.000 A 
ATOM      9  C   UNL     1      -1.455  11.893  20.635  0.00  0.00    +0.000 A 
ATOM     10  C   UNL     1      -1.926  13.069  20.018  0.00  0.00    +0.000 A 
ATOM     11  C   UNL     1      -2.713  13.969  20.700  0.00  0.00    +0.000 A 
ATOM     12  C   UNL     1      -3.165  13.660  21.965  0.00  0.00    +0.000 A 
ATOM     13  C   UNL     1      -4.144  14.522  22.467  0.00  0.00    +0.000 A 
ATOM     14  C   UNL     1      -4.788  14.234  23.661  0.00  0.00    +0.000 A 
ATOM     15  C   UNL     1      -4.412  13.091  24.354  0.00  0.00    +0.000 A 
ATOM     16  C   UNL     1      -3.358  12.251  23.908  0.00  0.00    +0.000 A 
ATOM     17  C   UNL     1      -2.697  12.479  22.667  0.00  0.00    +0.000 A 
ATOM     18  H   UNL     1       0.536   8.399  18.989  0.00  0.00    +0.000 HD
ATOM     19  H   UNL     1      -0.507  10.296  23.216  0.00  0.00    +0.000 HD
ENDROOT
BRANCH   1  20
ATOM     20  C   UNL     1       1.826   7.743  20.908  0.00  0.00    +0.000 C 
BRANCH  20  24
ATOM     21  C   UNL     1       2.227   4.018  18.469  0.00  0.00    +0.000 A 
ATOM     22  C   UNL     1       2.692   5.252  18.025  0.00  0.00    +0.000 A 
ATOM     23  C   UNL     1       2.543   6.405  18.845  0.00  0.00    +0.000 A 
ATOM     24  C   UNL     1       1.924   6.395  20.137  0.00  0.00    +0.000 A 
ATOM     25  C   UNL     1       1.481   5.153  20.560  0.00  0.00    +0.000 A 
ATOM     26  C   UNL     1       1.604   3.979  19.745  0.00  0.00    +0.000 A 
BRANCH  21  28
ATOM     27  C   UNL     1       3.260   1.887  17.931  0.00  0.00    +0.000 C 
ATOM     28  O   UNL     1       2.266   2.884  17.701  0.00  0.00    +0.000 OA
ENDBRANCH  21  28
BRANCH  26  29
ATOM     29  O   UNL     1       1.072   2.870  20.360  0.00  0.00    +0.000 OA
ATOM     30  C   UNL     1       1.504   2.517  21.669  0.00  0.00    +0.000 C 
ENDBRANCH  26  29
ENDBRANCH  20  24
ENDBRANCH   1  20
TORSDOF 4
ENDMDL
