MODEL 1
REMARK VINA RESULT:      -8.7      0.000      0.000
REMARK  Name = 
REMARK  7 active torsions:
REMARK  status: ('A' for Active; 'I' for Inactive)
REMARK    1  A    between atoms: C_1  and  C_2
REMARK    2  A    between atoms: C_6  and  C_7
REMARK    3  A    between atoms: N_9  and  C_10
REMARK    4  A    between atoms: C_14  and  C_15
REMARK    5  A    between atoms: C_15  and  O_17
REMARK    6  A    between atoms: O_17  and  C_18
REMARK    7  A    between atoms: C_18  and  C_19
REMARK                            x       y       z     vdW  Elec       q    Type
REMARK                         _______ _______ _______ _____ _____    ______ ____
ROOT
ATOM      1  C   UNL     1       8.023   8.297  18.002  0.00  0.00    +0.000 A 
ATOM      2  C   UNL     1       8.524   7.476  19.018  0.00  0.00    +0.000 A 
ATOM      3  C   UNL     1       8.039   6.179  19.209  0.00  0.00    +0.000 A 
ATOM      4  C   UNL     1       7.039   5.677  18.381  0.00  0.00    +0.000 A 
ATOM      5  C   UNL     1       6.507   6.484  17.370  0.00  0.00    +0.000 A 
ATOM      6  C   UNL     1       6.983   7.803  17.203  0.00  0.00    +0.000 A 
ENDROOT
BRANCH   1   9
ATOM      7  C   UNL     1       9.113  10.425  18.691  0.00  0.00    +0.000 C 
ATOM      8  O   UNL     1       9.266  10.151  19.879  0.00  0.00    +0.000 OA
ATOM      9  N   UNL     1       8.539   9.595  17.735  0.00  0.00    +0.000 N 
ATOM     10  H   UNL     1       8.655   9.852  16.763  0.00  0.00    +0.000 HD
BRANCH   7  16
ATOM     11  C   UNL     1       8.823  15.438  18.010  0.00  0.00    +0.000 C 
ATOM     12  C   UNL     1       9.575  14.141  17.930  0.00  0.00    +0.000 A 
ATOM     13  C   UNL     1      10.910  14.129  17.500  0.00  0.00    +0.000 A 
ATOM     14  C   UNL     1      11.622  12.934  17.439  0.00  0.00    +0.000 A 
ATOM     15  C   UNL     1      11.003  11.742  17.809  0.00  0.00    +0.000 A 
ATOM     16  C   UNL     1       9.665  11.731  18.236  0.00  0.00    +0.000 A 
ATOM     17  C   UNL     1       8.952  12.934  18.301  0.00  0.00    +0.000 A 
ENDBRANCH   7  16
ENDBRANCH   1   9
BRANCH   5  18
ATOM     18  C   UNL     1       5.461   5.986  16.434  0.00  0.00    +0.000 C 
ATOM     19  O   UNL     1       4.688   6.731  15.852  0.00  0.00    +0.000 OA
BRANCH  18  20
ATOM     20  O   UNL     1       5.500   4.636  16.320  0.00  0.00    +0.000 OA
BRANCH  20  21
ATOM     21  C   UNL     1       4.233   3.955  16.345  0.00  0.00    +0.000 C 
BRANCH  21  22
ATOM     22  C   UNL     1       3.882   3.554  17.767  0.00  0.00    +0.000 A 
ATOM     23  C   UNL     1       4.752   2.833  18.495  0.00  0.00    +0.000 A 
ATOM     24  C   UNL     1       4.394   2.414  19.866  0.00  0.00    +0.000 A 
ATOM     25  O   UNL     1       5.181   1.745  20.529  0.00  0.00    +0.000 OA
ATOM     26  N   UNL     1       3.152   2.827  20.275  0.00  0.00    +0.000 N 
ATOM     27  C   UNL     1       2.602   2.561  21.511  0.00  0.00    +0.000 A 
ATOM     28  C   UNL     1       1.374   3.065  21.677  0.00  0.00    +0.000 A 
ATOM     29  S   UNL     1       0.834   3.913  20.252  0.00  0.00    +0.000 S 
ATOM     30  C   UNL     1       2.347   3.558  19.431  0.00  0.00    +0.000 A 
ATOM     31  N   UNL     1       2.635   3.929  18.229  0.00  0.00    +0.000 NA
ENDBRANCH  21  22
ENDBRANCH  20  21
ENDBRANCH  18  20
ENDBRANCH   5  18
TORSDOF 6
ENDMDL
MODEL 2
REMARK VINA RESULT:      -8.6      5.740      8.673
REMARK  Name = 
REMARK  7 active torsions:
REMARK  status: ('A' for Active; 'I' for Inactive)
REMARK    1  A    between atoms: C_1  and  C_2
REMARK    2  A    between atoms: C_6  and  C_7
REMARK    3  A    between atoms: N_9  and  C_10
REMARK    4  A    between atoms: C_14  and  C_15
REMARK    5  A    between atoms: C_15  and  O_17
REMARK    6  A    between atoms: O_17  and  C_18
REMARK    7  A    between atoms: C_18  and  C_19
REMARK                            x       y       z     vdW  Elec       q    Type
REMARK                         _______ _______ _______ _____ _____    ______ ____
ROOT
ATOM      1  C   UNL     1       3.853   4.950  17.675  0.00  0.00    +0.000 A 
ATOM      2  C   UNL     1       3.777   3.907  18.604  0.00  0.00    +0.000 A 
ATOM      3  C   UNL     1       3.136   4.076  19.835  0.00  0.00    +0.000 A 
ATOM      4  C   UNL     1       2.555   5.298  20.159  0.00  0.00    +0.000 A 
ATOM      5  C   UNL     1       2.634   6.364  19.256  0.00  0.00    +0.000 A 
ATOM      6  C   UNL     1       3.308   6.192  18.027  0.00  0.00    +0.000 A 
ENDROOT
BRANCH   1   9
ATOM      7  C   UNL     1       5.795   4.626  16.153  0.00  0.00    +0.000 C 
ATOM      8  O   UNL     1       6.669   4.573  17.017  0.00  0.00    +0.000 OA
ATOM      9  N   UNL     1       4.436   4.794  16.386  0.00  0.00    +0.000 N 
ATOM     10  H   UNL     1       3.804   4.619  15.615  0.00  0.00    +0.000 HD
BRANCH   7  16
ATOM     11  C   UNL     1       5.296   2.577  11.546  0.00  0.00    +0.000 C 
ATOM     12  C   UNL     1       6.007   3.476  12.517  0.00  0.00    +0.000 A 
ATOM     13  C   UNL     1       7.096   4.249  12.087  0.00  0.00    +0.000 A 
ATOM     14  C   UNL     1       7.751   5.099  12.975  0.00  0.00    +0.000 A 
ATOM     15  C   UNL     1       7.321   5.182  14.297  0.00  0.00    +0.000 A 
ATOM     16  C   UNL     1       6.238   4.411  14.748  0.00  0.00    +0.000 A 
ATOM     17  C   UNL     1       5.577   3.560  13.854  0.00  0.00    +0.000 A 
ENDBRANCH   7  16
ENDBRANCH   1   9
BRANCH   5  18
ATOM     18  C   UNL     1       2.001   7.683  19.537  0.00  0.00    +0.000 C 
ATOM     19  O   UNL     1       1.775   8.077  20.671  0.00  0.00    +0.000 OA
BRANCH  18  20
ATOM     20  O   UNL     1       1.733   8.358  18.394  0.00  0.00    +0.000 OA
BRANCH  20  21
ATOM     21  C   UNL     1       1.743   9.794  18.482  0.00  0.00    +0.000 C 
BRANCH  21  22
ATOM     22  C   UNL     1       0.321  10.326  18.531  0.00  0.00    +0.000 A 
ATOM     23  C   UNL     1      -0.065  11.114  19.548  0.00  0.00    +0.000 A 
ATOM     24  C   UNL     1      -1.459  11.601  19.613  0.00  0.00    +0.000 A 
ATOM     25  O   UNL     1      -1.818  12.312  20.546  0.00  0.00    +0.000 OA
ATOM     26  N   UNL     1      -2.251  11.180  18.576  0.00  0.00    +0.000 N 
ATOM     27  C   UNL     1      -3.582  11.508  18.419  0.00  0.00    +0.000 A 
ATOM     28  C   UNL     1      -4.146  10.973  17.331  0.00  0.00    +0.000 A 
ATOM     29  S   UNL     1      -3.008  10.005  16.432  0.00  0.00    +0.000 S 
ATOM     30  C   UNL     1      -1.739  10.364  17.593  0.00  0.00    +0.000 A 
ATOM     31  N   UNL     1      -0.529   9.921  17.520  0.00  0.00    +0.000 NA
ENDBRANCH  21  22
ENDBRANCH  20  21
ENDBRANCH  18  20
ENDBRANCH   5  18
TORSDOF 6
ENDMDL
MODEL 3
REMARK VINA RESULT:      -8.4      2.202      2.516
REMARK  Name = 
REMARK  7 active torsions:
REMARK  status: ('A' for Active; 'I' for Inactive)
REMARK    1  A    between atoms: C_1  and  C_2
REMARK    2  A    between atoms: C_6  and  C_7
REMARK    3  A    between atoms: N_9  and  C_10
REMARK    4  A    between atoms: C_14  and  C_15
REMARK    5  A    between atoms: C_15  and  O_17
REMARK    6  A    between atoms: O_17  and  C_18
REMARK    7  A    between atoms: C_18  and  C_19
REMARK                            x       y       z     vdW  Elec       q    Type
REMARK                         _______ _______ _______ _____ _____    ______ ____
ROOT
ATOM      1  C   UNL     1       7.747   7.548  17.716  0.00  0.00    +0.000 A 
ATOM      2  C   UNL     1       8.136   6.851  18.865  0.00  0.00    +0.000 A 
ATOM      3  C   UNL     1       7.893   5.480  19.001  0.00  0.00    +0.000 A 
ATOM      4  C   UNL     1       7.256   4.779  17.982  0.00  0.00    +0.000 A 
ATOM      5  C   UNL     1       6.839   5.456  16.831  0.00  0.00    +0.000 A 
ATOM      6  C   UNL     1       7.063   6.845  16.715  0.00  0.00    +0.000 A 
ENDROOT
BRANCH   1   9
ATOM      7  C   UNL     1       8.754   9.716  18.406  0.00  0.00    +0.000 C 
ATOM      8  O   UNL     1       9.241   9.337  19.469  0.00  0.00    +0.000 OA
ATOM      9  N   UNL     1       8.038   8.925  17.515  0.00  0.00    +0.000 N 
ATOM     10  H   UNL     1       7.867   9.301  16.591  0.00  0.00    +0.000 HD
BRANCH   7  16
ATOM     11  C   UNL     1       7.338  14.512  17.586  0.00  0.00    +0.000 C 
ATOM     12  C   UNL     1       8.392  13.444  17.652  0.00  0.00    +0.000 A 
ATOM     13  C   UNL     1       9.738  13.773  17.436  0.00  0.00    +0.000 A 
ATOM     14  C   UNL     1      10.725  12.793  17.512  0.00  0.00    +0.000 A 
ATOM     15  C   UNL     1      10.371  11.478  17.805  0.00  0.00    +0.000 A 
ATOM     16  C   UNL     1       9.029  11.127  18.017  0.00  0.00    +0.000 A 
ATOM     17  C   UNL     1       8.038  12.113  17.945  0.00  0.00    +0.000 A 
ENDBRANCH   7  16
ENDBRANCH   1   9
BRANCH   5  18
ATOM     18  C   UNL     1       6.183   4.748  15.696  0.00  0.00    +0.000 C 
ATOM     19  O   UNL     1       6.816   4.207  14.802  0.00  0.00    +0.000 OA
BRANCH  18  20
ATOM     20  O   UNL     1       4.833   4.782  15.804  0.00  0.00    +0.000 OA
BRANCH  20  21
ATOM     21  C   UNL     1       4.254   3.974  16.844  0.00  0.00    +0.000 C 
BRANCH  21  22
ATOM     22  C   UNL     1       3.587   4.857  17.884  0.00  0.00    +0.000 A 
ATOM     23  C   UNL     1       3.286   4.358  19.094  0.00  0.00    +0.000 A 
ATOM     24  C   UNL     1       2.604   5.210  20.092  0.00  0.00    +0.000 A 
ATOM     25  O   UNL     1       2.318   4.754  21.195  0.00  0.00    +0.000 OA
ATOM     26  N   UNL     1       2.339   6.483  19.658  0.00  0.00    +0.000 N 
ATOM     27  C   UNL     1       1.716   7.456  20.411  0.00  0.00    +0.000 A 
ATOM     28  C   UNL     1       1.563   8.620  19.770  0.00  0.00    +0.000 A 
ATOM     29  S   UNL     1       2.204   8.547  18.150  0.00  0.00    +0.000 S 
ATOM     30  C   UNL     1       2.691   6.874  18.387  0.00  0.00    +0.000 A 
ATOM     31  N   UNL     1       3.280   6.148  17.498  0.00  0.00    +0.000 NA
ENDBRANCH  21  22
ENDBRANCH  20  21
ENDBRANCH  18  20
ENDBRANCH   5  18
TORSDOF 6
ENDMDL
MODEL 4
REMARK VINA RESULT:      -8.4      1.915      2.390
REMARK  Name = 
REMARK  7 active torsions:
REMARK  status: ('A' for Active; 'I' for Inactive)
REMARK    1  A    between atoms: C_1  and  C_2
REMARK    2  A    between atoms: C_6  and  C_7
REMARK    3  A    between atoms: N_9  and  C_10
REMARK    4  A    between atoms: C_14  and  C_15
REMARK    5  A    between atoms: C_15  and  O_17
REMARK    6  A    between atoms: O_17  and  C_18
REMARK    7  A    between atoms: C_18  and  C_19
REMARK                            x       y       z     vdW  Elec       q    Type
REMARK                         _______ _______ _______ _____ _____    ______ ____
ROOT
ATOM      1  C   UNL     1       8.212   7.098  18.676  0.00  0.00    +0.000 A 
ATOM      2  C   UNL     1       7.973   6.119  19.646  0.00  0.00    +0.000 A 
ATOM      3  C   UNL     1       7.291   4.939  19.336  0.00  0.00    +0.000 A 
ATOM      4  C   UNL     1       6.834   4.716  18.041  0.00  0.00    +0.000 A 
ATOM      5  C   UNL     1       7.042   5.687  17.056  0.00  0.00    +0.000 A 
ATOM      6  C   UNL     1       7.707   6.889  17.385  0.00  0.00    +0.000 A 
ENDROOT
BRANCH   1   9
ATOM      7  C   UNL     1       8.642   9.539  18.450  0.00  0.00    +0.000 C 
ATOM      8  O   UNL     1       7.671   9.809  17.746  0.00  0.00    +0.000 OA
ATOM      9  N   UNL     1       8.962   8.278  18.939  0.00  0.00    +0.000 N 
ATOM     10  H   UNL     1       9.663   8.223  19.667  0.00  0.00    +0.000 HD
BRANCH   7  16
ATOM     11  C   UNL     1      11.591  13.544  17.482  0.00  0.00    +0.000 C 
ATOM     12  C   UNL     1      10.881  12.634  18.443  0.00  0.00    +0.000 A 
ATOM     13  C   UNL     1      10.917  12.902  19.819  0.00  0.00    +0.000 A 
ATOM     14  C   UNL     1      10.248  12.075  20.717  0.00  0.00    +0.000 A 
ATOM     15  C   UNL     1       9.537  10.974  20.244  0.00  0.00    +0.000 A 
ATOM     16  C   UNL     1       9.494  10.684  18.872  0.00  0.00    +0.000 A 
ATOM     17  C   UNL     1      10.164  11.519  17.969  0.00  0.00    +0.000 A 
ENDBRANCH   7  16
ENDBRANCH   1   9
BRANCH   5  18
ATOM     18  C   UNL     1       6.604   5.486  15.646  0.00  0.00    +0.000 C 
ATOM     19  O   UNL     1       7.388   5.262  14.737  0.00  0.00    +0.000 OA
BRANCH  18  20
ATOM     20  O   UNL     1       5.256   5.572  15.528  0.00  0.00    +0.000 OA
BRANCH  20  21
ATOM     21  C   UNL     1       4.512   4.371  15.803  0.00  0.00    +0.000 C 
BRANCH  21  22
ATOM     22  C   UNL     1       3.677   4.548  17.058  0.00  0.00    +0.000 A 
ATOM     23  C   UNL     1       3.472   5.778  17.560  0.00  0.00    +0.000 A 
ATOM     24  C   UNL     1       2.688   5.944  18.803  0.00  0.00    +0.000 A 
ATOM     25  O   UNL     1       2.510   7.064  19.270  0.00  0.00    +0.000 OA
ATOM     26  N   UNL     1       2.225   4.769  19.337  0.00  0.00    +0.000 N 
ATOM     27  C   UNL     1       1.469   4.673  20.487  0.00  0.00    +0.000 A 
ATOM     28  C   UNL     1       1.139   3.418  20.814  0.00  0.00    +0.000 A 
ATOM     29  S   UNL     1       1.782   2.270  19.669  0.00  0.00    +0.000 S 
ATOM     30  C   UNL     1       2.508   3.567  18.731  0.00  0.00    +0.000 A 
ATOM     31  N   UNL     1       3.195   3.397  17.652  0.00  0.00    +0.000 NA
ENDBRANCH  21  22
ENDBRANCH  20  21
ENDBRANCH  18  20
ENDBRANCH   5  18
TORSDOF 6
ENDMDL
MODEL 5
REMARK VINA RESULT:      -8.4      1.703      2.080
REMARK  Name = 
REMARK  7 active torsions:
REMARK  status: ('A' for Active; 'I' for Inactive)
REMARK    1  A    between atoms: C_1  and  C_2
REMARK    2  A    between atoms: C_6  and  C_7
REMARK    3  A    between atoms: N_9  and  C_10
REMARK    4  A    between atoms: C_14  and  C_15
REMARK    5  A    between atoms: C_15  and  O_17
REMARK    6  A    between atoms: O_17  and  C_18
REMARK    7  A    between atoms: C_18  and  C_19
REMARK                            x       y       z     vdW  Elec       q    Type
REMARK                         _______ _______ _______ _____ _____    ______ ____
ROOT
ATOM      1  C   UNL     1       8.220   7.131  18.664  0.00  0.00    +0.000 A 
ATOM      2  C   UNL     1       8.109   6.090  19.593  0.00  0.00    +0.000 A 
ATOM      3  C   UNL     1       7.536   4.864  19.245  0.00  0.00    +0.000 A 
ATOM      4  C   UNL     1       7.062   4.655  17.954  0.00  0.00    +0.000 A 
ATOM      5  C   UNL     1       7.142   5.685  17.011  0.00  0.00    +0.000 A 
ATOM      6  C   UNL     1       7.697   6.930  17.379  0.00  0.00    +0.000 A 
ENDROOT
BRANCH   1   9
ATOM      7  C   UNL     1       8.544   9.579  18.362  0.00  0.00    +0.000 C 
ATOM      8  O   UNL     1       7.672   9.754  17.513  0.00  0.00    +0.000 OA
ATOM      9  N   UNL     1       8.858   8.366  18.963  0.00  0.00    +0.000 N 
ATOM     10  H   UNL     1       9.449   8.391  19.784  0.00  0.00    +0.000 HD
BRANCH   7  16
ATOM     11  C   UNL     1      10.350  14.270  17.714  0.00  0.00    +0.000 C 
ATOM     12  C   UNL     1      10.107  13.059  18.570  0.00  0.00    +0.000 A 
ATOM     13  C   UNL     1      10.477  13.072  19.922  0.00  0.00    +0.000 A 
ATOM     14  C   UNL     1      10.241  11.961  20.729  0.00  0.00    +0.000 A 
ATOM     15  C   UNL     1       9.633  10.831  20.187  0.00  0.00    +0.000 A 
ATOM     16  C   UNL     1       9.263  10.795  18.833  0.00  0.00    +0.000 A 
ATOM     17  C   UNL     1       9.496  11.914  18.024  0.00  0.00    +0.000 A 
ENDBRANCH   7  16
ENDBRANCH   1   9
BRANCH   5  18
ATOM     18  C   UNL     1       6.682   5.504  15.606  0.00  0.00    +0.000 C 
ATOM     19  O   UNL     1       7.455   5.348  14.673  0.00  0.00    +0.000 OA
BRANCH  18  20
ATOM     20  O   UNL     1       5.329   5.524  15.521  0.00  0.00    +0.000 OA
BRANCH  20  21
ATOM     21  C   UNL     1       4.663   4.253  15.621  0.00  0.00    +0.000 C 
BRANCH  21  22
ATOM     22  C   UNL     1       3.870   4.178  16.914  0.00  0.00    +0.000 A 
ATOM     23  C   UNL     1       3.444   2.989  17.372  0.00  0.00    +0.000 A 
ATOM     24  C   UNL     1       2.642   2.923  18.612  0.00  0.00    +0.000 A 
ATOM     25  O   UNL     1       2.242   1.839  19.027  0.00  0.00    +0.000 OA
ATOM     26  N   UNL     1       2.407   4.141  19.196  0.00  0.00    +0.000 N 
ATOM     27  C   UNL     1       1.688   4.329  20.358  0.00  0.00    +0.000 A 
ATOM     28  C   UNL     1       1.589   5.610  20.731  0.00  0.00    +0.000 A 
ATOM     29  S   UNL     1       2.408   6.667  19.610  0.00  0.00    +0.000 S 
ATOM     30  C   UNL     1       2.892   5.294  18.624  0.00  0.00    +0.000 A 
ATOM     31  N   UNL     1       3.588   5.377  17.540  0.00  0.00    +0.000 NA
ENDBRANCH  21  22
ENDBRANCH  20  21
ENDBRANCH  18  20
ENDBRANCH   5  18
TORSDOF 6
ENDMDL
MODEL 6
REMARK VINA RESULT:      -8.4      5.650      8.744
REMARK  Name = 
REMARK  7 active torsions:
REMARK  status: ('A' for Active; 'I' for Inactive)
REMARK    1  A    between atoms: C_1  and  C_2
REMARK    2  A    between atoms: C_6  and  C_7
REMARK    3  A    between atoms: N_9  and  C_10
REMARK    4  A    between atoms: C_14  and  C_15
REMARK    5  A    between atoms: C_15  and  O_17
REMARK    6  A    between atoms: O_17  and  C_18
REMARK    7  A    between atoms: C_18  and  C_19
REMARK                            x       y       z     vdW  Elec       q    Type
REMARK                         _______ _______ _______ _____ _____    ______ ____
ROOT
ATOM      1  C   UNL     1       3.794   4.648  17.629  0.00  0.00    +0.000 A 
ATOM      2  C   UNL     1       3.610   3.571  18.503  0.00  0.00    +0.000 A 
ATOM      3  C   UNL     1       2.973   3.737  19.736  0.00  0.00    +0.000 A 
ATOM      4  C   UNL     1       2.505   4.990  20.119  0.00  0.00    +0.000 A 
ATOM      5  C   UNL     1       2.694   6.088  19.273  0.00  0.00    +0.000 A 
ATOM      6  C   UNL     1       3.363   5.917  18.041  0.00  0.00    +0.000 A 
ENDROOT
BRANCH   1   9
ATOM      7  C   UNL     1       5.727   4.665  16.063  0.00  0.00    +0.000 C 
ATOM      8  O   UNL     1       6.599   4.935  16.886  0.00  0.00    +0.000 OA
ATOM      9  N   UNL     1       4.375   4.503  16.339  0.00  0.00    +0.000 N 
ATOM     10  H   UNL     1       3.797   4.086  15.619  0.00  0.00    +0.000 HD
BRANCH   7  16
ATOM     11  C   UNL     1       5.274   2.510  11.499  0.00  0.00    +0.000 C 
ATOM     12  C   UNL     1       5.978   3.428  12.457  0.00  0.00    +0.000 A 
ATOM     13  C   UNL     1       7.076   4.185  12.023  0.00  0.00    +0.000 A 
ATOM     14  C   UNL     1       7.725   5.052  12.899  0.00  0.00    +0.000 A 
ATOM     15  C   UNL     1       7.279   5.168  14.213  0.00  0.00    +0.000 A 
ATOM     16  C   UNL     1       6.186   4.414  14.669  0.00  0.00    +0.000 A 
ATOM     17  C   UNL     1       5.531   3.546  13.787  0.00  0.00    +0.000 A 
ENDBRANCH   7  16
ENDBRANCH   1   9
BRANCH   5  18
ATOM     18  C   UNL     1       2.183   7.445  19.617  0.00  0.00    +0.000 C 
ATOM     19  O   UNL     1       1.582   7.679  20.654  0.00  0.00    +0.000 OA
BRANCH  18  20
ATOM     20  O   UNL     1       2.484   8.347  18.652  0.00  0.00    +0.000 OA
BRANCH  20  21
ATOM     21  C   UNL     1       1.415   8.712  17.761  0.00  0.00    +0.000 C 
BRANCH  21  22
ATOM     22  C   UNL     1       0.714   9.960  18.267  0.00  0.00    +0.000 A 
ATOM     23  C   UNL     1      -0.617  10.085  18.130  0.00  0.00    +0.000 A 
ATOM     24  C   UNL     1      -1.291  11.317  18.591  0.00  0.00    +0.000 A 
ATOM     25  O   UNL     1      -2.505  11.439  18.457  0.00  0.00    +0.000 OA
ATOM     26  N   UNL     1      -0.449  12.248  19.141  0.00  0.00    +0.000 N 
ATOM     27  C   UNL     1      -0.847  13.470  19.642  0.00  0.00    +0.000 A 
ATOM     28  C   UNL     1       0.158  14.211  20.123  0.00  0.00    +0.000 A 
ATOM     29  S   UNL     1       1.690  13.393  19.959  0.00  0.00    +0.000 S 
ATOM     30  C   UNL     1       0.904  12.006  19.219  0.00  0.00    +0.000 A 
ATOM     31  N   UNL     1       1.515  10.943  18.817  0.00  0.00    +0.000 NA
ENDBRANCH  21  22
ENDBRANCH  20  21
ENDBRANCH  18  20
ENDBRANCH   5  18
TORSDOF 6
ENDMDL
MODEL 7
REMARK VINA RESULT:      -8.3      5.362      8.822
REMARK  Name = 
REMARK  7 active torsions:
REMARK  status: ('A' for Active; 'I' for Inactive)
REMARK    1  A    between atoms: C_1  and  C_2
REMARK    2  A    between atoms: C_6  and  C_7
REMARK    3  A    between atoms: N_9  and  C_10
REMARK    4  A    between atoms: C_14  and  C_15
REMARK    5  A    between atoms: C_15  and  O_17
REMARK    6  A    between atoms: O_17  and  C_18
REMARK    7  A    between atoms: C_18  and  C_19
REMARK                            x       y       z     vdW  Elec       q    Type
REMARK                         _______ _______ _______ _____ _____    ______ ____
ROOT
ATOM      1  C   UNL     1       3.969   4.769  17.713  0.00  0.00    +0.000 A 
ATOM      2  C   UNL     1       3.934   3.709  18.624  0.00  0.00    +0.000 A 
ATOM      3  C   UNL     1       3.323   3.845  19.874  0.00  0.00    +0.000 A 
ATOM      4  C   UNL     1       2.731   5.052  20.235  0.00  0.00    +0.000 A 
ATOM      5  C   UNL     1       2.769   6.134  19.350  0.00  0.00    +0.000 A 
ATOM      6  C   UNL     1       3.414   5.996  18.101  0.00  0.00    +0.000 A 
ENDROOT
BRANCH   1   9
ATOM      7  C   UNL     1       5.881   4.562  16.133  0.00  0.00    +0.000 C 
ATOM      8  O   UNL     1       6.782   4.567  16.969  0.00  0.00    +0.000 OA
ATOM      9  N   UNL     1       4.521   4.645  16.407  0.00  0.00    +0.000 N 
ATOM     10  H   UNL     1       3.879   4.428  15.656  0.00  0.00    +0.000 HD
BRANCH   7  16
ATOM     11  C   UNL     1       5.313   2.545  11.519  0.00  0.00    +0.000 C 
ATOM     12  C   UNL     1       6.028   3.451  12.481  0.00  0.00    +0.000 A 
ATOM     13  C   UNL     1       7.088   4.253  12.033  0.00  0.00    +0.000 A 
ATOM     14  C   UNL     1       7.746   5.109  12.912  0.00  0.00    +0.000 A 
ATOM     15  C   UNL     1       7.347   5.169  14.245  0.00  0.00    +0.000 A 
ATOM     16  C   UNL     1       6.293   4.370  14.715  0.00  0.00    +0.000 A 
ATOM     17  C   UNL     1       5.629   3.513  13.830  0.00  0.00    +0.000 A 
ENDBRANCH   7  16
ENDBRANCH   1   9
BRANCH   5  18
ATOM     18  C   UNL     1       2.122   7.437  19.671  0.00  0.00    +0.000 C 
ATOM     19  O   UNL     1       1.471   7.617  20.688  0.00  0.00    +0.000 OA
BRANCH  18  20
ATOM     20  O   UNL     1       2.365   8.361  18.710  0.00  0.00    +0.000 OA
BRANCH  20  21
ATOM     21  C   UNL     1       1.257   9.196  18.330  0.00  0.00    +0.000 C 
BRANCH  21  22
ATOM     22  C   UNL     1       1.376  10.559  18.989  0.00  0.00    +0.000 A 
ATOM     23  C   UNL     1       0.774  10.789  20.167  0.00  0.00    +0.000 A 
ATOM     24  C   UNL     1       0.863  12.128  20.789  0.00  0.00    +0.000 A 
ATOM     25  O   UNL     1       0.304  12.345  21.860  0.00  0.00    +0.000 OA
ATOM     26  N   UNL     1       1.589  13.038  20.065  0.00  0.00    +0.000 N 
ATOM     27  C   UNL     1       1.813  14.345  20.444  0.00  0.00    +0.000 A 
ATOM     28  C   UNL     1       2.548  15.043  19.571  0.00  0.00    +0.000 A 
ATOM     29  S   UNL     1       2.999  14.070  18.195  0.00  0.00    +0.000 S 
ATOM     30  C   UNL     1       2.154  12.681  18.862  0.00  0.00    +0.000 A 
ATOM     31  N   UNL     1       2.084  11.523  18.297  0.00  0.00    +0.000 NA
ENDBRANCH  21  22
ENDBRANCH  20  21
ENDBRANCH  18  20
ENDBRANCH   5  18
TORSDOF 6
ENDMDL
MODEL 8
REMARK VINA RESULT:      -8.3      5.700      8.226
REMARK  Name = 
REMARK  7 active torsions:
REMARK  status: ('A' for Active; 'I' for Inactive)
REMARK    1  A    between atoms: C_1  and  C_2
REMARK    2  A    between atoms: C_6  and  C_7
REMARK    3  A    between atoms: N_9  and  C_10
REMARK    4  A    between atoms: C_14  and  C_15
REMARK    5  A    between atoms: C_15  and  O_17
REMARK    6  A    between atoms: O_17  and  C_18
REMARK    7  A    between atoms: C_18  and  C_19
REMARK                            x       y       z     vdW  Elec       q    Type
REMARK                         _______ _______ _______ _____ _____    ______ ____
ROOT
ATOM      1  C   UNL     1       4.183   3.469  18.225  0.00  0.00    +0.000 A 
ATOM      2  C   UNL     1       4.443   2.413  19.105  0.00  0.00    +0.000 A 
ATOM      3  C   UNL     1       3.871   2.373  20.380  0.00  0.00    +0.000 A 
ATOM      4  C   UNL     1       3.023   3.393  20.798  0.00  0.00    +0.000 A 
ATOM      5  C   UNL     1       2.763   4.471  19.946  0.00  0.00    +0.000 A 
ATOM      6  C   UNL     1       3.367   4.518  18.670  0.00  0.00    +0.000 A 
ENDROOT
BRANCH   1   9
ATOM      7  C   UNL     1       5.583   4.464  16.424  0.00  0.00    +0.000 C 
ATOM      8  O   UNL     1       6.062   5.386  17.083  0.00  0.00    +0.000 OA
ATOM      9  N   UNL     1       4.692   3.509  16.897  0.00  0.00    +0.000 N 
ATOM     10  H   UNL     1       4.532   2.693  16.319  0.00  0.00    +0.000 HD
BRANCH   7  16
ATOM     11  C   UNL     1       5.135   2.837  11.646  0.00  0.00    +0.000 C 
ATOM     12  C   UNL     1       5.868   3.595  12.715  0.00  0.00    +0.000 A 
ATOM     13  C   UNL     1       7.031   4.310  12.394  0.00  0.00    +0.000 A 
ATOM     14  C   UNL     1       7.710   5.032  13.373  0.00  0.00    +0.000 A 
ATOM     15  C   UNL     1       7.228   5.043  14.680  0.00  0.00    +0.000 A 
ATOM     16  C   UNL     1       6.071   4.328  15.024  0.00  0.00    +0.000 A 
ATOM     17  C   UNL     1       5.386   3.606  14.038  0.00  0.00    +0.000 A 
ENDBRANCH   7  16
ENDBRANCH   1   9
BRANCH   5  18
ATOM     18  C   UNL     1       1.837   5.573  20.330  0.00  0.00    +0.000 C 
ATOM     19  O   UNL     1       0.656   5.385  20.580  0.00  0.00    +0.000 OA
BRANCH  18  20
ATOM     20  O   UNL     1       2.477   6.767  20.371  0.00  0.00    +0.000 OA
BRANCH  20  21
ATOM     21  C   UNL     1       1.935   7.812  19.544  0.00  0.00    +0.000 C 
BRANCH  21  22
ATOM     22  C   UNL     1       1.167   8.808  20.394  0.00  0.00    +0.000 A 
ATOM     23  C   UNL     1       1.214   8.723  21.734  0.00  0.00    +0.000 A 
ATOM     24  C   UNL     1       0.437   9.673  22.559  0.00  0.00    +0.000 A 
ATOM     25  O   UNL     1       0.469   9.590  23.783  0.00  0.00    +0.000 OA
ATOM     26  N   UNL     1      -0.282  10.589  21.836  0.00  0.00    +0.000 N 
ATOM     27  C   UNL     1      -1.077  11.574  22.384  0.00  0.00    +0.000 A 
ATOM     28  C   UNL     1      -1.685  12.346  21.476  0.00  0.00    +0.000 A 
ATOM     29  S   UNL     1      -1.284  11.857  19.851  0.00  0.00    +0.000 S 
ATOM     30  C   UNL     1      -0.254  10.569  20.460  0.00  0.00    +0.000 A 
ATOM     31  N   UNL     1       0.410   9.747  19.719  0.00  0.00    +0.000 NA
ENDBRANCH  21  22
ENDBRANCH  20  21
ENDBRANCH  18  20
ENDBRANCH   5  18
TORSDOF 6
ENDMDL
MODEL 9
REMARK VINA RESULT:      -8.2      5.309      8.646
REMARK  Name = 
REMARK  7 active torsions:
REMARK  status: ('A' for Active; 'I' for Inactive)
REMARK    1  A    between atoms: C_1  and  C_2
REMARK    2  A    between atoms: C_6  and  C_7
REMARK    3  A    between atoms: N_9  and  C_10
REMARK    4  A    between atoms: C_14  and  C_15
REMARK    5  A    between atoms: C_15  and  O_17
REMARK    6  A    between atoms: O_17  and  C_18
REMARK    7  A    between atoms: C_18  and  C_19
REMARK                            x       y       z     vdW  Elec       q    Type
REMARK                         _______ _______ _______ _____ _____    ______ ____
ROOT
ATOM      1  C   UNL     1       3.936   4.495  17.664  0.00  0.00    +0.000 A 
ATOM      2  C   UNL     1       3.742   3.459  18.584  0.00  0.00    +0.000 A 
ATOM      3  C   UNL     1       3.094   3.682  19.803  0.00  0.00    +0.000 A 
ATOM      4  C   UNL     1       2.626   4.953  20.123  0.00  0.00    +0.000 A 
ATOM      5  C   UNL     1       2.824   6.010  19.229  0.00  0.00    +0.000 A 
ATOM      6  C   UNL     1       3.505   5.781  18.013  0.00  0.00    +0.000 A 
ENDROOT
BRANCH   1   9
ATOM      7  C   UNL     1       5.623   4.997  15.905  0.00  0.00    +0.000 C 
ATOM      8  O   UNL     1       6.234   5.873  16.513  0.00  0.00    +0.000 OA
ATOM      9  N   UNL     1       4.528   4.290  16.387  0.00  0.00    +0.000 N 
ATOM     10  H   UNL     1       4.245   3.462  15.876  0.00  0.00    +0.000 HD
BRANCH   7  16
ATOM     11  C   UNL     1       5.436   2.418  11.547  0.00  0.00    +0.000 C 
ATOM     12  C   UNL     1       6.085   3.424  12.454  0.00  0.00    +0.000 A 
ATOM     13  C   UNL     1       7.209   4.139  12.017  0.00  0.00    +0.000 A 
ATOM     14  C   UNL     1       7.808   5.087  12.843  0.00  0.00    +0.000 A 
ATOM     15  C   UNL     1       7.284   5.326  14.112  0.00  0.00    +0.000 A 
ATOM     16  C   UNL     1       6.164   4.616  14.571  0.00  0.00    +0.000 A 
ATOM     17  C   UNL     1       5.560   3.666  13.738  0.00  0.00    +0.000 A 
ENDBRANCH   7  16
ENDBRANCH   1   9
BRANCH   5  18
ATOM     18  C   UNL     1       2.314   7.382  19.506  0.00  0.00    +0.000 C 
ATOM     19  O   UNL     1       1.683   7.659  20.515  0.00  0.00    +0.000 OA
BRANCH  18  20
ATOM     20  O   UNL     1       2.650   8.245  18.518  0.00  0.00    +0.000 OA
BRANCH  20  21
ATOM     21  C   UNL     1       1.563   8.803  17.757  0.00  0.00    +0.000 C 
BRANCH  21  22
ATOM     22  C   UNL     1       1.307  10.237  18.183  0.00  0.00    +0.000 A 
ATOM     23  C   UNL     1       2.278  11.158  18.058  0.00  0.00    +0.000 A 
ATOM     24  C   UNL     1       2.038  12.546  18.506  0.00  0.00    +0.000 A 
ATOM     25  O   UNL     1       2.926  13.386  18.404  0.00  0.00    +0.000 OA
ATOM     26  N   UNL     1       0.787  12.761  19.024  0.00  0.00    +0.000 N 
ATOM     27  C   UNL     1       0.332  13.972  19.502  0.00  0.00    +0.000 A 
ATOM     28  C   UNL     1      -0.924  13.935  19.963  0.00  0.00    +0.000 A 
ATOM     29  S   UNL     1      -1.609  12.337  19.821  0.00  0.00    +0.000 S 
ATOM     30  C   UNL     1      -0.122  11.731  19.106  0.00  0.00    +0.000 A 
ATOM     31  N   UNL     1       0.067  10.511  18.728  0.00  0.00    +0.000 NA
ENDBRANCH  21  22
ENDBRANCH  20  21
ENDBRANCH  18  20
ENDBRANCH   5  18
TORSDOF 6
ENDMDL
