MODEL 1
REMARK VINA RESULT:      -6.3      0.000      0.000
REMARK  Name = 
REMARK  5 active torsions:
REMARK  status: ('A' for Active; 'I' for Inactive)
REMARK    1  A    between atoms: C_1  and  C_2
REMARK    2  A    between atoms: C_2  and  C_3
REMARK    3  A    between atoms: C_3  and  C_4
REMARK    4  A    between atoms: C_5  and  C_6
REMARK    5  A    between atoms: C_8  and  C_9
REMARK                            x       y       z     vdW  Elec       q    Type
REMARK                         _______ _______ _______ _____ _____    ______ ____
ROOT
ATOM      1  C   UNL     1       6.009   4.237  16.362  0.00  0.00    +0.000 A 
ATOM      2  C   UNL     1       7.017   4.883  17.033  0.00  0.00    +0.000 A 
ATOM      3  C   UNL     1       6.825   5.034  18.389  0.00  0.00    +0.000 A 
ATOM      4  C   UNL     1       7.839   5.717  19.252  0.00  0.00    +0.000 C 
ATOM      5  N   UNL     1       5.725   4.560  19.014  0.00  0.00    +0.000 NA
ATOM      6  C   UNL     1       4.811   3.927  18.270  0.00  0.00    +0.000 A 
ATOM      7  N   UNL     1       3.734   3.407  18.931  0.00  0.00    +0.000 N 
ATOM      8  N   UNL     1       4.899   3.750  16.947  0.00  0.00    +0.000 NA
ATOM      9  H   UNL     1       3.621   3.700  19.887  0.00  0.00    +0.000 HD
ATOM     10  H   UNL     1       2.964   3.081  18.373  0.00  0.00    +0.000 HD
ENDROOT
BRANCH   1  12
ATOM     11  C   UNL     1       6.258   3.841  13.666  0.00  0.00    +0.000 C 
ATOM     12  C   UNL     1       6.109   4.032  14.947  0.00  0.00    +0.000 C 
BRANCH  11  13
ATOM     13  C   UNL     1       6.431   3.618  12.173  0.00  0.00    +0.000 C 
BRANCH  13  15
ATOM     14  C   UNL     1       4.091   3.227  11.336  0.00  0.00    +0.000 C 
ATOM     15  C   UNL     1       5.428   2.585  11.667  0.00  0.00    +0.000 C 
ENDBRANCH  13  15
ENDBRANCH  11  13
ENDBRANCH   1  12
TORSDOF 3
ENDMDL
MODEL 2
REMARK VINA RESULT:      -6.3      1.128      2.333
REMARK  Name = 
REMARK  5 active torsions:
REMARK  status: ('A' for Active; 'I' for Inactive)
REMARK    1  A    between atoms: C_1  and  C_2
REMARK    2  A    between atoms: C_2  and  C_3
REMARK    3  A    between atoms: C_3  and  C_4
REMARK    4  A    between atoms: C_5  and  C_6
REMARK    5  A    between atoms: C_8  and  C_9
REMARK                            x       y       z     vdW  Elec       q    Type
REMARK                         _______ _______ _______ _____ _____    ______ ____
ROOT
ATOM      1  C   UNL     1       5.456   4.225  16.519  0.00  0.00    +0.000 A 
ATOM      2  C   UNL     1       4.156   4.073  16.931  0.00  0.00    +0.000 A 
ATOM      3  C   UNL     1       3.925   4.317  18.268  0.00  0.00    +0.000 A 
ATOM      4  C   UNL     1       2.557   4.192  18.861  0.00  0.00    +0.000 C 
ATOM      5  N   UNL     1       4.911   4.699  19.107  0.00  0.00    +0.000 NA
ATOM      6  C   UNL     1       6.141   4.839  18.599  0.00  0.00    +0.000 A 
ATOM      7  N   UNL     1       7.112   5.280  19.454  0.00  0.00    +0.000 N 
ATOM      8  N   UNL     1       6.467   4.606  17.323  0.00  0.00    +0.000 NA
ATOM      9  H   UNL     1       6.869   5.285  20.430  0.00  0.00    +0.000 HD
ATOM     10  H   UNL     1       8.065   5.228  19.135  0.00  0.00    +0.000 HD
ENDROOT
BRANCH   1  12
ATOM     11  C   UNL     1       6.107   3.834  13.891  0.00  0.00    +0.000 C 
ATOM     12  C   UNL     1       5.803   3.992  15.148  0.00  0.00    +0.000 C 
BRANCH  11  13
ATOM     13  C   UNL     1       6.462   3.650  12.424  0.00  0.00    +0.000 C 
BRANCH  13  15
ATOM     14  C   UNL     1       4.226   3.261  11.340  0.00  0.00    +0.000 C 
ATOM     15  C   UNL     1       5.536   2.625  11.776  0.00  0.00    +0.000 C 
ENDBRANCH  13  15
ENDBRANCH  11  13
ENDBRANCH   1  12
TORSDOF 3
ENDMDL
MODEL 3
REMARK VINA RESULT:      -6.2      2.700      6.009
REMARK  Name = 
REMARK  5 active torsions:
REMARK  status: ('A' for Active; 'I' for Inactive)
REMARK    1  A    between atoms: C_1  and  C_2
REMARK    2  A    between atoms: C_2  and  C_3
REMARK    3  A    between atoms: C_3  and  C_4
REMARK    4  A    between atoms: C_5  and  C_6
REMARK    5  A    between atoms: C_8  and  C_9
REMARK                            x       y       z     vdW  Elec       q    Type
REMARK                         _______ _______ _______ _____ _____    ______ ____
ROOT
ATOM      1  C   UNL     1       5.216   5.028  18.738  0.00  0.00    +0.000 A 
ATOM      2  C   UNL     1       5.380   4.817  17.392  0.00  0.00    +0.000 A 
ATOM      3  C   UNL     1       6.680   4.882  16.936  0.00  0.00    +0.000 A 
ATOM      4  C   UNL     1       7.013   4.671  15.492  0.00  0.00    +0.000 C 
ATOM      5  N   UNL     1       7.719   5.119  17.765  0.00  0.00    +0.000 NA
ATOM      6  C   UNL     1       7.452   5.290  19.065  0.00  0.00    +0.000 A 
ATOM      7  N   UNL     1       8.523   5.473  19.893  0.00  0.00    +0.000 N 
ATOM      8  N   UNL     1       6.226   5.266  19.597  0.00  0.00    +0.000 NA
ATOM      9  H   UNL     1       9.404   5.649  19.440  0.00  0.00    +0.000 HD
ATOM     10  H   UNL     1       8.332   5.770  20.835  0.00  0.00    +0.000 HD
ENDROOT
BRANCH   1  12
ATOM     11  C   UNL     1       2.727   4.902  19.866  0.00  0.00    +0.000 C 
ATOM     12  C   UNL     1       3.904   4.986  19.313  0.00  0.00    +0.000 C 
BRANCH  11  13
ATOM     13  C   UNL     1       1.354   4.804  20.511  0.00  0.00    +0.000 C 
BRANCH  13  15
ATOM     14  C   UNL     1       1.634   2.585  21.664  0.00  0.00    +0.000 C 
ATOM     15  C   UNL     1       0.897   3.350  20.575  0.00  0.00    +0.000 C 
ENDBRANCH  13  15
ENDBRANCH  11  13
ENDBRANCH   1  12
TORSDOF 3
ENDMDL
MODEL 4
REMARK VINA RESULT:      -6.2      2.458      5.673
REMARK  Name = 
REMARK  5 active torsions:
REMARK  status: ('A' for Active; 'I' for Inactive)
REMARK    1  A    between atoms: C_1  and  C_2
REMARK    2  A    between atoms: C_2  and  C_3
REMARK    3  A    between atoms: C_3  and  C_4
REMARK    4  A    between atoms: C_5  and  C_6
REMARK    5  A    between atoms: C_8  and  C_9
REMARK                            x       y       z     vdW  Elec       q    Type
REMARK                         _______ _______ _______ _____ _____    ______ ____
ROOT
ATOM      1  C   UNL     1       5.115   4.235  18.006  0.00  0.00    +0.000 A 
ATOM      2  C   UNL     1       5.425   4.242  16.669  0.00  0.00    +0.000 A 
ATOM      3  C   UNL     1       6.676   4.730  16.353  0.00  0.00    +0.000 A 
ATOM      4  C   UNL     1       7.154   4.798  14.937  0.00  0.00    +0.000 C 
ATOM      5  N   UNL     1       7.540   5.153  17.301  0.00  0.00    +0.000 NA
ATOM      6  C   UNL     1       7.146   5.084  18.578  0.00  0.00    +0.000 A 
ATOM      7  N   UNL     1       8.057   5.464  19.523  0.00  0.00    +0.000 N 
ATOM      8  N   UNL     1       5.948   4.646  18.980  0.00  0.00    +0.000 NA
ATOM      9  H   UNL     1       8.875   5.938  19.179  0.00  0.00    +0.000 HD
ATOM     10  H   UNL     1       7.723   5.579  20.465  0.00  0.00    +0.000 HD
ENDROOT
BRANCH   1  12
ATOM     11  C   UNL     1       2.685   3.264  18.802  0.00  0.00    +0.000 C 
ATOM     12  C   UNL     1       3.838   3.751  18.440  0.00  0.00    +0.000 C 
BRANCH  11  13
ATOM     13  C   UNL     1       1.339   2.696  19.225  0.00  0.00    +0.000 C 
BRANCH  13  15
ATOM     14  C   UNL     1       1.938   2.948  21.655  0.00  0.00    +0.000 C 
ATOM     15  C   UNL     1       0.918   3.269  20.575  0.00  0.00    +0.000 C 
ENDBRANCH  13  15
ENDBRANCH  11  13
ENDBRANCH   1  12
TORSDOF 3
ENDMDL
MODEL 5
REMARK VINA RESULT:      -6.2      1.190      2.410
REMARK  Name = 
REMARK  5 active torsions:
REMARK  status: ('A' for Active; 'I' for Inactive)
REMARK    1  A    between atoms: C_1  and  C_2
REMARK    2  A    between atoms: C_2  and  C_3
REMARK    3  A    between atoms: C_3  and  C_4
REMARK    4  A    between atoms: C_5  and  C_6
REMARK    5  A    between atoms: C_8  and  C_9
REMARK                            x       y       z     vdW  Elec       q    Type
REMARK                         _______ _______ _______ _____ _____    ______ ____
ROOT
ATOM      1  C   UNL     1       5.949   4.140  16.316  0.00  0.00    +0.000 A 
ATOM      2  C   UNL     1       4.749   3.869  16.923  0.00  0.00    +0.000 A 
ATOM      3  C   UNL     1       4.721   4.049  18.290  0.00  0.00    +0.000 A 
ATOM      4  C   UNL     1       3.481   3.793  19.088  0.00  0.00    +0.000 C 
ATOM      5  N   UNL     1       5.800   4.481  18.977  0.00  0.00    +0.000 NA
ATOM      6  C   UNL     1       6.917   4.737  18.286  0.00  0.00    +0.000 A 
ATOM      7  N   UNL     1       7.979   5.227  18.994  0.00  0.00    +0.000 N 
ATOM      8  N   UNL     1       7.046   4.574  16.965  0.00  0.00    +0.000 NA
ATOM      9  H   UNL     1       7.899   5.179  19.996  0.00  0.00    +0.000 HD
ATOM     10  H   UNL     1       8.867   5.263  18.525  0.00  0.00    +0.000 HD
ENDROOT
BRANCH   1  12
ATOM     11  C   UNL     1       6.228   3.785  13.618  0.00  0.00    +0.000 C 
ATOM     12  C   UNL     1       6.084   3.982  14.898  0.00  0.00    +0.000 C 
BRANCH  11  13
ATOM     13  C   UNL     1       6.396   3.556  12.125  0.00  0.00    +0.000 C 
BRANCH  13  15
ATOM     14  C   UNL     1       6.433   1.272  11.072  0.00  0.00    +0.000 C 
ATOM     15  C   UNL     1       5.561   2.363  11.670  0.00  0.00    +0.000 C 
ENDBRANCH  13  15
ENDBRANCH  11  13
ENDBRANCH   1  12
TORSDOF 3
ENDMDL
MODEL 6
REMARK VINA RESULT:      -6.1      2.787      5.343
REMARK  Name = 
REMARK  5 active torsions:
REMARK  status: ('A' for Active; 'I' for Inactive)
REMARK    1  A    between atoms: C_1  and  C_2
REMARK    2  A    between atoms: C_2  and  C_3
REMARK    3  A    between atoms: C_3  and  C_4
REMARK    4  A    between atoms: C_5  and  C_6
REMARK    5  A    between atoms: C_8  and  C_9
REMARK                            x       y       z     vdW  Elec       q    Type
REMARK                         _______ _______ _______ _____ _____    ______ ____
ROOT
ATOM      1  C   UNL     1       4.861   5.023  16.925  0.00  0.00    +0.000 A 
ATOM      2  C   UNL     1       5.558   5.996  17.598  0.00  0.00    +0.000 A 
ATOM      3  C   UNL     1       6.740   6.392  17.009  0.00  0.00    +0.000 A 
ATOM      4  C   UNL     1       7.607   7.444  17.626  0.00  0.00    +0.000 C 
ATOM      5  N   UNL     1       7.169   5.869  15.841  0.00  0.00    +0.000 NA
ATOM      6  C   UNL     1       6.403   4.940  15.256  0.00  0.00    +0.000 A 
ATOM      7  N   UNL     1       6.828   4.465  14.047  0.00  0.00    +0.000 N 
ATOM      8  N   UNL     1       5.253   4.478  15.759  0.00  0.00    +0.000 NA
ATOM      9  H   UNL     1       7.768   4.711  13.784  0.00  0.00    +0.000 HD
ATOM     10  H   UNL     1       6.360   3.655  13.680  0.00  0.00    +0.000 HD
ENDROOT
BRANCH   1  12
ATOM     11  C   UNL     1       2.495   4.054  17.899  0.00  0.00    +0.000 C 
ATOM     12  C   UNL     1       3.620   4.538  17.455  0.00  0.00    +0.000 C 
BRANCH  11  13
ATOM     13  C   UNL     1       1.182   3.490  18.418  0.00  0.00    +0.000 C 
BRANCH  13  15
ATOM     14  C   UNL     1       1.479   4.814  20.536  0.00  0.00    +0.000 C 
ATOM     15  C   UNL     1       1.185   3.446  19.943  0.00  0.00    +0.000 C 
ENDBRANCH  13  15
ENDBRANCH  11  13
ENDBRANCH   1  12
TORSDOF 3
ENDMDL
MODEL 7
REMARK VINA RESULT:      -6.0      1.653      2.415
REMARK  Name = 
REMARK  5 active torsions:
REMARK  status: ('A' for Active; 'I' for Inactive)
REMARK    1  A    between atoms: C_1  and  C_2
REMARK    2  A    between atoms: C_2  and  C_3
REMARK    3  A    between atoms: C_3  and  C_4
REMARK    4  A    between atoms: C_5  and  C_6
REMARK    5  A    between atoms: C_8  and  C_9
REMARK                            x       y       z     vdW  Elec       q    Type
REMARK                         _______ _______ _______ _____ _____    ______ ____
ROOT
ATOM      1  C   UNL     1       5.740   4.523  15.384  0.00  0.00    +0.000 A 
ATOM      2  C   UNL     1       4.790   5.305  15.992  0.00  0.00    +0.000 A 
ATOM      3  C   UNL     1       5.070   5.675  17.290  0.00  0.00    +0.000 A 
ATOM      4  C   UNL     1       4.128   6.528  18.081  0.00  0.00    +0.000 C 
ATOM      5  N   UNL     1       6.212   5.308  17.910  0.00  0.00    +0.000 NA
ATOM      6  C   UNL     1       7.083   4.562  17.219  0.00  0.00    +0.000 A 
ATOM      7  N   UNL     1       8.256   4.248  17.846  0.00  0.00    +0.000 N 
ATOM      8  N   UNL     1       6.891   4.137  15.966  0.00  0.00    +0.000 NA
ATOM      9  H   UNL     1       8.292   4.442  18.833  0.00  0.00    +0.000 HD
ATOM     10  H   UNL     1       8.840   3.555  17.410  0.00  0.00    +0.000 HD
ENDROOT
BRANCH   1  12
ATOM     11  C   UNL     1       5.361   3.625  12.828  0.00  0.00    +0.000 C 
ATOM     12  C   UNL     1       5.544   4.081  14.034  0.00  0.00    +0.000 C 
BRANCH  11  13
ATOM     13  C   UNL     1       5.147   3.093  11.420  0.00  0.00    +0.000 C 
BRANCH  13  15
ATOM     14  C   UNL     1       3.290   3.998   9.984  0.00  0.00    +0.000 C 
ATOM     15  C   UNL     1       3.658   3.027  11.094  0.00  0.00    +0.000 C 
ENDBRANCH  13  15
ENDBRANCH  11  13
ENDBRANCH   1  12
TORSDOF 3
ENDMDL
MODEL 8
REMARK VINA RESULT:      -6.0      3.339      6.678
REMARK  Name = 
REMARK  5 active torsions:
REMARK  status: ('A' for Active; 'I' for Inactive)
REMARK    1  A    between atoms: C_1  and  C_2
REMARK    2  A    between atoms: C_2  and  C_3
REMARK    3  A    between atoms: C_3  and  C_4
REMARK    4  A    between atoms: C_5  and  C_6
REMARK    5  A    between atoms: C_8  and  C_9
REMARK                            x       y       z     vdW  Elec       q    Type
REMARK                         _______ _______ _______ _____ _____    ______ ____
ROOT
ATOM      1  C   UNL     1       7.155   6.671  17.402  0.00  0.00    +0.000 A 
ATOM      2  C   UNL     1       6.418   5.989  18.338  0.00  0.00    +0.000 A 
ATOM      3  C   UNL     1       5.871   4.798  17.909  0.00  0.00    +0.000 A 
ATOM      4  C   UNL     1       5.044   3.945  18.818  0.00  0.00    +0.000 C 
ATOM      5  N   UNL     1       6.066   4.330  16.657  0.00  0.00    +0.000 NA
ATOM      6  C   UNL     1       6.819   5.064  15.829  0.00  0.00    +0.000 A 
ATOM      7  N   UNL     1       7.049   4.544  14.586  0.00  0.00    +0.000 N 
ATOM      8  N   UNL     1       7.374   6.238  16.146  0.00  0.00    +0.000 NA
ATOM      9  H   UNL     1       6.487   3.750  14.330  0.00  0.00    +0.000 HD
ATOM     10  H   UNL     1       7.466   5.153  13.902  0.00  0.00    +0.000 HD
ENDROOT
BRANCH   1  12
ATOM     11  C   UNL     1       8.321   9.072  18.004  0.00  0.00    +0.000 C 
ATOM     12  C   UNL     1       7.764   7.922  17.746  0.00  0.00    +0.000 C 
BRANCH  11  13
ATOM     13  C   UNL     1       8.971  10.413  18.304  0.00  0.00    +0.000 C 
BRANCH  13  15
ATOM     14  C   UNL     1      10.420  11.636  19.957  0.00  0.00    +0.000 C 
ATOM     15  C   UNL     1       9.516  10.435  19.729  0.00  0.00    +0.000 C 
ENDBRANCH  13  15
ENDBRANCH  11  13
ENDBRANCH   1  12
TORSDOF 3
ENDMDL
MODEL 9
REMARK VINA RESULT:      -6.0      1.849      2.629
REMARK  Name = 
REMARK  5 active torsions:
REMARK  status: ('A' for Active; 'I' for Inactive)
REMARK    1  A    between atoms: C_1  and  C_2
REMARK    2  A    between atoms: C_2  and  C_3
REMARK    3  A    between atoms: C_3  and  C_4
REMARK    4  A    between atoms: C_5  and  C_6
REMARK    5  A    between atoms: C_8  and  C_9
REMARK                            x       y       z     vdW  Elec       q    Type
REMARK                         _______ _______ _______ _____ _____    ______ ____
ROOT
ATOM      1  C   UNL     1       5.957   4.959  15.589  0.00  0.00    +0.000 A 
ATOM      2  C   UNL     1       4.920   4.587  16.407  0.00  0.00    +0.000 A 
ATOM      3  C   UNL     1       4.818   5.288  17.591  0.00  0.00    +0.000 A 
ATOM      4  C   UNL     1       3.737   4.994  18.583  0.00  0.00    +0.000 C 
ATOM      5  N   UNL     1       5.673   6.284  17.909  0.00  0.00    +0.000 NA
ATOM      6  C   UNL     1       6.637   6.581  17.031  0.00  0.00    +0.000 A 
ATOM      7  N   UNL     1       7.455   7.629  17.348  0.00  0.00    +0.000 N 
ATOM      8  N   UNL     1       6.828   5.947  15.869  0.00  0.00    +0.000 NA
ATOM      9  H   UNL     1       7.387   7.969  18.293  0.00  0.00    +0.000 HD
ATOM     10  H   UNL     1       8.280   7.755  16.788  0.00  0.00    +0.000 HD
ENDROOT
BRANCH   1  12
ATOM     11  C   UNL     1       6.300   3.724  13.172  0.00  0.00    +0.000 C 
ATOM     12  C   UNL     1       6.153   4.291  14.336  0.00  0.00    +0.000 C 
BRANCH  11  13
ATOM     13  C   UNL     1       6.471   3.063  11.814  0.00  0.00    +0.000 C 
BRANCH  13  15
ATOM     14  C   UNL     1       4.039   3.223  11.189  0.00  0.00    +0.000 C 
ATOM     15  C   UNL     1       5.212   2.288  11.435  0.00  0.00    +0.000 C 
ENDBRANCH  13  15
ENDBRANCH  11  13
ENDBRANCH   1  12
TORSDOF 3
ENDMDL
