MODEL 1
REMARK VINA RESULT:      -7.6      0.000      0.000
REMARK  Name = 
REMARK  14 active torsions:
REMARK  status: ('A' for Active; 'I' for Inactive)
REMARK    1  A    between atoms: C_1  and  C_2
REMARK    2  A    between atoms: C_2  and  C_3
REMARK    3  A    between atoms: C_2  and  C_4
REMARK    4  A    between atoms: C_2  and  C_5
REMARK    5  A    between atoms: C_8  and  C_9
REMARK    6  A    between atoms: C_9  and  O_11
REMARK    7  A    between atoms: O_11  and  C_12
REMARK    8  A    between atoms: C_12  and  C_13
REMARK    9  A    between atoms: C_13  and  C_14
REMARK   10  A    between atoms: C_14  and  C_15
REMARK   11  A    between atoms: C_15  and  N_16
REMARK   12  A    between atoms: C_19  and  O_20
REMARK   13  A    between atoms: O_20  and  C_21
REMARK   14  A    between atoms: C_21  and  C_22
REMARK                            x       y       z     vdW  Elec       q    Type
REMARK                         _______ _______ _______ _____ _____    ______ ____
ROOT
ATOM      1  C   UNL     1       1.870   5.869  20.761  0.00  0.00    +0.000 C 
ENDROOT
BRANCH   1   2
ATOM      2  C   UNL     1       1.234   4.492  20.543  0.00  0.00    +0.000 C 
BRANCH   2   3
ATOM      3  C   UNL     1       1.788   3.451  21.508  0.00  0.00    +0.000 C 
BRANCH   3   4
ATOM      4  O   UNL     1       2.893   2.749  20.923  0.00  0.00    +0.000 OA
BRANCH   4   5
ATOM      5  C   UNL     1       2.695   2.357  19.641  0.00  0.00    +0.000 C 
ATOM      6  O   UNL     1       1.906   1.504  19.264  0.00  0.00    +0.000 OA
BRANCH   5  10
ATOM      7  C   UNL     1       5.315   4.663  17.101  0.00  0.00    +0.000 A 
ATOM      8  C   UNL     1       5.552   4.495  18.475  0.00  0.00    +0.000 A 
ATOM      9  C   UNL     1       4.703   3.725  19.272  0.00  0.00    +0.000 A 
ATOM     10  C   UNL     1       3.581   3.105  18.719  0.00  0.00    +0.000 A 
ATOM     11  C   UNL     1       3.339   3.228  17.349  0.00  0.00    +0.000 A 
ATOM     12  C   UNL     1       4.198   3.996  16.550  0.00  0.00    +0.000 A 
BRANCH   7  14
ATOM     13  C   UNL     1       7.008   4.773  15.169  0.00  0.00    +0.000 C 
ATOM     14  C   UNL     1       6.198   5.565  16.221  0.00  0.00    +0.000 C 
ATOM     15  C   UNL     1       7.207   6.322  17.111  0.00  0.00    +0.000 C 
ATOM     16  C   UNL     1       5.339   6.593  15.458  0.00  0.00    +0.000 C 
ENDBRANCH   7  14
ENDBRANCH   5  10
ENDBRANCH   4   5
ENDBRANCH   3   4
ENDBRANCH   2   3
ENDBRANCH   1   2
BRANCH   1  17
ATOM     17  C   UNL     1       2.268   6.526  19.434  0.00  0.00    +0.000 C 
BRANCH  17  18
ATOM     18  N   UNL     1       2.116   7.991  19.452  0.00  0.00    +0.000 NA
ATOM     19  C   UNL     1       1.731   8.522  18.134  0.00  0.00    +0.000 C 
ATOM     20  C   UNL     1       1.633  10.045  18.162  0.00  0.00    +0.000 C 
ATOM     21  C   UNL     1       0.626  10.504  19.215  0.00  0.00    +0.000 C 
ATOM     22  C   UNL     1       1.041   9.913  20.564  0.00  0.00    +0.000 C 
ATOM     23  C   UNL     1       1.146   8.389  20.483  0.00  0.00    +0.000 C 
BRANCH  21  24
ATOM     24  O   UNL     1      -0.671  10.059  18.797  0.00  0.00    +0.000 OA
BRANCH  24  25
ATOM     25  C   UNL     1      -1.318  10.941  17.885  0.00  0.00    +0.000 C 
BRANCH  25  26
ATOM     26  C   UNL     1      -2.556  11.497  18.536  0.00  0.00    +0.000 A 
ATOM     27  C   UNL     1      -3.821  11.246  17.986  0.00  0.00    +0.000 A 
ATOM     28  C   UNL     1      -4.970  11.753  18.594  0.00  0.00    +0.000 A 
ATOM     29  C   UNL     1      -4.865  12.517  19.755  0.00  0.00    +0.000 A 
ATOM     30  C   UNL     1      -3.611  12.775  20.305  0.00  0.00    +0.000 A 
ATOM     31  C   UNL     1      -2.461  12.267  19.700  0.00  0.00    +0.000 A 
ENDBRANCH  25  26
ENDBRANCH  24  25
ENDBRANCH  21  24
ENDBRANCH  17  18
ENDBRANCH   1  17
TORSDOF 11
ENDMDL
MODEL 2
REMARK VINA RESULT:      -7.4      6.115      8.819
REMARK  Name = 
REMARK  14 active torsions:
REMARK  status: ('A' for Active; 'I' for Inactive)
REMARK    1  A    between atoms: C_1  and  C_2
REMARK    2  A    between atoms: C_2  and  C_3
REMARK    3  A    between atoms: C_2  and  C_4
REMARK    4  A    between atoms: C_2  and  C_5
REMARK    5  A    between atoms: C_8  and  C_9
REMARK    6  A    between atoms: C_9  and  O_11
REMARK    7  A    between atoms: O_11  and  C_12
REMARK    8  A    between atoms: C_12  and  C_13
REMARK    9  A    between atoms: C_13  and  C_14
REMARK   10  A    between atoms: C_14  and  C_15
REMARK   11  A    between atoms: C_15  and  N_16
REMARK   12  A    between atoms: C_19  and  O_20
REMARK   13  A    between atoms: O_20  and  C_21
REMARK   14  A    between atoms: C_21  and  C_22
REMARK                            x       y       z     vdW  Elec       q    Type
REMARK                         _______ _______ _______ _____ _____    ______ ____
ROOT
ATOM      1  C   UNL     1       8.599   9.221  18.421  0.00  0.00    +0.000 C 
ENDROOT
BRANCH   1   2
ATOM      2  C   UNL     1       7.689   8.305  17.596  0.00  0.00    +0.000 C 
BRANCH   2   3
ATOM      3  C   UNL     1       7.678   6.880  18.136  0.00  0.00    +0.000 C 
BRANCH   3   4
ATOM      4  O   UNL     1       7.379   5.941  17.095  0.00  0.00    +0.000 OA
BRANCH   4   5
ATOM      5  C   UNL     1       6.135   6.061  16.570  0.00  0.00    +0.000 C 
ATOM      6  O   UNL     1       5.852   6.585  15.503  0.00  0.00    +0.000 OA
BRANCH   5  10
ATOM      7  C   UNL     1       3.182   4.171  19.089  0.00  0.00    +0.000 A 
ATOM      8  C   UNL     1       4.183   3.444  18.424  0.00  0.00    +0.000 A 
ATOM      9  C   UNL     1       5.141   4.081  17.633  0.00  0.00    +0.000 A 
ATOM     10  C   UNL     1       5.122   5.467  17.474  0.00  0.00    +0.000 A 
ATOM     11  C   UNL     1       4.158   6.218  18.150  0.00  0.00    +0.000 A 
ATOM     12  C   UNL     1       3.201   5.577  18.949  0.00  0.00    +0.000 A 
BRANCH   7  14
ATOM     13  C   UNL     1       1.070   4.483  20.521  0.00  0.00    +0.000 C 
ATOM     14  C   UNL     1       2.075   3.483  19.906  0.00  0.00    +0.000 C 
ATOM     15  C   UNL     1       2.711   2.690  21.068  0.00  0.00    +0.000 C 
ATOM     16  C   UNL     1       1.269   2.509  19.022  0.00  0.00    +0.000 C 
ENDBRANCH   7  14
ENDBRANCH   5  10
ENDBRANCH   4   5
ENDBRANCH   3   4
ENDBRANCH   2   3
ENDBRANCH   1   2
BRANCH   1  17
ATOM     17  C   UNL     1       8.675  10.631  17.824  0.00  0.00    +0.000 C 
BRANCH  17  18
ATOM     18  N   UNL     1       9.548  11.534  18.594  0.00  0.00    +0.000 NA
ATOM     19  C   UNL     1       9.116  12.937  18.495  0.00  0.00    +0.000 C 
ATOM     20  C   UNL     1      10.065  13.860  19.255  0.00  0.00    +0.000 C 
ATOM     21  C   UNL     1      10.157  13.453  20.723  0.00  0.00    +0.000 C 
ATOM     22  C   UNL     1      10.582  11.984  20.788  0.00  0.00    +0.000 C 
ATOM     23  C   UNL     1       9.614  11.101  19.998  0.00  0.00    +0.000 C 
BRANCH  21  24
ATOM     24  O   UNL     1       8.871  13.678  21.317  0.00  0.00    +0.000 OA
BRANCH  24  25
ATOM     25  C   UNL     1       8.914  14.462  22.505  0.00  0.00    +0.000 C 
BRANCH  25  26
ATOM     26  C   UNL     1       8.420  13.630  23.658  0.00  0.00    +0.000 A 
ATOM     27  C   UNL     1       8.507  14.114  24.971  0.00  0.00    +0.000 A 
ATOM     28  C   UNL     1       8.041  13.347  26.040  0.00  0.00    +0.000 A 
ATOM     29  C   UNL     1       7.485  12.091  25.807  0.00  0.00    +0.000 A 
ATOM     30  C   UNL     1       7.399  11.600  24.505  0.00  0.00    +0.000 A 
ATOM     31  C   UNL     1       7.863  12.366  23.435  0.00  0.00    +0.000 A 
ENDBRANCH  25  26
ENDBRANCH  24  25
ENDBRANCH  21  24
ENDBRANCH  17  18
ENDBRANCH   1  17
TORSDOF 11
ENDMDL
MODEL 3
REMARK VINA RESULT:      -7.3      6.255      8.759
REMARK  Name = 
REMARK  14 active torsions:
REMARK  status: ('A' for Active; 'I' for Inactive)
REMARK    1  A    between atoms: C_1  and  C_2
REMARK    2  A    between atoms: C_2  and  C_3
REMARK    3  A    between atoms: C_2  and  C_4
REMARK    4  A    between atoms: C_2  and  C_5
REMARK    5  A    between atoms: C_8  and  C_9
REMARK    6  A    between atoms: C_9  and  O_11
REMARK    7  A    between atoms: O_11  and  C_12
REMARK    8  A    between atoms: C_12  and  C_13
REMARK    9  A    between atoms: C_13  and  C_14
REMARK   10  A    between atoms: C_14  and  C_15
REMARK   11  A    between atoms: C_15  and  N_16
REMARK   12  A    between atoms: C_19  and  O_20
REMARK   13  A    between atoms: O_20  and  C_21
REMARK   14  A    between atoms: C_21  and  C_22
REMARK                            x       y       z     vdW  Elec       q    Type
REMARK                         _______ _______ _______ _____ _____    ______ ____
ROOT
ATOM      1  C   UNL     1       8.463   9.336  18.164  0.00  0.00    +0.000 C 
ENDROOT
BRANCH   1   2
ATOM      2  C   UNL     1       8.228   7.855  18.476  0.00  0.00    +0.000 C 
BRANCH   2   3
ATOM      3  C   UNL     1       7.603   7.119  17.298  0.00  0.00    +0.000 C 
BRANCH   3   4
ATOM      4  O   UNL     1       6.222   7.474  17.147  0.00  0.00    +0.000 OA
BRANCH   4   5
ATOM      5  C   UNL     1       5.516   6.654  16.332  0.00  0.00    +0.000 C 
ATOM      6  O   UNL     1       5.609   6.595  15.115  0.00  0.00    +0.000 OA
BRANCH   5  10
ATOM      7  C   UNL     1       2.788   4.339  18.747  0.00  0.00    +0.000 A 
ATOM      8  C   UNL     1       2.721   5.739  18.666  0.00  0.00    +0.000 A 
ATOM      9  C   UNL     1       3.600   6.464  17.860  0.00  0.00    +0.000 A 
ATOM     10  C   UNL     1       4.582   5.810  17.115  0.00  0.00    +0.000 A 
ATOM     11  C   UNL     1       4.651   4.416  17.151  0.00  0.00    +0.000 A 
ATOM     12  C   UNL     1       3.762   3.690  17.956  0.00  0.00    +0.000 A 
BRANCH   7  14
ATOM     13  C   UNL     1       2.665   2.621  20.655  0.00  0.00    +0.000 C 
ATOM     14  C   UNL     1       1.876   3.528  19.684  0.00  0.00    +0.000 C 
ATOM     15  C   UNL     1       0.954   2.618  18.844  0.00  0.00    +0.000 C 
ATOM     16  C   UNL     1       1.002   4.465  20.542  0.00  0.00    +0.000 C 
ENDBRANCH   7  14
ENDBRANCH   5  10
ENDBRANCH   4   5
ENDBRANCH   3   4
ENDBRANCH   2   3
ENDBRANCH   1   2
BRANCH   1  17
ATOM     17  C   UNL     1       9.168  10.055  19.321  0.00  0.00    +0.000 C 
BRANCH  17  18
ATOM     18  N   UNL     1      10.197  11.004  18.864  0.00  0.00    +0.000 NA
ATOM     19  C   UNL     1       9.635  12.052  17.997  0.00  0.00    +0.000 C 
ATOM     20  C   UNL     1      10.726  12.992  17.491  0.00  0.00    +0.000 C 
ATOM     21  C   UNL     1      11.470  13.636  18.659  0.00  0.00    +0.000 C 
ATOM     22  C   UNL     1      12.017  12.521  19.552  0.00  0.00    +0.000 C 
ATOM     23  C   UNL     1      10.893  11.594  20.018  0.00  0.00    +0.000 C 
BRANCH  21  24
ATOM     24  O   UNL     1      10.543  14.485  19.348  0.00  0.00    +0.000 OA
BRANCH  24  25
ATOM     25  C   UNL     1       9.864  15.407  18.501  0.00  0.00    +0.000 C 
BRANCH  25  26
ATOM     26  C   UNL     1       8.568  15.808  19.152  0.00  0.00    +0.000 A 
ATOM     27  C   UNL     1       7.797  14.863  19.845  0.00  0.00    +0.000 A 
ATOM     28  C   UNL     1       6.601  15.237  20.456  0.00  0.00    +0.000 A 
ATOM     29  C   UNL     1       6.162  16.558  20.381  0.00  0.00    +0.000 A 
ATOM     30  C   UNL     1       6.919  17.503  19.691  0.00  0.00    +0.000 A 
ATOM     31  C   UNL     1       8.117  17.131  19.080  0.00  0.00    +0.000 A 
ENDBRANCH  25  26
ENDBRANCH  24  25
ENDBRANCH  21  24
ENDBRANCH  17  18
ENDBRANCH   1  17
TORSDOF 11
ENDMDL
MODEL 4
REMARK VINA RESULT:      -7.2      6.441      8.959
REMARK  Name = 
REMARK  14 active torsions:
REMARK  status: ('A' for Active; 'I' for Inactive)
REMARK    1  A    between atoms: C_1  and  C_2
REMARK    2  A    between atoms: C_2  and  C_3
REMARK    3  A    between atoms: C_2  and  C_4
REMARK    4  A    between atoms: C_2  and  C_5
REMARK    5  A    between atoms: C_8  and  C_9
REMARK    6  A    between atoms: C_9  and  O_11
REMARK    7  A    between atoms: O_11  and  C_12
REMARK    8  A    between atoms: C_12  and  C_13
REMARK    9  A    between atoms: C_13  and  C_14
REMARK   10  A    between atoms: C_14  and  C_15
REMARK   11  A    between atoms: C_15  and  N_16
REMARK   12  A    between atoms: C_19  and  O_20
REMARK   13  A    between atoms: O_20  and  C_21
REMARK   14  A    between atoms: C_21  and  C_22
REMARK                            x       y       z     vdW  Elec       q    Type
REMARK                         _______ _______ _______ _____ _____    ______ ____
ROOT
ATOM      1  C   UNL     1       8.588   9.023  18.693  0.00  0.00    +0.000 C 
ENDROOT
BRANCH   1   2
ATOM      2  C   UNL     1       7.921   8.141  17.632  0.00  0.00    +0.000 C 
BRANCH   2   3
ATOM      3  C   UNL     1       7.584   6.757  18.174  0.00  0.00    +0.000 C 
BRANCH   3   4
ATOM      4  O   UNL     1       7.471   5.805  17.109  0.00  0.00    +0.000 OA
BRANCH   4   5
ATOM      5  C   UNL     1       6.270   5.805  16.479  0.00  0.00    +0.000 C 
ATOM      6  O   UNL     1       6.043   6.248  15.364  0.00  0.00    +0.000 OA
BRANCH   5  10
ATOM      7  C   UNL     1       3.153   4.185  18.988  0.00  0.00    +0.000 A 
ATOM      8  C   UNL     1       2.931   5.254  18.105  0.00  0.00    +0.000 A 
ATOM      9  C   UNL     1       3.950   5.746  17.287  0.00  0.00    +0.000 A 
ATOM     10  C   UNL     1       5.228   5.188  17.334  0.00  0.00    +0.000 A 
ATOM     11  C   UNL     1       5.469   4.103  18.179  0.00  0.00    +0.000 A 
ATOM     12  C   UNL     1       4.442   3.607  18.995  0.00  0.00    +0.000 A 
BRANCH   7  14
ATOM     13  C   UNL     1       2.624   2.769  21.068  0.00  0.00    +0.000 C 
ATOM     14  C   UNL     1       2.064   3.677  19.949  0.00  0.00    +0.000 C 
ATOM     15  C   UNL     1       1.025   2.852  19.159  0.00  0.00    +0.000 C 
ATOM     16  C   UNL     1       1.346   4.857  20.635  0.00  0.00    +0.000 C 
ENDBRANCH   7  14
ENDBRANCH   5  10
ENDBRANCH   4   5
ENDBRANCH   3   4
ENDBRANCH   2   3
ENDBRANCH   1   2
BRANCH   1  17
ATOM     17  C   UNL     1       8.828  10.447  18.177  0.00  0.00    +0.000 C 
BRANCH  17  18
ATOM     18  N   UNL     1       9.975  11.105  18.825  0.00  0.00    +0.000 NA
ATOM     19  C   UNL     1      10.893  11.706  17.843  0.00  0.00    +0.000 C 
ATOM     20  C   UNL     1      12.101  12.335  18.532  0.00  0.00    +0.000 C 
ATOM     21  C   UNL     1      11.659  13.395  19.538  0.00  0.00    +0.000 C 
ATOM     22  C   UNL     1      10.687  12.744  20.525  0.00  0.00    +0.000 C 
ATOM     23  C   UNL     1       9.506  12.111  19.789  0.00  0.00    +0.000 C 
BRANCH  21  24
ATOM     24  O   UNL     1      11.056  14.468  18.802  0.00  0.00    +0.000 OA
BRANCH  24  25
ATOM     25  C   UNL     1      10.885  15.662  19.558  0.00  0.00    +0.000 C 
BRANCH  25  26
ATOM     26  C   UNL     1       9.418  15.993  19.626  0.00  0.00    +0.000 A 
ATOM     27  C   UNL     1       8.688  16.234  18.454  0.00  0.00    +0.000 A 
ATOM     28  C   UNL     1       7.327  16.532  18.516  0.00  0.00    +0.000 A 
ATOM     29  C   UNL     1       6.683  16.594  19.751  0.00  0.00    +0.000 A 
ATOM     30  C   UNL     1       7.402  16.360  20.922  0.00  0.00    +0.000 A 
ATOM     31  C   UNL     1       8.763  16.061  20.861  0.00  0.00    +0.000 A 
ENDBRANCH  25  26
ENDBRANCH  24  25
ENDBRANCH  21  24
ENDBRANCH  17  18
ENDBRANCH   1  17
TORSDOF 11
ENDMDL
MODEL 5
REMARK VINA RESULT:      -7.2      0.899      1.422
REMARK  Name = 
REMARK  14 active torsions:
REMARK  status: ('A' for Active; 'I' for Inactive)
REMARK    1  A    between atoms: C_1  and  C_2
REMARK    2  A    between atoms: C_2  and  C_3
REMARK    3  A    between atoms: C_2  and  C_4
REMARK    4  A    between atoms: C_2  and  C_5
REMARK    5  A    between atoms: C_8  and  C_9
REMARK    6  A    between atoms: C_9  and  O_11
REMARK    7  A    between atoms: O_11  and  C_12
REMARK    8  A    between atoms: C_12  and  C_13
REMARK    9  A    between atoms: C_13  and  C_14
REMARK   10  A    between atoms: C_14  and  C_15
REMARK   11  A    between atoms: C_15  and  N_16
REMARK   12  A    between atoms: C_19  and  O_20
REMARK   13  A    between atoms: O_20  and  C_21
REMARK   14  A    between atoms: C_21  and  C_22
REMARK                            x       y       z     vdW  Elec       q    Type
REMARK                         _______ _______ _______ _____ _____    ______ ____
ROOT
ATOM      1  C   UNL     1       1.753   5.713  20.631  0.00  0.00    +0.000 C 
ENDROOT
BRANCH   1   2
ATOM      2  C   UNL     1       0.941   4.500  20.166  0.00  0.00    +0.000 C 
BRANCH   2   3
ATOM      3  C   UNL     1       1.527   3.192  20.681  0.00  0.00    +0.000 C 
BRANCH   3   4
ATOM      4  O   UNL     1       2.811   3.408  21.280  0.00  0.00    +0.000 OA
BRANCH   4   5
ATOM      5  C   UNL     1       3.807   2.645  20.768  0.00  0.00    +0.000 C 
ATOM      6  O   UNL     1       4.268   1.631  21.270  0.00  0.00    +0.000 OA
BRANCH   5  10
ATOM      7  C   UNL     1       5.250   4.448  17.120  0.00  0.00    +0.000 A 
ATOM      8  C   UNL     1       5.760   4.789  18.383  0.00  0.00    +0.000 A 
ATOM      9  C   UNL     1       5.293   4.175  19.547  0.00  0.00    +0.000 A 
ATOM     10  C   UNL     1       4.292   3.205  19.483  0.00  0.00    +0.000 A 
ATOM     11  C   UNL     1       3.789   2.823  18.238  0.00  0.00    +0.000 A 
ATOM     12  C   UNL     1       4.264   3.437  17.071  0.00  0.00    +0.000 A 
BRANCH   7  14
ATOM     13  C   UNL     1       7.228   5.387  15.773  0.00  0.00    +0.000 C 
ATOM     14  C   UNL     1       5.699   5.164  15.835  0.00  0.00    +0.000 C 
ATOM     15  C   UNL     1       5.023   6.550  15.754  0.00  0.00    +0.000 C 
ATOM     16  C   UNL     1       5.306   4.346  14.587  0.00  0.00    +0.000 C 
ENDBRANCH   7  14
ENDBRANCH   5  10
ENDBRANCH   4   5
ENDBRANCH   3   4
ENDBRANCH   2   3
ENDBRANCH   1   2
BRANCH   1  17
ATOM     17  C   UNL     1       2.401   6.448  19.451  0.00  0.00    +0.000 C 
BRANCH  17  18
ATOM     18  N   UNL     1       2.169   7.902  19.485  0.00  0.00    +0.000 NA
ATOM     19  C   UNL     1       1.728   8.421  18.180  0.00  0.00    +0.000 C 
ATOM     20  C   UNL     1       1.546   9.936  18.223  0.00  0.00    +0.000 C 
ATOM     21  C   UNL     1       0.540  10.330  19.301  0.00  0.00    +0.000 C 
ATOM     22  C   UNL     1       1.015   9.753  20.636  0.00  0.00    +0.000 C 
ATOM     23  C   UNL     1       1.201   8.238  20.539  0.00  0.00    +0.000 C 
BRANCH  21  24
ATOM     24  O   UNL     1      -0.741   9.818  18.907  0.00  0.00    +0.000 OA
BRANCH  24  25
ATOM     25  C   UNL     1      -1.240  10.381  17.699  0.00  0.00    +0.000 C 
BRANCH  25  26
ATOM     26  C   UNL     1      -2.610  10.950  17.953  0.00  0.00    +0.000 A 
ATOM     27  C   UNL     1      -2.849  11.753  19.077  0.00  0.00    +0.000 A 
ATOM     28  C   UNL     1      -4.116  12.288  19.309  0.00  0.00    +0.000 A 
ATOM     29  C   UNL     1      -5.157  12.025  18.420  0.00  0.00    +0.000 A 
ATOM     30  C   UNL     1      -4.930  11.224  17.302  0.00  0.00    +0.000 A 
ATOM     31  C   UNL     1      -3.663  10.689  17.068  0.00  0.00    +0.000 A 
ENDBRANCH  25  26
ENDBRANCH  24  25
ENDBRANCH  21  24
ENDBRANCH  17  18
ENDBRANCH   1  17
TORSDOF 11
ENDMDL
MODEL 6
REMARK VINA RESULT:      -7.1      5.847      9.925
REMARK  Name = 
REMARK  14 active torsions:
REMARK  status: ('A' for Active; 'I' for Inactive)
REMARK    1  A    between atoms: C_1  and  C_2
REMARK    2  A    between atoms: C_2  and  C_3
REMARK    3  A    between atoms: C_2  and  C_4
REMARK    4  A    between atoms: C_2  and  C_5
REMARK    5  A    between atoms: C_8  and  C_9
REMARK    6  A    between atoms: C_9  and  O_11
REMARK    7  A    between atoms: O_11  and  C_12
REMARK    8  A    between atoms: C_12  and  C_13
REMARK    9  A    between atoms: C_13  and  C_14
REMARK   10  A    between atoms: C_14  and  C_15
REMARK   11  A    between atoms: C_15  and  N_16
REMARK   12  A    between atoms: C_19  and  O_20
REMARK   13  A    between atoms: O_20  and  C_21
REMARK   14  A    between atoms: C_21  and  C_22
REMARK                            x       y       z     vdW  Elec       q    Type
REMARK                         _______ _______ _______ _____ _____    ______ ____
ROOT
ATOM      1  C   UNL     1       8.369   7.224  18.385  0.00  0.00    +0.000 C 
ENDROOT
BRANCH   1   2
ATOM      2  C   UNL     1       7.749   8.297  17.485  0.00  0.00    +0.000 C 
BRANCH   2   3
ATOM      3  C   UNL     1       8.028   9.703  18.001  0.00  0.00    +0.000 C 
BRANCH   3   4
ATOM      4  O   UNL     1       9.322   9.774  18.615  0.00  0.00    +0.000 OA
BRANCH   4   5
ATOM      5  C   UNL     1       9.932  10.980  18.503  0.00  0.00    +0.000 C 
ATOM      6  O   UNL     1      10.681  11.327  17.603  0.00  0.00    +0.000 OA
BRANCH   5  10
ATOM      7  C   UNL     1       8.941  13.691  21.713  0.00  0.00    +0.000 A 
ATOM      8  C   UNL     1       8.735  14.015  20.362  0.00  0.00    +0.000 A 
ATOM      9  C   UNL     1       9.041  13.112  19.343  0.00  0.00    +0.000 A 
ATOM     10  C   UNL     1       9.575  11.858  19.644  0.00  0.00    +0.000 A 
ATOM     11  C   UNL     1       9.760  11.497  20.980  0.00  0.00    +0.000 A 
ATOM     12  C   UNL     1       9.444  12.403  22.002  0.00  0.00    +0.000 A 
BRANCH   7  14
ATOM     13  C   UNL     1       8.423  14.017  24.210  0.00  0.00    +0.000 C 
ATOM     14  C   UNL     1       8.676  14.698  22.846  0.00  0.00    +0.000 C 
ATOM     15  C   UNL     1       7.426  15.538  22.506  0.00  0.00    +0.000 C 
ATOM     16  C   UNL     1       9.879  15.647  23.025  0.00  0.00    +0.000 C 
ENDBRANCH   7  14
ENDBRANCH   5  10
ENDBRANCH   4   5
ENDBRANCH   3   4
ENDBRANCH   2   3
ENDBRANCH   1   2
BRANCH   1  17
ATOM     17  C   UNL     1       7.311   6.252  18.920  0.00  0.00    +0.000 C 
BRANCH  17  18
ATOM     18  N   UNL     1       6.322   5.862  17.899  0.00  0.00    +0.000 NA
ATOM     19  C   UNL     1       6.738   4.660  17.160  0.00  0.00    +0.000 C 
ATOM     20  C   UNL     1       5.727   4.305  16.072  0.00  0.00    +0.000 C 
ATOM     21  C   UNL     1       4.340   4.086  16.673  0.00  0.00    +0.000 C 
ATOM     22  C   UNL     1       3.952   5.343  17.455  0.00  0.00    +0.000 C 
ATOM     23  C   UNL     1       5.002   5.669  18.518  0.00  0.00    +0.000 C 
BRANCH  21  24
ATOM     24  O   UNL     1       4.408   2.921  17.506  0.00  0.00    +0.000 OA
BRANCH  24  25
ATOM     25  C   UNL     1       3.164   2.242  17.650  0.00  0.00    +0.000 C 
BRANCH  25  26
ATOM     26  C   UNL     1       2.590   2.554  19.006  0.00  0.00    +0.000 A 
ATOM     27  C   UNL     1       3.356   2.358  20.164  0.00  0.00    +0.000 A 
ATOM     28  C   UNL     1       2.828   2.656  21.420  0.00  0.00    +0.000 A 
ATOM     29  C   UNL     1       1.529   3.148  21.532  0.00  0.00    +0.000 A 
ATOM     30  C   UNL     1       0.759   3.341  20.386  0.00  0.00    +0.000 A 
ATOM     31  C   UNL     1       1.286   3.046  19.128  0.00  0.00    +0.000 A 
ENDBRANCH  25  26
ENDBRANCH  24  25
ENDBRANCH  21  24
ENDBRANCH  17  18
ENDBRANCH   1  17
TORSDOF 11
ENDMDL
MODEL 7
REMARK VINA RESULT:      -7.1      2.240     10.367
REMARK  Name = 
REMARK  14 active torsions:
REMARK  status: ('A' for Active; 'I' for Inactive)
REMARK    1  A    between atoms: C_1  and  C_2
REMARK    2  A    between atoms: C_2  and  C_3
REMARK    3  A    between atoms: C_2  and  C_4
REMARK    4  A    between atoms: C_2  and  C_5
REMARK    5  A    between atoms: C_8  and  C_9
REMARK    6  A    between atoms: C_9  and  O_11
REMARK    7  A    between atoms: O_11  and  C_12
REMARK    8  A    between atoms: C_12  and  C_13
REMARK    9  A    between atoms: C_13  and  C_14
REMARK   10  A    between atoms: C_14  and  C_15
REMARK   11  A    between atoms: C_15  and  N_16
REMARK   12  A    between atoms: C_19  and  O_20
REMARK   13  A    between atoms: O_20  and  C_21
REMARK   14  A    between atoms: C_21  and  C_22
REMARK                            x       y       z     vdW  Elec       q    Type
REMARK                         _______ _______ _______ _____ _____    ______ ____
ROOT
ATOM      1  C   UNL     1       1.987   6.256  20.633  0.00  0.00    +0.000 C 
ENDROOT
BRANCH   1   2
ATOM      2  C   UNL     1       1.058   7.383  21.096  0.00  0.00    +0.000 C 
BRANCH   2   3
ATOM      3  C   UNL     1       1.352   8.693  20.375  0.00  0.00    +0.000 C 
BRANCH   3   4
ATOM      4  O   UNL     1       0.149   9.446  20.173  0.00  0.00    +0.000 OA
BRANCH   4   5
ATOM      5  C   UNL     1       0.285  10.782  20.355  0.00  0.00    +0.000 C 
ATOM      6  O   UNL     1       1.183  11.481  19.910  0.00  0.00    +0.000 OA
BRANCH   5  10
ATOM      7  C   UNL     1      -2.926  12.499  22.674  0.00  0.00    +0.000 A 
ATOM      8  C   UNL     1      -2.776  12.742  21.299  0.00  0.00    +0.000 A 
ATOM      9  C   UNL     1      -1.742  12.156  20.565  0.00  0.00    +0.000 A 
ATOM     10  C   UNL     1      -0.819  11.316  21.188  0.00  0.00    +0.000 A 
ATOM     11  C   UNL     1      -0.963  11.031  22.548  0.00  0.00    +0.000 A 
ATOM     12  C   UNL     1      -2.006  11.615  23.281  0.00  0.00    +0.000 A 
BRANCH   7  14
ATOM     13  C   UNL     1      -4.401  12.388  24.777  0.00  0.00    +0.000 C 
ATOM     14  C   UNL     1      -4.014  13.191  23.514  0.00  0.00    +0.000 C 
ATOM     15  C   UNL     1      -5.291  13.360  22.662  0.00  0.00    +0.000 C 
ATOM     16  C   UNL     1      -3.541  14.582  23.983  0.00  0.00    +0.000 C 
ENDBRANCH   7  14
ENDBRANCH   5  10
ENDBRANCH   4   5
ENDBRANCH   3   4
ENDBRANCH   2   3
ENDBRANCH   1   2
BRANCH   1  17
ATOM     17  C   UNL     1       1.292   4.891  20.685  0.00  0.00    +0.000 C 
BRANCH  17  18
ATOM     18  N   UNL     1       1.637   4.027  19.543  0.00  0.00    +0.000 NA
ATOM     19  C   UNL     1       2.168   4.800  18.409  0.00  0.00    +0.000 C 
ATOM     20  C   UNL     1       2.468   3.894  17.217  0.00  0.00    +0.000 C 
ATOM     21  C   UNL     1       3.461   2.801  17.605  0.00  0.00    +0.000 C 
ATOM     22  C   UNL     1       2.890   2.036  18.802  0.00  0.00    +0.000 C 
ATOM     23  C   UNL     1       2.587   2.986  19.961  0.00  0.00    +0.000 C 
BRANCH  21  24
ATOM     24  O   UNL     1       4.710   3.437  17.907  0.00  0.00    +0.000 OA
BRANCH  24  25
ATOM     25  C   UNL     1       5.233   4.218  16.838  0.00  0.00    +0.000 C 
BRANCH  25  26
ATOM     26  C   UNL     1       6.201   5.226  17.396  0.00  0.00    +0.000 A 
ATOM     27  C   UNL     1       6.960   4.928  18.537  0.00  0.00    +0.000 A 
ATOM     28  C   UNL     1       7.864   5.858  19.049  0.00  0.00    +0.000 A 
ATOM     29  C   UNL     1       8.018   7.096  18.428  0.00  0.00    +0.000 A 
ATOM     30  C   UNL     1       7.265   7.403  17.296  0.00  0.00    +0.000 A 
ATOM     31  C   UNL     1       6.361   6.473  16.781  0.00  0.00    +0.000 A 
ENDBRANCH  25  26
ENDBRANCH  24  25
ENDBRANCH  21  24
ENDBRANCH  17  18
ENDBRANCH   1  17
TORSDOF 11
ENDMDL
MODEL 8
REMARK VINA RESULT:      -7.1      5.469     10.043
REMARK  Name = 
REMARK  14 active torsions:
REMARK  status: ('A' for Active; 'I' for Inactive)
REMARK    1  A    between atoms: C_1  and  C_2
REMARK    2  A    between atoms: C_2  and  C_3
REMARK    3  A    between atoms: C_2  and  C_4
REMARK    4  A    between atoms: C_2  and  C_5
REMARK    5  A    between atoms: C_8  and  C_9
REMARK    6  A    between atoms: C_9  and  O_11
REMARK    7  A    between atoms: O_11  and  C_12
REMARK    8  A    between atoms: C_12  and  C_13
REMARK    9  A    between atoms: C_13  and  C_14
REMARK   10  A    between atoms: C_14  and  C_15
REMARK   11  A    between atoms: C_15  and  N_16
REMARK   12  A    between atoms: C_19  and  O_20
REMARK   13  A    between atoms: O_20  and  C_21
REMARK   14  A    between atoms: C_21  and  C_22
REMARK                            x       y       z     vdW  Elec       q    Type
REMARK                         _______ _______ _______ _____ _____    ______ ____
ROOT
ATOM      1  C   UNL     1       8.331   8.796  18.011  0.00  0.00    +0.000 C 
ENDROOT
BRANCH   1   2
ATOM      2  C   UNL     1       8.395  10.327  18.000  0.00  0.00    +0.000 C 
BRANCH   2   3
ATOM      3  C   UNL     1       9.787  10.840  18.348  0.00  0.00    +0.000 C 
BRANCH   3   4
ATOM      4  O   UNL     1       9.977  12.174  17.859  0.00  0.00    +0.000 OA
BRANCH   4   5
ATOM      5  C   UNL     1       9.906  13.137  18.810  0.00  0.00    +0.000 C 
ATOM      6  O   UNL     1      10.795  13.446  19.589  0.00  0.00    +0.000 OA
BRANCH   5  10
ATOM      7  C   UNL     1       6.006  14.983  18.957  0.00  0.00    +0.000 A 
ATOM      8  C   UNL     1       6.847  14.905  20.079  0.00  0.00    +0.000 A 
ATOM      9  C   UNL     1       8.114  14.324  20.001  0.00  0.00    +0.000 A 
ATOM     10  C   UNL     1       8.576  13.792  18.797  0.00  0.00    +0.000 A 
ATOM     11  C   UNL     1       7.774  13.884  17.657  0.00  0.00    +0.000 A 
ATOM     12  C   UNL     1       6.506  14.475  17.737  0.00  0.00    +0.000 A 
BRANCH   7  14
ATOM     13  C   UNL     1       3.660  14.743  19.980  0.00  0.00    +0.000 C 
ATOM     14  C   UNL     1       4.580  15.554  19.040  0.00  0.00    +0.000 C 
ATOM     15  C   UNL     1       3.938  15.541  17.635  0.00  0.00    +0.000 C 
ATOM     16  C   UNL     1       4.602  17.005  19.562  0.00  0.00    +0.000 C 
ENDBRANCH   7  14
ENDBRANCH   5  10
ENDBRANCH   4   5
ENDBRANCH   3   4
ENDBRANCH   2   3
ENDBRANCH   1   2
BRANCH   1  17
ATOM     17  C   UNL     1       6.938   8.284  17.626  0.00  0.00    +0.000 C 
BRANCH  17  18
ATOM     18  N   UNL     1       6.973   6.962  16.976  0.00  0.00    +0.000 NA
ATOM     19  C   UNL     1       7.322   5.891  17.924  0.00  0.00    +0.000 C 
ATOM     20  C   UNL     1       7.405   4.540  17.219  0.00  0.00    +0.000 C 
ATOM     21  C   UNL     1       6.084   4.206  16.530  0.00  0.00    +0.000 C 
ATOM     22  C   UNL     1       5.739   5.351  15.574  0.00  0.00    +0.000 C 
ATOM     23  C   UNL     1       5.687   6.685  16.320  0.00  0.00    +0.000 C 
BRANCH  21  24
ATOM     24  O   UNL     1       5.094   4.028  17.552  0.00  0.00    +0.000 OA
BRANCH  24  25
ATOM     25  C   UNL     1       3.800   3.708  17.052  0.00  0.00    +0.000 C 
BRANCH  25  26
ATOM     26  C   UNL     1       2.807   3.780  18.180  0.00  0.00    +0.000 A 
ATOM     27  C   UNL     1       2.882   4.811  19.128  0.00  0.00    +0.000 A 
ATOM     28  C   UNL     1       1.956   4.884  20.168  0.00  0.00    +0.000 A 
ATOM     29  C   UNL     1       0.949   3.927  20.274  0.00  0.00    +0.000 A 
ATOM     30  C   UNL     1       0.870   2.896  19.339  0.00  0.00    +0.000 A 
ATOM     31  C   UNL     1       1.793   2.822  18.296  0.00  0.00    +0.000 A 
ENDBRANCH  25  26
ENDBRANCH  24  25
ENDBRANCH  21  24
ENDBRANCH  17  18
ENDBRANCH   1  17
TORSDOF 11
ENDMDL
MODEL 9
REMARK VINA RESULT:      -7.0      2.212      9.940
REMARK  Name = 
REMARK  14 active torsions:
REMARK  status: ('A' for Active; 'I' for Inactive)
REMARK    1  A    between atoms: C_1  and  C_2
REMARK    2  A    between atoms: C_2  and  C_3
REMARK    3  A    between atoms: C_2  and  C_4
REMARK    4  A    between atoms: C_2  and  C_5
REMARK    5  A    between atoms: C_8  and  C_9
REMARK    6  A    between atoms: C_9  and  O_11
REMARK    7  A    between atoms: O_11  and  C_12
REMARK    8  A    between atoms: C_12  and  C_13
REMARK    9  A    between atoms: C_13  and  C_14
REMARK   10  A    between atoms: C_14  and  C_15
REMARK   11  A    between atoms: C_15  and  N_16
REMARK   12  A    between atoms: C_19  and  O_20
REMARK   13  A    between atoms: O_20  and  C_21
REMARK   14  A    between atoms: C_21  and  C_22
REMARK                            x       y       z     vdW  Elec       q    Type
REMARK                         _______ _______ _______ _____ _____    ______ ____
ROOT
ATOM      1  C   UNL     1       1.309   5.938  20.577  0.00  0.00    +0.000 C 
ENDROOT
BRANCH   1   2
ATOM      2  C   UNL     1       2.303   7.038  20.190  0.00  0.00    +0.000 C 
BRANCH   2   3
ATOM      3  C   UNL     1       1.628   8.399  20.076  0.00  0.00    +0.000 C 
BRANCH   3   4
ATOM      4  O   UNL     1       0.565   8.524  21.029  0.00  0.00    +0.000 OA
BRANCH   4   5
ATOM      5  C   UNL     1       0.772   9.465  21.982  0.00  0.00    +0.000 C 
ATOM      6  O   UNL     1       1.730   9.525  22.738  0.00  0.00    +0.000 OA
BRANCH   5  10
ATOM      7  C   UNL     1      -2.368  12.427  21.912  0.00  0.00    +0.000 A 
ATOM      8  C   UNL     1      -1.624  12.090  20.770  0.00  0.00    +0.000 A 
ATOM      9  C   UNL     1      -0.629  11.112  20.812  0.00  0.00    +0.000 A 
ATOM     10  C   UNL     1      -0.340  10.446  22.004  0.00  0.00    +0.000 A 
ATOM     11  C   UNL     1      -1.086  10.738  23.148  0.00  0.00    +0.000 A 
ATOM     12  C   UNL     1      -2.090  11.716  23.100  0.00  0.00    +0.000 A 
BRANCH   7  14
ATOM     13  C   UNL     1      -4.573  13.289  20.908  0.00  0.00    +0.000 C 
ATOM     14  C   UNL     1      -3.418  13.551  21.903  0.00  0.00    +0.000 C 
ATOM     15  C   UNL     1      -2.746  14.880  21.494  0.00  0.00    +0.000 C 
ATOM     16  C   UNL     1      -4.049  13.722  23.300  0.00  0.00    +0.000 C 
ENDBRANCH   7  14
ENDBRANCH   5  10
ENDBRANCH   4   5
ENDBRANCH   3   4
ENDBRANCH   2   3
ENDBRANCH   1   2
BRANCH   1  17
ATOM     17  C   UNL     1       2.026   4.662  21.035  0.00  0.00    +0.000 C 
BRANCH  17  18
ATOM     18  N   UNL     1       2.356   3.759  19.920  0.00  0.00    +0.000 NA
ATOM     19  C   UNL     1       1.776   4.219  18.648  0.00  0.00    +0.000 C 
ATOM     20  C   UNL     1       2.085   3.240  17.517  0.00  0.00    +0.000 C 
ATOM     21  C   UNL     1       3.592   3.055  17.357  0.00  0.00    +0.000 C 
ATOM     22  C   UNL     1       4.165   2.604  18.703  0.00  0.00    +0.000 C 
ATOM     23  C   UNL     1       3.814   3.602  19.807  0.00  0.00    +0.000 C 
BRANCH  21  24
ATOM     24  O   UNL     1       4.139   4.306  16.921  0.00  0.00    +0.000 OA
BRANCH  24  25
ATOM     25  C   UNL     1       5.462   4.208  16.404  0.00  0.00    +0.000 C 
BRANCH  25  26
ATOM     26  C   UNL     1       6.347   5.183  17.134  0.00  0.00    +0.000 A 
ATOM     27  C   UNL     1       6.459   6.509  16.693  0.00  0.00    +0.000 A 
ATOM     28  C   UNL     1       7.272   7.415  17.375  0.00  0.00    +0.000 A 
ATOM     29  C   UNL     1       7.981   7.004  18.502  0.00  0.00    +0.000 A 
ATOM     30  C   UNL     1       7.879   5.686  18.945  0.00  0.00    +0.000 A 
ATOM     31  C   UNL     1       7.065   4.779  18.265  0.00  0.00    +0.000 A 
ENDBRANCH  25  26
ENDBRANCH  24  25
ENDBRANCH  21  24
ENDBRANCH  17  18
ENDBRANCH   1  17
TORSDOF 11
ENDMDL
