MODEL 1
REMARK VINA RESULT:      -8.2      0.000      0.000
REMARK  Name = 
REMARK  2 active torsions:
REMARK  status: ('A' for Active; 'I' for Inactive)
REMARK    1  A    between atoms: C_4  and  C_5
REMARK    2  A    between atoms: C_11  and  C_12
REMARK                            x       y       z     vdW  Elec       q    Type
REMARK                         _______ _______ _______ _____ _____    ______ ____
ROOT
ATOM      1 BR   UNL     1       5.930   3.379  12.194  0.00  0.00    +0.000 Br
ATOM      2  C   UNL     1       5.872   3.929  13.975  0.00  0.00    +0.000 A 
ATOM      3  C   UNL     1       6.807   4.714  14.597  0.00  0.00    +0.000 A 
ATOM      4  C   UNL     1       6.370   4.876  15.947  0.00  0.00    +0.000 A 
ATOM      5  C   UNL     1       5.147   4.201  16.055  0.00  0.00    +0.000 A 
ATOM      6  O   UNL     1       4.876   3.618  14.836  0.00  0.00    +0.000 OA
ENDROOT
BRANCH   5   7
ATOM      7  C   UNL     1       4.218   4.115  17.125  0.00  0.00    +0.000 C 
ATOM      8  C   UNL     1       3.854   2.926  17.644  0.00  0.00    +0.000 C 
ATOM      9  N   UNL     1       2.988   2.973  18.756  0.00  0.00    +0.000 N 
ATOM     10  C   UNL     1       3.579   3.794  19.871  0.00  0.00    +0.000 C 
ATOM     11  C   UNL     1       3.900   5.205  19.319  0.00  0.00    +0.000 C 
ATOM     12  C   UNL     1       3.503   5.269  17.825  0.00  0.00    +0.000 C 
ATOM     13  C   UNL     1       1.981   4.981  17.739  0.00  0.00    +0.000 C 
ATOM     14  C   UNL     1       1.680   3.606  18.388  0.00  0.00    +0.000 C 
ENDBRANCH   5   7
BRANCH   4  15
ATOM     15  C   UNL     1       7.021   5.653  17.002  0.00  0.00    +0.000 A 
ATOM     16  C   UNL     1       7.226   7.030  16.839  0.00  0.00    +0.000 A 
ATOM     17  C   UNL     1       7.865   7.782  17.832  0.00  0.00    +0.000 A 
ATOM     18  C   UNL     1       8.295   7.171  19.008  0.00  0.00    +0.000 A 
ATOM     19  C   UNL     1       8.106   5.805  19.181  0.00  0.00    +0.000 A 
ATOM     20  C   UNL     1       7.492   5.052  18.177  0.00  0.00    +0.000 A 
ENDBRANCH   4  15
TORSDOF 2
ENDMDL
MODEL 2
REMARK VINA RESULT:      -8.1      0.104      1.080
REMARK  Name = 
REMARK  2 active torsions:
REMARK  status: ('A' for Active; 'I' for Inactive)
REMARK    1  A    between atoms: C_4  and  C_5
REMARK    2  A    between atoms: C_11  and  C_12
REMARK                            x       y       z     vdW  Elec       q    Type
REMARK                         _______ _______ _______ _____ _____    ______ ____
ROOT
ATOM      1 BR   UNL     1       5.866   3.369  12.189  0.00  0.00    +0.000 Br
ATOM      2  C   UNL     1       5.831   3.922  13.970  0.00  0.00    +0.000 A 
ATOM      3  C   UNL     1       6.775   4.710  14.577  0.00  0.00    +0.000 A 
ATOM      4  C   UNL     1       6.357   4.875  15.932  0.00  0.00    +0.000 A 
ATOM      5  C   UNL     1       5.136   4.199  16.058  0.00  0.00    +0.000 A 
ATOM      6  O   UNL     1       4.847   3.614  14.845  0.00  0.00    +0.000 OA
ENDROOT
BRANCH   5   7
ATOM      7  C   UNL     1       4.222   4.116  17.142  0.00  0.00    +0.000 C 
ATOM      8  C   UNL     1       3.971   2.944  17.759  0.00  0.00    +0.000 C 
ATOM      9  N   UNL     1       3.107   3.002  18.873  0.00  0.00    +0.000 N 
ATOM     10  C   UNL     1       3.622   3.963  19.911  0.00  0.00    +0.000 C 
ATOM     11  C   UNL     1       3.810   5.347  19.243  0.00  0.00    +0.000 C 
ATOM     12  C   UNL     1       3.404   5.252  17.753  0.00  0.00    +0.000 C 
ATOM     13  C   UNL     1       1.916   4.818  17.706  0.00  0.00    +0.000 C 
ATOM     14  C   UNL     1       1.745   3.480  18.468  0.00  0.00    +0.000 C 
ENDBRANCH   5   7
BRANCH   4  15
ATOM     15  C   UNL     1       7.022   5.654  16.977  0.00  0.00    +0.000 A 
ATOM     16  C   UNL     1       7.469   5.026  18.147  0.00  0.00    +0.000 A 
ATOM     17  C   UNL     1       8.089   5.762  19.163  0.00  0.00    +0.000 A 
ATOM     18  C   UNL     1       8.283   7.135  19.018  0.00  0.00    +0.000 A 
ATOM     19  C   UNL     1       7.838   7.773  17.866  0.00  0.00    +0.000 A 
ATOM     20  C   UNL     1       7.196   7.040  16.865  0.00  0.00    +0.000 A 
ENDBRANCH   4  15
TORSDOF 2
ENDMDL
MODEL 3
REMARK VINA RESULT:      -8.1      2.938      4.165
REMARK  Name = 
REMARK  2 active torsions:
REMARK  status: ('A' for Active; 'I' for Inactive)
REMARK    1  A    between atoms: C_4  and  C_5
REMARK    2  A    between atoms: C_11  and  C_12
REMARK                            x       y       z     vdW  Elec       q    Type
REMARK                         _______ _______ _______ _____ _____    ______ ____
ROOT
ATOM      1 BR   UNL     1       1.446   9.621  18.260  0.00  0.00    +0.000 Br
ATOM      2  C   UNL     1       2.356   8.006  18.051  0.00  0.00    +0.000 A 
ATOM      3  C   UNL     1       3.559   7.847  17.415  0.00  0.00    +0.000 A 
ATOM      4  C   UNL     1       3.875   6.456  17.482  0.00  0.00    +0.000 A 
ATOM      5  C   UNL     1       2.844   5.848  18.210  0.00  0.00    +0.000 A 
ATOM      6  O   UNL     1       1.921   6.819  18.531  0.00  0.00    +0.000 OA
ENDROOT
BRANCH   5   7
ATOM      7  C   UNL     1       2.686   4.514  18.671  0.00  0.00    +0.000 C 
ATOM      8  C   UNL     1       3.353   4.062  19.751  0.00  0.00    +0.000 C 
ATOM      9  N   UNL     1       3.052   2.746  20.160  0.00  0.00    +0.000 N 
ATOM     10  C   UNL     1       1.581   2.584  20.434  0.00  0.00    +0.000 C 
ATOM     11  C   UNL     1       0.801   2.994  19.160  0.00  0.00    +0.000 C 
ATOM     12  C   UNL     1       1.806   3.422  18.064  0.00  0.00    +0.000 C 
ATOM     13  C   UNL     1       2.724   2.205  17.778  0.00  0.00    +0.000 C 
ATOM     14  C   UNL     1       3.413   1.759  19.092  0.00  0.00    +0.000 C 
ENDBRANCH   5   7
BRANCH   4  15
ATOM     15  C   UNL     1       5.072   5.792  16.965  0.00  0.00    +0.000 A 
ATOM     16  C   UNL     1       6.163   5.550  17.811  0.00  0.00    +0.000 A 
ATOM     17  C   UNL     1       7.323   4.934  17.325  0.00  0.00    +0.000 A 
ATOM     18  C   UNL     1       7.401   4.538  15.991  0.00  0.00    +0.000 A 
ATOM     19  C   UNL     1       6.331   4.779  15.139  0.00  0.00    +0.000 A 
ATOM     20  C   UNL     1       5.185   5.418  15.619  0.00  0.00    +0.000 A 
ENDBRANCH   4  15
TORSDOF 2
ENDMDL
MODEL 4
REMARK VINA RESULT:      -8.0      0.647      1.901
REMARK  Name = 
REMARK  2 active torsions:
REMARK  status: ('A' for Active; 'I' for Inactive)
REMARK    1  A    between atoms: C_4  and  C_5
REMARK    2  A    between atoms: C_11  and  C_12
REMARK                            x       y       z     vdW  Elec       q    Type
REMARK                         _______ _______ _______ _____ _____    ______ ____
ROOT
ATOM      1 BR   UNL     1       5.995   3.372  12.156  0.00  0.00    +0.000 Br
ATOM      2  C   UNL     1       5.927   3.937  13.932  0.00  0.00    +0.000 A 
ATOM      3  C   UNL     1       6.868   4.715  14.556  0.00  0.00    +0.000 A 
ATOM      4  C   UNL     1       6.422   4.894  15.900  0.00  0.00    +0.000 A 
ATOM      5  C   UNL     1       5.188   4.238  16.002  0.00  0.00    +0.000 A 
ATOM      6  O   UNL     1       4.919   3.649  14.786  0.00  0.00    +0.000 OA
ENDROOT
BRANCH   5   7
ATOM      7  C   UNL     1       4.247   4.175  17.064  0.00  0.00    +0.000 C 
ATOM      8  C   UNL     1       3.540   5.258  17.441  0.00  0.00    +0.000 C 
ATOM      9  N   UNL     1       2.580   5.051  18.453  0.00  0.00    +0.000 N 
ATOM     10  C   UNL     1       1.597   3.982  18.058  0.00  0.00    +0.000 C 
ATOM     11  C   UNL     1       2.387   2.691  17.729  0.00  0.00    +0.000 C 
ATOM     12  C   UNL     1       3.899   2.958  17.921  0.00  0.00    +0.000 C 
ATOM     13  C   UNL     1       4.112   3.369  19.401  0.00  0.00    +0.000 C 
ATOM     14  C   UNL     1       3.232   4.603  19.725  0.00  0.00    +0.000 C 
ENDBRANCH   5   7
BRANCH   4  15
ATOM     15  C   UNL     1       7.073   5.670  16.955  0.00  0.00    +0.000 A 
ATOM     16  C   UNL     1       7.502   5.039  18.131  0.00  0.00    +0.000 A 
ATOM     17  C   UNL     1       8.110   5.773  19.157  0.00  0.00    +0.000 A 
ATOM     18  C   UNL     1       8.309   7.144  19.016  0.00  0.00    +0.000 A 
ATOM     19  C   UNL     1       7.883   7.786  17.860  0.00  0.00    +0.000 A 
ATOM     20  C   UNL     1       7.253   7.056  16.848  0.00  0.00    +0.000 A 
ENDBRANCH   4  15
TORSDOF 2
ENDMDL
MODEL 5
REMARK VINA RESULT:      -8.0      2.961      4.121
REMARK  Name = 
REMARK  2 active torsions:
REMARK  status: ('A' for Active; 'I' for Inactive)
REMARK    1  A    between atoms: C_4  and  C_5
REMARK    2  A    between atoms: C_11  and  C_12
REMARK                            x       y       z     vdW  Elec       q    Type
REMARK                         _______ _______ _______ _____ _____    ______ ____
ROOT
ATOM      1 BR   UNL     1       1.466   9.702  18.198  0.00  0.00    +0.000 Br
ATOM      2  C   UNL     1       2.358   8.070  18.055  0.00  0.00    +0.000 A 
ATOM      3  C   UNL     1       3.587   7.882  17.479  0.00  0.00    +0.000 A 
ATOM      4  C   UNL     1       3.877   6.488  17.580  0.00  0.00    +0.000 A 
ATOM      5  C   UNL     1       2.802   5.906  18.266  0.00  0.00    +0.000 A 
ATOM      6  O   UNL     1       1.881   6.896  18.529  0.00  0.00    +0.000 OA
ENDROOT
BRANCH   5   7
ATOM      7  C   UNL     1       2.600   4.582  18.737  0.00  0.00    +0.000 C 
ATOM      8  C   UNL     1       1.704   3.760  18.157  0.00  0.00    +0.000 C 
ATOM      9  N   UNL     1       1.652   2.444  18.662  0.00  0.00    +0.000 N 
ATOM     10  C   UNL     1       2.999   1.777  18.581  0.00  0.00    +0.000 C 
ATOM     11  C   UNL     1       4.024   2.655  19.341  0.00  0.00    +0.000 C 
ATOM     12  C   UNL     1       3.303   3.900  19.910  0.00  0.00    +0.000 C 
ATOM     13  C   UNL     1       2.195   3.394  20.871  0.00  0.00    +0.000 C 
ATOM     14  C   UNL     1       1.245   2.440  20.104  0.00  0.00    +0.000 C 
ENDBRANCH   5   7
BRANCH   4  15
ATOM     15  C   UNL     1       5.086   5.798  17.130  0.00  0.00    +0.000 A 
ATOM     16  C   UNL     1       6.121   5.528  18.036  0.00  0.00    +0.000 A 
ATOM     17  C   UNL     1       7.292   4.886  17.615  0.00  0.00    +0.000 A 
ATOM     18  C   UNL     1       7.438   4.493  16.286  0.00  0.00    +0.000 A 
ATOM     19  C   UNL     1       6.423   4.760  15.375  0.00  0.00    +0.000 A 
ATOM     20  C   UNL     1       5.267   5.425  15.791  0.00  0.00    +0.000 A 
ENDBRANCH   4  15
TORSDOF 2
ENDMDL
MODEL 6
REMARK VINA RESULT:      -8.0      2.944      4.052
REMARK  Name = 
REMARK  2 active torsions:
REMARK  status: ('A' for Active; 'I' for Inactive)
REMARK    1  A    between atoms: C_4  and  C_5
REMARK    2  A    between atoms: C_11  and  C_12
REMARK                            x       y       z     vdW  Elec       q    Type
REMARK                         _______ _______ _______ _____ _____    ______ ____
ROOT
ATOM      1 BR   UNL     1       1.483   9.735  18.173  0.00  0.00    +0.000 Br
ATOM      2  C   UNL     1       2.372   8.101  18.031  0.00  0.00    +0.000 A 
ATOM      3  C   UNL     1       3.605   7.913  17.462  0.00  0.00    +0.000 A 
ATOM      4  C   UNL     1       3.891   6.517  17.562  0.00  0.00    +0.000 A 
ATOM      5  C   UNL     1       2.810   5.936  18.240  0.00  0.00    +0.000 A 
ATOM      6  O   UNL     1       1.890   6.928  18.501  0.00  0.00    +0.000 OA
ENDROOT
BRANCH   5   7
ATOM      7  C   UNL     1       2.604   4.612  18.708  0.00  0.00    +0.000 C 
ATOM      8  C   UNL     1       1.721   3.787  18.111  0.00  0.00    +0.000 C 
ATOM      9  N   UNL     1       1.663   2.471  18.614  0.00  0.00    +0.000 N 
ATOM     10  C   UNL     1       3.013   1.808  18.559  0.00  0.00    +0.000 C 
ATOM     11  C   UNL     1       4.020   2.689  19.339  0.00  0.00    +0.000 C 
ATOM     12  C   UNL     1       3.285   3.931  19.894  0.00  0.00    +0.000 C 
ATOM     13  C   UNL     1       2.160   3.422  20.833  0.00  0.00    +0.000 C 
ATOM     14  C   UNL     1       1.228   2.466  20.048  0.00  0.00    +0.000 C 
ENDBRANCH   5   7
BRANCH   4  15
ATOM     15  C   UNL     1       5.100   5.826  17.117  0.00  0.00    +0.000 A 
ATOM     16  C   UNL     1       5.185   5.325  15.811  0.00  0.00    +0.000 A 
ATOM     17  C   UNL     1       6.329   4.643  15.378  0.00  0.00    +0.000 A 
ATOM     18  C   UNL     1       7.409   4.466  16.240  0.00  0.00    +0.000 A 
ATOM     19  C   UNL     1       7.337   4.950  17.541  0.00  0.00    +0.000 A 
ATOM     20  C   UNL     1       6.184   5.606  17.979  0.00  0.00    +0.000 A 
ENDBRANCH   4  15
TORSDOF 2
ENDMDL
MODEL 7
REMARK VINA RESULT:      -7.8      3.085      4.246
REMARK  Name = 
REMARK  2 active torsions:
REMARK  status: ('A' for Active; 'I' for Inactive)
REMARK    1  A    between atoms: C_4  and  C_5
REMARK    2  A    between atoms: C_11  and  C_12
REMARK                            x       y       z     vdW  Elec       q    Type
REMARK                         _______ _______ _______ _____ _____    ______ ____
ROOT
ATOM      1 BR   UNL     1       1.333   9.858  18.203  0.00  0.00    +0.000 Br
ATOM      2  C   UNL     1       2.264   8.243  18.146  0.00  0.00    +0.000 A 
ATOM      3  C   UNL     1       3.459   8.035  17.508  0.00  0.00    +0.000 A 
ATOM      4  C   UNL     1       3.799   6.664  17.715  0.00  0.00    +0.000 A 
ATOM      5  C   UNL     1       2.790   6.120  18.521  0.00  0.00    +0.000 A 
ATOM      6  O   UNL     1       1.857   7.107  18.756  0.00  0.00    +0.000 OA
ENDROOT
BRANCH   5   7
ATOM      7  C   UNL     1       2.661   4.840  19.122  0.00  0.00    +0.000 C 
ATOM      8  C   UNL     1       2.714   4.685  20.460  0.00  0.00    +0.000 C 
ATOM      9  N   UNL     1       2.494   3.378  20.942  0.00  0.00    +0.000 N 
ATOM     10  C   UNL     1       1.166   2.844  20.475  0.00  0.00    +0.000 C 
ATOM     11  C   UNL     1       1.132   2.910  18.928  0.00  0.00    +0.000 C 
ATOM     12  C   UNL     1       2.467   3.500  18.415  0.00  0.00    +0.000 C 
ATOM     13  C   UNL     1       3.603   2.562  18.898  0.00  0.00    +0.000 C 
ATOM     14  C   UNL     1       3.548   2.439  20.442  0.00  0.00    +0.000 C 
ENDBRANCH   5   7
BRANCH   4  15
ATOM     15  C   UNL     1       4.997   5.966  17.247  0.00  0.00    +0.000 A 
ATOM     16  C   UNL     1       5.161   5.684  15.884  0.00  0.00    +0.000 A 
ATOM     17  C   UNL     1       6.293   5.000  15.425  0.00  0.00    +0.000 A 
ATOM     18  C   UNL     1       7.283   4.601  16.321  0.00  0.00    +0.000 A 
ATOM     19  C   UNL     1       7.131   4.867  17.677  0.00  0.00    +0.000 A 
ATOM     20  C   UNL     1       5.988   5.526  18.135  0.00  0.00    +0.000 A 
ENDBRANCH   4  15
TORSDOF 2
ENDMDL
MODEL 8
REMARK VINA RESULT:      -7.6      2.481      4.047
REMARK  Name = 
REMARK  2 active torsions:
REMARK  status: ('A' for Active; 'I' for Inactive)
REMARK    1  A    between atoms: C_4  and  C_5
REMARK    2  A    between atoms: C_11  and  C_12
REMARK                            x       y       z     vdW  Elec       q    Type
REMARK                         _______ _______ _______ _____ _____    ______ ____
ROOT
ATOM      1 BR   UNL     1       6.617   5.033  15.094  0.00  0.00    +0.000 Br
ATOM      2  C   UNL     1       5.284   5.318  16.367  0.00  0.00    +0.000 A 
ATOM      3  C   UNL     1       4.710   6.528  16.662  0.00  0.00    +0.000 A 
ATOM      4  C   UNL     1       3.753   6.285  17.693  0.00  0.00    +0.000 A 
ATOM      5  C   UNL     1       3.772   4.905  17.937  0.00  0.00    +0.000 A 
ATOM      6  O   UNL     1       4.729   4.342  17.122  0.00  0.00    +0.000 OA
ENDROOT
BRANCH   5   7
ATOM      7  C   UNL     1       2.963   4.093  18.775  0.00  0.00    +0.000 C 
ATOM      8  C   UNL     1       3.507   3.279  19.701  0.00  0.00    +0.000 C 
ATOM      9  N   UNL     1       2.599   2.584  20.527  0.00  0.00    +0.000 N 
ATOM     10  C   UNL     1       1.678   3.535  21.243  0.00  0.00    +0.000 C 
ATOM     11  C   UNL     1       0.957   4.405  20.184  0.00  0.00    +0.000 C 
ATOM     12  C   UNL     1       1.438   3.991  18.773  0.00  0.00    +0.000 C 
ATOM     13  C   UNL     1       1.083   2.492  18.585  0.00  0.00    +0.000 C 
ATOM     14  C   UNL     1       1.738   1.662  19.718  0.00  0.00    +0.000 C 
ENDBRANCH   5   7
BRANCH   4  15
ATOM     15  C   UNL     1       2.866   7.259  18.328  0.00  0.00    +0.000 A 
ATOM     16  C   UNL     1       2.320   8.309  17.576  0.00  0.00    +0.000 A 
ATOM     17  C   UNL     1       1.485   9.260  18.174  0.00  0.00    +0.000 A 
ATOM     18  C   UNL     1       1.174   9.168  19.529  0.00  0.00    +0.000 A 
ATOM     19  C   UNL     1       1.714   8.138  20.290  0.00  0.00    +0.000 A 
ATOM     20  C   UNL     1       2.568   7.205  19.696  0.00  0.00    +0.000 A 
ENDBRANCH   4  15
TORSDOF 2
ENDMDL
MODEL 9
REMARK VINA RESULT:      -7.5      2.471      4.174
REMARK  Name = 
REMARK  2 active torsions:
REMARK  status: ('A' for Active; 'I' for Inactive)
REMARK    1  A    between atoms: C_4  and  C_5
REMARK    2  A    between atoms: C_11  and  C_12
REMARK                            x       y       z     vdW  Elec       q    Type
REMARK                         _______ _______ _______ _____ _____    ______ ____
ROOT
ATOM      1 BR   UNL     1       6.506   5.080  14.960  0.00  0.00    +0.000 Br
ATOM      2  C   UNL     1       5.212   5.358  16.275  0.00  0.00    +0.000 A 
ATOM      3  C   UNL     1       4.647   6.565  16.593  0.00  0.00    +0.000 A 
ATOM      4  C   UNL     1       3.722   6.317  17.651  0.00  0.00    +0.000 A 
ATOM      5  C   UNL     1       3.749   4.936  17.888  0.00  0.00    +0.000 A 
ATOM      6  O   UNL     1       4.681   4.378  17.041  0.00  0.00    +0.000 OA
ENDROOT
BRANCH   5   7
ATOM      7  C   UNL     1       2.966   4.119  18.746  0.00  0.00    +0.000 C 
ATOM      8  C   UNL     1       3.535   3.353  19.698  0.00  0.00    +0.000 C 
ATOM      9  N   UNL     1       2.650   2.649  20.540  0.00  0.00    +0.000 N 
ATOM     10  C   UNL     1       1.690   3.586  21.224  0.00  0.00    +0.000 C 
ATOM     11  C   UNL     1       0.943   4.398  20.137  0.00  0.00    +0.000 C 
ATOM     12  C   UNL     1       1.446   3.961  18.741  0.00  0.00    +0.000 C 
ATOM     13  C   UNL     1       1.148   2.445  18.595  0.00  0.00    +0.000 C 
ATOM     14  C   UNL     1       1.827   1.673  19.755  0.00  0.00    +0.000 C 
ENDBRANCH   5   7
BRANCH   4  15
ATOM     15  C   UNL     1       2.854   7.288  18.317  0.00  0.00    +0.000 A 
ATOM     16  C   UNL     1       2.565   7.154  19.682  0.00  0.00    +0.000 A 
ATOM     17  C   UNL     1       1.720   8.064  20.328  0.00  0.00    +0.000 A 
ATOM     18  C   UNL     1       1.164   9.129  19.622  0.00  0.00    +0.000 A 
ATOM     19  C   UNL     1       1.436   9.271  18.267  0.00  0.00    +0.000 A 
ATOM     20  C   UNL     1       2.258   8.346  17.618  0.00  0.00    +0.000 A 
ENDBRANCH   4  15
TORSDOF 2
ENDMDL
