MODEL 1
REMARK VINA RESULT:      -8.4      0.000      0.000
REMARK  Name = 
REMARK  6 active torsions:
REMARK  status: ('A' for Active; 'I' for Inactive)
REMARK    1  A    between atoms: C_1  and  C_2
REMARK    2  A    between atoms: C_5  and  N_6
REMARK    3  A    between atoms: N_6  and  C_7
REMARK    4  A    between atoms: C_7  and  C_8
REMARK    5  A    between atoms: C_7  and  C_9
REMARK    6  A    between atoms: C_7  and  C_10
REMARK                            x       y       z     vdW  Elec       q    Type
REMARK                         _______ _______ _______ _____ _____    ______ ____
ROOT
ATOM      1  C   UNL     1       1.599   9.700  18.512  0.00  0.00    +0.000 C 
ATOM      2  O   UNL     1       2.136   9.940  17.433  0.00  0.00    +0.000 OA
ATOM      3  N   UNL     1       1.662   8.502  19.195  0.00  0.00    +0.000 N 
ATOM      4  C   UNL     1       2.399   7.445  18.744  0.00  0.00    +0.000 A 
ATOM      5  N   UNL     1       3.288   7.403  17.781  0.00  0.00    +0.000 NA
ATOM      6  C   UNL     1       3.726   6.104  17.633  0.00  0.00    +0.000 A 
ATOM      7  C   UNL     1       4.664   5.566  16.715  0.00  0.00    +0.000 A 
ATOM      8  C   UNL     1       4.965   4.174  16.679  0.00  0.00    +0.000 A 
ATOM      9  C   UNL     1       4.294   3.353  17.588  0.00  0.00    +0.000 A 
ATOM     10  N   UNL     1       4.265   2.014  17.863  0.00  0.00    +0.000 N 
ATOM     11  N   UNL     1       3.413   1.675  18.864  0.00  0.00    +0.000 NA
ATOM     12  C   UNL     1       2.874   2.841  19.249  0.00  0.00    +0.000 A 
ATOM     13  C   UNL     1       3.399   3.892  18.483  0.00  0.00    +0.000 A 
ATOM     14  C   UNL     1       3.125   5.228  18.518  0.00  0.00    +0.000 A 
ATOM     15  S   UNL     1       2.078   5.973  19.568  0.00  0.00    +0.000 S 
ATOM     16  H   UNL     1       1.078   8.376  20.012  0.00  0.00    +0.000 HD
ATOM     17  H   UNL     1       4.784   1.273  17.406  0.00  0.00    +0.000 HD
ENDROOT
BRANCH   1  18
ATOM     18  C   UNL     1       0.649  10.733  19.212  0.00  0.00    +0.000 C 
ATOM     19  C   UNL     1       1.575  11.851  19.722  0.00  0.00    +0.000 C 
ATOM     20  C   UNL     1      -0.074   9.977  20.335  0.00  0.00    +0.000 C 
BRANCH  18  21
ATOM     21  N   UNL     1      -0.304  11.257  18.189  0.00  0.00    +0.000 N 
ATOM     22  H   UNL     1      -0.005  11.010  17.244  0.00  0.00    +0.000 HD
BRANCH  21  27
ATOM     23  C   UNL     1      -6.042  10.957  18.157  0.00  0.00    +0.000 C 
ATOM     24  C   UNL     1      -4.546  11.034  18.194  0.00  0.00    +0.000 A 
ATOM     25  C   UNL     1      -3.903  12.001  18.963  0.00  0.00    +0.000 A 
ATOM     26  C   UNL     1      -2.506  12.081  18.983  0.00  0.00    +0.000 A 
ATOM     27  C   UNL     1      -1.697  11.195  18.268  0.00  0.00    +0.000 A 
ATOM     28  C   UNL     1      -2.362  10.239  17.480  0.00  0.00    +0.000 A 
ATOM     29  C   UNL     1      -3.762  10.152  17.448  0.00  0.00    +0.000 A 
ENDBRANCH  21  27
ENDBRANCH  18  21
ENDBRANCH   1  18
TORSDOF 3
ENDMDL
MODEL 2
REMARK VINA RESULT:      -8.4      2.940      9.051
REMARK  Name = 
REMARK  6 active torsions:
REMARK  status: ('A' for Active; 'I' for Inactive)
REMARK    1  A    between atoms: C_1  and  C_2
REMARK    2  A    between atoms: C_5  and  N_6
REMARK    3  A    between atoms: N_6  and  C_7
REMARK    4  A    between atoms: C_7  and  C_8
REMARK    5  A    between atoms: C_7  and  C_9
REMARK    6  A    between atoms: C_7  and  C_10
REMARK                            x       y       z     vdW  Elec       q    Type
REMARK                         _______ _______ _______ _____ _____    ______ ____
ROOT
ATOM      1  C   UNL     1       2.267   5.753  20.047  0.00  0.00    +0.000 C 
ATOM      2  O   UNL     1       1.789   5.353  21.106  0.00  0.00    +0.000 OA
ATOM      3  N   UNL     1       2.156   7.034  19.545  0.00  0.00    +0.000 N 
ATOM      4  C   UNL     1       1.522   8.031  20.229  0.00  0.00    +0.000 A 
ATOM      5  N   UNL     1       1.112   8.053  21.474  0.00  0.00    +0.000 NA
ATOM      6  C   UNL     1       0.462   9.247  21.709  0.00  0.00    +0.000 A 
ATOM      7  C   UNL     1      -0.166   9.715  22.892  0.00  0.00    +0.000 A 
ATOM      8  C   UNL     1      -0.833  10.973  22.939  0.00  0.00    +0.000 A 
ATOM      9  C   UNL     1      -0.847  11.732  21.766  0.00  0.00    +0.000 A 
ATOM     10  N   UNL     1      -1.377  12.932  21.382  0.00  0.00    +0.000 N 
ATOM     11  N   UNL     1      -1.129  13.255  20.087  0.00  0.00    +0.000 NA
ATOM     12  C   UNL     1      -0.411  12.222  19.619  0.00  0.00    +0.000 A 
ATOM     13  C   UNL     1      -0.220  11.270  20.632  0.00  0.00    +0.000 A 
ATOM     14  C   UNL     1       0.426  10.070  20.599  0.00  0.00    +0.000 A 
ATOM     15  S   UNL     1       1.224   9.437  19.288  0.00  0.00    +0.000 S 
ATOM     16  H   UNL     1       2.482   7.218  18.604  0.00  0.00    +0.000 HD
ATOM     17  H   UNL     1      -1.925  13.578  21.938  0.00  0.00    +0.000 HD
ENDROOT
BRANCH   1  18
ATOM     18  C   UNL     1       2.995   4.785  19.050  0.00  0.00    +0.000 C 
ATOM     19  C   UNL     1       1.992   4.557  17.905  0.00  0.00    +0.000 C 
ATOM     20  C   UNL     1       3.327   3.510  19.836  0.00  0.00    +0.000 C 
BRANCH  18  21
ATOM     21  N   UNL     1       4.224   5.470  18.551  0.00  0.00    +0.000 N 
ATOM     22  H   UNL     1       4.912   5.587  19.297  0.00  0.00    +0.000 HD
BRANCH  21  27
ATOM     23  C   UNL     1       6.664   4.474  13.444  0.00  0.00    +0.000 C 
ATOM     24  C   UNL     1       6.052   4.724  14.789  0.00  0.00    +0.000 A 
ATOM     25  C   UNL     1       5.993   3.711  15.742  0.00  0.00    +0.000 A 
ATOM     26  C   UNL     1       5.405   3.942  16.992  0.00  0.00    +0.000 A 
ATOM     27  C   UNL     1       4.882   5.186  17.351  0.00  0.00    +0.000 A 
ATOM     28  C   UNL     1       4.930   6.191  16.370  0.00  0.00    +0.000 A 
ATOM     29  C   UNL     1       5.511   5.970  15.113  0.00  0.00    +0.000 A 
ENDBRANCH  21  27
ENDBRANCH  18  21
ENDBRANCH   1  18
TORSDOF 3
ENDMDL
MODEL 3
REMARK VINA RESULT:      -8.1      2.938      8.793
REMARK  Name = 
REMARK  6 active torsions:
REMARK  status: ('A' for Active; 'I' for Inactive)
REMARK    1  A    between atoms: C_1  and  C_2
REMARK    2  A    between atoms: C_5  and  N_6
REMARK    3  A    between atoms: N_6  and  C_7
REMARK    4  A    between atoms: C_7  and  C_8
REMARK    5  A    between atoms: C_7  and  C_9
REMARK    6  A    between atoms: C_7  and  C_10
REMARK                            x       y       z     vdW  Elec       q    Type
REMARK                         _______ _______ _______ _____ _____    ______ ____
ROOT
ATOM      1  C   UNL     1       3.344   4.443  19.305  0.00  0.00    +0.000 C 
ATOM      2  O   UNL     1       2.916   4.127  20.413  0.00  0.00    +0.000 OA
ATOM      3  N   UNL     1       3.177   5.670  18.696  0.00  0.00    +0.000 N 
ATOM      4  C   UNL     1       2.537   6.707  19.313  0.00  0.00    +0.000 A 
ATOM      5  N   UNL     1       2.170   6.830  20.565  0.00  0.00    +0.000 NA
ATOM      6  C   UNL     1       1.493   8.022  20.718  0.00  0.00    +0.000 A 
ATOM      7  C   UNL     1       0.893   8.577  21.877  0.00  0.00    +0.000 A 
ATOM      8  C   UNL     1       0.191   9.816  21.838  0.00  0.00    +0.000 A 
ATOM      9  C   UNL     1       0.112  10.466  20.603  0.00  0.00    +0.000 A 
ATOM     10  N   UNL     1      -0.467  11.612  20.134  0.00  0.00    +0.000 N 
ATOM     11  N   UNL     1      -0.274  11.824  18.808  0.00  0.00    +0.000 NA
ATOM     12  C   UNL     1       0.458  10.773  18.407  0.00  0.00    +0.000 A 
ATOM     13  C   UNL     1       0.713   9.921  19.492  0.00  0.00    +0.000 A 
ATOM     14  C   UNL     1       1.394   8.740  19.541  0.00  0.00    +0.000 A 
ATOM     15  S   UNL     1       2.164   8.014  18.262  0.00  0.00    +0.000 S 
ATOM     16  H   UNL     1       3.464   5.777  17.731  0.00  0.00    +0.000 HD
ATOM     17  H   UNL     1      -1.015  12.290  20.652  0.00  0.00    +0.000 HD
ENDROOT
BRANCH   1  18
ATOM     18  C   UNL     1       4.065   3.410  18.371  0.00  0.00    +0.000 C 
ATOM     19  C   UNL     1       3.579   3.743  16.950  0.00  0.00    +0.000 C 
ATOM     20  C   UNL     1       3.645   2.014  18.850  0.00  0.00    +0.000 C 
BRANCH  18  21
ATOM     21  N   UNL     1       5.538   3.621  18.493  0.00  0.00    +0.000 N 
ATOM     22  H   UNL     1       6.059   2.837  18.098  0.00  0.00    +0.000 HD
BRANCH  21  27
ATOM     23  C   UNL     1       8.278   8.613  17.719  0.00  0.00    +0.000 C 
ATOM     24  C   UNL     1       7.571   7.303  17.894  0.00  0.00    +0.000 A 
ATOM     25  C   UNL     1       6.613   6.884  16.974  0.00  0.00    +0.000 A 
ATOM     26  C   UNL     1       5.942   5.668  17.149  0.00  0.00    +0.000 A 
ATOM     27  C   UNL     1       6.213   4.814  18.220  0.00  0.00    +0.000 A 
ATOM     28  C   UNL     1       7.167   5.261  19.151  0.00  0.00    +0.000 A 
ATOM     29  C   UNL     1       7.842   6.480  18.989  0.00  0.00    +0.000 A 
ENDBRANCH  21  27
ENDBRANCH  18  21
ENDBRANCH   1  18
TORSDOF 3
ENDMDL
MODEL 4
REMARK VINA RESULT:      -8.1      2.895      7.911
REMARK  Name = 
REMARK  6 active torsions:
REMARK  status: ('A' for Active; 'I' for Inactive)
REMARK    1  A    between atoms: C_1  and  C_2
REMARK    2  A    between atoms: C_5  and  N_6
REMARK    3  A    between atoms: N_6  and  C_7
REMARK    4  A    between atoms: C_7  and  C_8
REMARK    5  A    between atoms: C_7  and  C_9
REMARK    6  A    between atoms: C_7  and  C_10
REMARK                            x       y       z     vdW  Elec       q    Type
REMARK                         _______ _______ _______ _____ _____    ______ ____
ROOT
ATOM      1  C   UNL     1       5.013   5.890  16.664  0.00  0.00    +0.000 C 
ATOM      2  O   UNL     1       5.145   6.850  15.908  0.00  0.00    +0.000 OA
ATOM      3  N   UNL     1       4.165   5.832  17.752  0.00  0.00    +0.000 N 
ATOM      4  C   UNL     1       3.325   6.858  18.075  0.00  0.00    +0.000 A 
ATOM      5  N   UNL     1       3.007   7.923  17.379  0.00  0.00    +0.000 NA
ATOM      6  C   UNL     1       2.173   8.719  18.136  0.00  0.00    +0.000 A 
ATOM      7  C   UNL     1       1.590   9.973  17.818  0.00  0.00    +0.000 A 
ATOM      8  C   UNL     1       0.779  10.680  18.751  0.00  0.00    +0.000 A 
ATOM      9  C   UNL     1       0.581  10.088  20.002  0.00  0.00    +0.000 A 
ATOM     10  N   UNL     1      -0.076  10.424  21.152  0.00  0.00    +0.000 N 
ATOM     11  N   UNL     1       0.033   9.501  22.140  0.00  0.00    +0.000 NA
ATOM     12  C   UNL     1       0.791   8.531  21.605  0.00  0.00    +0.000 A 
ATOM     13  C   UNL     1       1.141   8.865  20.288  0.00  0.00    +0.000 A 
ATOM     14  C   UNL     1       1.907   8.189  19.384  0.00  0.00    +0.000 A 
ATOM     15  S   UNL     1       2.609   6.705  19.630  0.00  0.00    +0.000 S 
ATOM     16  H   UNL     1       4.231   5.038  18.377  0.00  0.00    +0.000 HD
ATOM     17  H   UNL     1      -0.608  11.266  21.342  0.00  0.00    +0.000 HD
ENDROOT
BRANCH   1  18
ATOM     18  C   UNL     1       5.908   4.608  16.539  0.00  0.00    +0.000 C 
ATOM     19  C   UNL     1       6.901   4.694  17.711  0.00  0.00    +0.000 C 
ATOM     20  C   UNL     1       6.580   4.673  15.161  0.00  0.00    +0.000 C 
BRANCH  18  21
ATOM     21  N   UNL     1       5.027   3.411  16.674  0.00  0.00    +0.000 N 
ATOM     22  H   UNL     1       5.532   2.552  16.450  0.00  0.00    +0.000 HD
BRANCH  21  27
ATOM     23  C   UNL     1       1.168   2.676  20.868  0.00  0.00    +0.000 C 
ATOM     24  C   UNL     1       2.189   2.844  19.783  0.00  0.00    +0.000 A 
ATOM     25  C   UNL     1       3.548   2.866  20.083  0.00  0.00    +0.000 A 
ATOM     26  C   UNL     1       4.498   3.039  19.070  0.00  0.00    +0.000 A 
ATOM     27  C   UNL     1       4.140   3.169  17.726  0.00  0.00    +0.000 A 
ATOM     28  C   UNL     1       2.763   3.167  17.443  0.00  0.00    +0.000 A 
ATOM     29  C   UNL     1       1.802   2.999  18.451  0.00  0.00    +0.000 A 
ENDBRANCH  21  27
ENDBRANCH  18  21
ENDBRANCH   1  18
TORSDOF 3
ENDMDL
MODEL 5
REMARK VINA RESULT:      -7.9      0.956      1.486
REMARK  Name = 
REMARK  6 active torsions:
REMARK  status: ('A' for Active; 'I' for Inactive)
REMARK    1  A    between atoms: C_1  and  C_2
REMARK    2  A    between atoms: C_5  and  N_6
REMARK    3  A    between atoms: N_6  and  C_7
REMARK    4  A    between atoms: C_7  and  C_8
REMARK    5  A    between atoms: C_7  and  C_9
REMARK    6  A    between atoms: C_7  and  C_10
REMARK                            x       y       z     vdW  Elec       q    Type
REMARK                         _______ _______ _______ _____ _____    ______ ____
ROOT
ATOM      1  C   UNL     1       1.512   9.658  19.058  0.00  0.00    +0.000 C 
ATOM      2  O   UNL     1       1.958   9.968  17.956  0.00  0.00    +0.000 OA
ATOM      3  N   UNL     1       1.651   8.426  19.666  0.00  0.00    +0.000 N 
ATOM      4  C   UNL     1       2.369   7.412  19.100  0.00  0.00    +0.000 A 
ATOM      5  N   UNL     1       3.180   7.443  18.070  0.00  0.00    +0.000 NA
ATOM      6  C   UNL     1       3.629   6.164  17.816  0.00  0.00    +0.000 A 
ATOM      7  C   UNL     1       4.501   5.698  16.799  0.00  0.00    +0.000 A 
ATOM      8  C   UNL     1       4.823   4.318  16.661  0.00  0.00    +0.000 A 
ATOM      9  C   UNL     1       4.241   3.433  17.573  0.00  0.00    +0.000 A 
ATOM     10  N   UNL     1       4.258   2.081  17.773  0.00  0.00    +0.000 N 
ATOM     11  N   UNL     1       3.496   1.668  18.817  0.00  0.00    +0.000 NA
ATOM     12  C   UNL     1       2.967   2.800  19.308  0.00  0.00    +0.000 A 
ATOM     13  C   UNL     1       3.411   3.902  18.564  0.00  0.00    +0.000 A 
ATOM     14  C   UNL     1       3.116   5.228  18.695  0.00  0.00    +0.000 A 
ATOM     15  S   UNL     1       2.142   5.890  19.864  0.00  0.00    +0.000 S 
ATOM     16  H   UNL     1       1.136   8.243  20.518  0.00  0.00    +0.000 HD
ATOM     17  H   UNL     1       4.754   1.378  17.237  0.00  0.00    +0.000 HD
ENDROOT
BRANCH   1  18
ATOM     18  C   UNL     1       0.602  10.630  19.887  0.00  0.00    +0.000 C 
ATOM     19  C   UNL     1       0.859  12.026  19.294  0.00  0.00    +0.000 C 
ATOM     20  C   UNL     1       1.036  10.497  21.353  0.00  0.00    +0.000 C 
BRANCH  18  21
ATOM     21  N   UNL     1      -0.820  10.220  19.687  0.00  0.00    +0.000 N 
ATOM     22  H   UNL     1      -1.397  10.479  20.489  0.00  0.00    +0.000 HD
BRANCH  21  27
ATOM     23  C   UNL     1      -4.145  10.910  15.051  0.00  0.00    +0.000 C 
ATOM     24  C   UNL     1      -3.254  10.734  16.244  0.00  0.00    +0.000 A 
ATOM     25  C   UNL     1      -2.209   9.815  16.220  0.00  0.00    +0.000 A 
ATOM     26  C   UNL     1      -1.389   9.641  17.341  0.00  0.00    +0.000 A 
ATOM     27  C   UNL     1      -1.556  10.387  18.510  0.00  0.00    +0.000 A 
ATOM     28  C   UNL     1      -2.628  11.295  18.525  0.00  0.00    +0.000 A 
ATOM     29  C   UNL     1      -3.460  11.474  17.410  0.00  0.00    +0.000 A 
ENDBRANCH  21  27
ENDBRANCH  18  21
ENDBRANCH   1  18
TORSDOF 3
ENDMDL
MODEL 6
REMARK VINA RESULT:      -7.9      2.795      8.928
REMARK  Name = 
REMARK  6 active torsions:
REMARK  status: ('A' for Active; 'I' for Inactive)
REMARK    1  A    between atoms: C_1  and  C_2
REMARK    2  A    between atoms: C_5  and  N_6
REMARK    3  A    between atoms: N_6  and  C_7
REMARK    4  A    between atoms: C_7  and  C_8
REMARK    5  A    between atoms: C_7  and  C_9
REMARK    6  A    between atoms: C_7  and  C_10
REMARK                            x       y       z     vdW  Elec       q    Type
REMARK                         _______ _______ _______ _____ _____    ______ ____
ROOT
ATOM      1  C   UNL     1       2.754   5.453  20.091  0.00  0.00    +0.000 C 
ATOM      2  O   UNL     1       2.247   5.076  21.145  0.00  0.00    +0.000 OA
ATOM      3  N   UNL     1       2.590   6.699  19.518  0.00  0.00    +0.000 N 
ATOM      4  C   UNL     1       1.861   7.685  20.116  0.00  0.00    +0.000 A 
ATOM      5  N   UNL     1       1.384   7.741  21.336  0.00  0.00    +0.000 NA
ATOM      6  C   UNL     1       0.650   8.901  21.476  0.00  0.00    +0.000 A 
ATOM      7  C   UNL     1      -0.067   9.385  22.601  0.00  0.00    +0.000 A 
ATOM      8  C   UNL     1      -0.812  10.598  22.549  0.00  0.00    +0.000 A 
ATOM      9  C   UNL     1      -0.812  11.296  21.338  0.00  0.00    +0.000 A 
ATOM     10  N   UNL     1      -1.394  12.439  20.866  0.00  0.00    +0.000 N 
ATOM     11  N   UNL     1      -1.098  12.713  19.570  0.00  0.00    +0.000 NA
ATOM     12  C   UNL     1      -0.294  11.707  19.193  0.00  0.00    +0.000 A 
ATOM     13  C   UNL     1      -0.098  10.820  20.262  0.00  0.00    +0.000 A 
ATOM     14  C   UNL     1       0.623   9.664  20.324  0.00  0.00    +0.000 A 
ATOM     15  S   UNL     1       1.526   9.021  19.089  0.00  0.00    +0.000 S 
ATOM     16  H   UNL     1       2.954   6.856  18.586  0.00  0.00    +0.000 HD
ATOM     17  H   UNL     1      -2.010  13.074  21.360  0.00  0.00    +0.000 HD
ENDROOT
BRANCH   1  18
ATOM     18  C   UNL     1       3.592   4.487  19.183  0.00  0.00    +0.000 C 
ATOM     19  C   UNL     1       3.072   3.076  19.509  0.00  0.00    +0.000 C 
ATOM     20  C   UNL     1       5.065   4.698  19.556  0.00  0.00    +0.000 C 
BRANCH  18  21
ATOM     21  N   UNL     1       3.322   4.837  17.757  0.00  0.00    +0.000 N 
ATOM     22  H   UNL     1       2.669   5.620  17.685  0.00  0.00    +0.000 HD
BRANCH  21  27
ATOM     23  C   UNL     1       7.459   4.989  13.772  0.00  0.00    +0.000 C 
ATOM     24  C   UNL     1       6.364   4.968  14.795  0.00  0.00    +0.000 A 
ATOM     25  C   UNL     1       5.855   6.154  15.316  0.00  0.00    +0.000 A 
ATOM     26  C   UNL     1       4.844   6.130  16.284  0.00  0.00    +0.000 A 
ATOM     27  C   UNL     1       4.283   4.938  16.748  0.00  0.00    +0.000 A 
ATOM     28  C   UNL     1       4.823   3.750  16.229  0.00  0.00    +0.000 A 
ATOM     29  C   UNL     1       5.840   3.760  15.262  0.00  0.00    +0.000 A 
ENDBRANCH  21  27
ENDBRANCH  18  21
ENDBRANCH   1  18
TORSDOF 3
ENDMDL
MODEL 7
REMARK VINA RESULT:      -7.9      3.032      8.731
REMARK  Name = 
REMARK  6 active torsions:
REMARK  status: ('A' for Active; 'I' for Inactive)
REMARK    1  A    between atoms: C_1  and  C_2
REMARK    2  A    between atoms: C_5  and  N_6
REMARK    3  A    between atoms: N_6  and  C_7
REMARK    4  A    between atoms: C_7  and  C_8
REMARK    5  A    between atoms: C_7  and  C_9
REMARK    6  A    between atoms: C_7  and  C_10
REMARK                            x       y       z     vdW  Elec       q    Type
REMARK                         _______ _______ _______ _____ _____    ______ ____
ROOT
ATOM      1  C   UNL     1       2.986   4.321  19.264  0.00  0.00    +0.000 C 
ATOM      2  O   UNL     1       2.519   4.021  20.361  0.00  0.00    +0.000 OA
ATOM      3  N   UNL     1       2.952   5.576  18.689  0.00  0.00    +0.000 N 
ATOM      4  C   UNL     1       2.418   6.656  19.332  0.00  0.00    +0.000 A 
ATOM      5  N   UNL     1       2.056   6.781  20.586  0.00  0.00    +0.000 NA
ATOM      6  C   UNL     1       1.506   8.032  20.769  0.00  0.00    +0.000 A 
ATOM      7  C   UNL     1       0.958   8.614  21.941  0.00  0.00    +0.000 A 
ATOM      8  C   UNL     1       0.388   9.920  21.934  0.00  0.00    +0.000 A 
ATOM      9  C   UNL     1       0.386  10.608  20.718  0.00  0.00    +0.000 A 
ATOM     10  N   UNL     1      -0.067  11.821  20.279  0.00  0.00    +0.000 N 
ATOM     11  N   UNL     1       0.157  12.049  18.960  0.00  0.00    +0.000 NA
ATOM     12  C   UNL     1       0.779  10.939  18.533  0.00  0.00    +0.000 A 
ATOM     13  C   UNL     1       0.936  10.036  19.594  0.00  0.00    +0.000 A 
ATOM     14  C   UNL     1       1.491   8.790  19.613  0.00  0.00    +0.000 A 
ATOM     15  S   UNL     1       2.191   8.024  18.318  0.00  0.00    +0.000 S 
ATOM     16  H   UNL     1       3.256   5.679  17.729  0.00  0.00    +0.000 HD
ATOM     17  H   UNL     1      -0.545  12.537  20.813  0.00  0.00    +0.000 HD
ENDROOT
BRANCH   1  18
ATOM     18  C   UNL     1       3.603   3.245  18.304  0.00  0.00    +0.000 C 
ATOM     19  C   UNL     1       3.059   3.591  16.907  0.00  0.00    +0.000 C 
ATOM     20  C   UNL     1       3.140   1.876  18.820  0.00  0.00    +0.000 C 
BRANCH  18  21
ATOM     21  N   UNL     1       5.089   3.383  18.345  0.00  0.00    +0.000 N 
ATOM     22  H   UNL     1       5.544   2.668  17.774  0.00  0.00    +0.000 HD
BRANCH  21  27
ATOM     23  C   UNL     1       8.099   8.218  17.580  0.00  0.00    +0.000 C 
ATOM     24  C   UNL     1       7.303   6.968  17.804  0.00  0.00    +0.000 A 
ATOM     25  C   UNL     1       7.395   6.273  19.007  0.00  0.00    +0.000 A 
ATOM     26  C   UNL     1       6.664   5.097  19.208  0.00  0.00    +0.000 A 
ATOM     27  C   UNL     1       5.798   4.583  18.240  0.00  0.00    +0.000 A 
ATOM     28  C   UNL     1       5.733   5.284  17.024  0.00  0.00    +0.000 A 
ATOM     29  C   UNL     1       6.465   6.461  16.809  0.00  0.00    +0.000 A 
ENDBRANCH  21  27
ENDBRANCH  18  21
ENDBRANCH   1  18
TORSDOF 3
ENDMDL
MODEL 8
REMARK VINA RESULT:      -7.9      1.076      1.387
REMARK  Name = 
REMARK  6 active torsions:
REMARK  status: ('A' for Active; 'I' for Inactive)
REMARK    1  A    between atoms: C_1  and  C_2
REMARK    2  A    between atoms: C_5  and  N_6
REMARK    3  A    between atoms: N_6  and  C_7
REMARK    4  A    between atoms: C_7  and  C_8
REMARK    5  A    between atoms: C_7  and  C_9
REMARK    6  A    between atoms: C_7  and  C_10
REMARK                            x       y       z     vdW  Elec       q    Type
REMARK                         _______ _______ _______ _____ _____    ______ ____
ROOT
ATOM      1  C   UNL     1       1.406  10.070  18.714  0.00  0.00    +0.000 C 
ATOM      2  O   UNL     1       1.885  10.331  17.613  0.00  0.00    +0.000 OA
ATOM      3  N   UNL     1       1.549   8.875  19.392  0.00  0.00    +0.000 N 
ATOM      4  C   UNL     1       2.307   7.849  18.907  0.00  0.00    +0.000 A 
ATOM      5  N   UNL     1       3.153   7.843  17.906  0.00  0.00    +0.000 NA
ATOM      6  C   UNL     1       3.637   6.562  17.737  0.00  0.00    +0.000 A 
ATOM      7  C   UNL     1       4.554   6.063  16.777  0.00  0.00    +0.000 A 
ATOM      8  C   UNL     1       4.909   4.684  16.726  0.00  0.00    +0.000 A 
ATOM      9  C   UNL     1       4.313   3.837  17.662  0.00  0.00    +0.000 A 
ATOM     10  N   UNL     1       4.350   2.498  17.936  0.00  0.00    +0.000 N 
ATOM     11  N   UNL     1       3.559   2.125  18.974  0.00  0.00    +0.000 NA
ATOM     12  C   UNL     1       2.990   3.269  19.385  0.00  0.00    +0.000 A 
ATOM     13  C   UNL     1       3.438   4.340  18.597  0.00  0.00    +0.000 A 
ATOM     14  C   UNL     1       3.112   5.663  18.646  0.00  0.00    +0.000 A 
ATOM     15  S   UNL     1       2.083   6.365  19.743  0.00  0.00    +0.000 S 
ATOM     16  H   UNL     1       1.007   8.727  20.234  0.00  0.00    +0.000 HD
ATOM     17  H   UNL     1       4.878   1.778  17.456  0.00  0.00    +0.000 HD
ENDROOT
BRANCH   1  18
ATOM     18  C   UNL     1       0.447  11.064  19.457  0.00  0.00    +0.000 C 
ATOM     19  C   UNL     1       0.551  12.385  18.674  0.00  0.00    +0.000 C 
ATOM     20  C   UNL     1       0.953  11.167  20.902  0.00  0.00    +0.000 C 
BRANCH  18  21
ATOM     21  N   UNL     1      -0.938  10.513  19.389  0.00  0.00    +0.000 N 
ATOM     22  H   UNL     1      -1.489  10.793  20.202  0.00  0.00    +0.000 HD
BRANCH  21  27
ATOM     23  C   UNL     1      -3.995  10.439  14.524  0.00  0.00    +0.000 C 
ATOM     24  C   UNL     1      -3.223  10.456  15.808  0.00  0.00    +0.000 A 
ATOM     25  C   UNL     1      -3.531  11.372  16.810  0.00  0.00    +0.000 A 
ATOM     26  C   UNL     1      -2.797  11.397  18.002  0.00  0.00    +0.000 A 
ATOM     27  C   UNL     1      -1.754  10.502  18.255  0.00  0.00    +0.000 A 
ATOM     28  C   UNL     1      -1.442   9.599  17.224  0.00  0.00    +0.000 A 
ATOM     29  C   UNL     1      -2.167   9.568  16.024  0.00  0.00    +0.000 A 
ENDBRANCH  21  27
ENDBRANCH  18  21
ENDBRANCH   1  18
TORSDOF 3
ENDMDL
MODEL 9
REMARK VINA RESULT:      -7.9      1.880      2.677
REMARK  Name = 
REMARK  6 active torsions:
REMARK  status: ('A' for Active; 'I' for Inactive)
REMARK    1  A    between atoms: C_1  and  C_2
REMARK    2  A    between atoms: C_5  and  N_6
REMARK    3  A    between atoms: N_6  and  C_7
REMARK    4  A    between atoms: C_7  and  C_8
REMARK    5  A    between atoms: C_7  and  C_9
REMARK    6  A    between atoms: C_7  and  C_10
REMARK                            x       y       z     vdW  Elec       q    Type
REMARK                         _______ _______ _______ _____ _____    ______ ____
ROOT
ATOM      1  C   UNL     1       0.805   9.568  20.148  0.00  0.00    +0.000 C 
ATOM      2  O   UNL     1       0.782   8.971  21.222  0.00  0.00    +0.000 OA
ATOM      3  N   UNL     1       1.469   9.155  19.010  0.00  0.00    +0.000 N 
ATOM      4  C   UNL     1       2.148   7.973  18.953  0.00  0.00    +0.000 A 
ATOM      5  N   UNL     1       2.144   6.971  19.798  0.00  0.00    +0.000 NA
ATOM      6  C   UNL     1       3.038   6.015  19.363  0.00  0.00    +0.000 A 
ATOM      7  C   UNL     1       3.390   4.773  19.952  0.00  0.00    +0.000 A 
ATOM      8  C   UNL     1       4.378   3.923  19.376  0.00  0.00    +0.000 A 
ATOM      9  C   UNL     1       4.992   4.364  18.201  0.00  0.00    +0.000 A 
ATOM     10  N   UNL     1       5.969   3.893  17.369  0.00  0.00    +0.000 N 
ATOM     11  N   UNL     1       6.245   4.711  16.322  0.00  0.00    +0.000 NA
ATOM     12  C   UNL     1       5.412   5.751  16.486  0.00  0.00    +0.000 A 
ATOM     13  C   UNL     1       4.627   5.563  17.633  0.00  0.00    +0.000 A 
ATOM     14  C   UNL     1       3.672   6.365  18.186  0.00  0.00    +0.000 A 
ATOM     15  S   UNL     1       3.153   7.816  17.569  0.00  0.00    +0.000 S 
ATOM     16  H   UNL     1       1.522   9.788  18.222  0.00  0.00    +0.000 HD
ATOM     17  H   UNL     1       6.498   3.032  17.455  0.00  0.00    +0.000 HD
ENDROOT
BRANCH   1  18
ATOM     18  C   UNL     1       0.146  10.981  19.972  0.00  0.00    +0.000 C 
ATOM     19  C   UNL     1       0.878  11.621  18.779  0.00  0.00    +0.000 C 
ATOM     20  C   UNL     1       0.354  11.732  21.293  0.00  0.00    +0.000 C 
BRANCH  18  21
ATOM     21  N   UNL     1      -1.302  10.783  19.664  0.00  0.00    +0.000 N 
ATOM     22  H   UNL     1      -1.889  11.390  20.239  0.00  0.00    +0.000 HD
BRANCH  21  27
ATOM     23  C   UNL     1      -3.897  10.376  14.553  0.00  0.00    +0.000 C 
ATOM     24  C   UNL     1      -3.195  10.484  15.873  0.00  0.00    +0.000 A 
ATOM     25  C   UNL     1      -2.143   9.630  16.189  0.00  0.00    +0.000 A 
ATOM     26  C   UNL     1      -1.499   9.722  17.429  0.00  0.00    +0.000 A 
ATOM     27  C   UNL     1      -1.854  10.677  18.385  0.00  0.00    +0.000 A 
ATOM     28  C   UNL     1      -2.932  11.517  18.058  0.00  0.00    +0.000 A 
ATOM     29  C   UNL     1      -3.588  11.431  16.821  0.00  0.00    +0.000 A 
ENDBRANCH  21  27
ENDBRANCH  18  21
ENDBRANCH   1  18
TORSDOF 3
ENDMDL
