MODEL 1
REMARK VINA RESULT:      -7.3      0.000      0.000
REMARK  Name = 
REMARK  6 active torsions:
REMARK  status: ('A' for Active; 'I' for Inactive)
REMARK    1  A    between atoms: C_1  and  O_2
REMARK    2  A    between atoms: O_2  and  C_3
REMARK    3  A    between atoms: C_6  and  N_7
REMARK    4  A    between atoms: C_8  and  S_9
REMARK    5  A    between atoms: S_9  and  C_10
REMARK    6  A    between atoms: C_10  and  N_11
REMARK                            x       y       z     vdW  Elec       q    Type
REMARK                         _______ _______ _______ _____ _____    ______ ____
ROOT
ATOM      1  N   UNL     1       2.672   6.365  19.203  0.00  0.00    +0.000 N 
ATOM      2  C   UNL     1       2.064   5.872  20.378  0.00  0.00    +0.000 A 
ATOM      3  N   UNL     1       1.276   6.559  21.155  0.00  0.00    +0.000 NA
ATOM      4  C   UNL     1       1.063   7.842  20.761  0.00  0.00    +0.000 A 
ATOM      5  S   UNL     1       0.111   8.961  21.677  0.00  0.00    +0.000 S 
ATOM      6  C   UNL     1       0.395  10.173  20.553  0.00  0.00    +0.000 A 
ATOM      7  C   UNL     1       1.180   9.780  19.509  0.00  0.00    +0.000 A 
ATOM      8  C   UNL     1       1.582   8.439  19.630  0.00  0.00    +0.000 A 
ATOM      9  C   UNL     1       2.430   7.674  18.759  0.00  0.00    +0.000 A 
ATOM     10  O   UNL     1       2.870   8.172  17.726  0.00  0.00    +0.000 OA
ATOM     11  C   UNL     1       1.400  10.875  18.534  0.00  0.00    +0.000 C 
ATOM     12  C   UNL     1       0.907  12.119  19.331  0.00  0.00    +0.000 C 
ATOM     13  C   UNL     1      -0.042  11.589  20.456  0.00  0.00    +0.000 C 
ENDROOT
BRANCH   1  17
ATOM     14  C   UNL     1       5.381   4.289  16.704  0.00  0.00    +0.000 A 
ATOM     15  C   UNL     1       5.848   5.205  17.644  0.00  0.00    +0.000 A 
ATOM     16  C   UNL     1       4.952   5.861  18.486  0.00  0.00    +0.000 A 
ATOM     17  C   UNL     1       3.573   5.612  18.392  0.00  0.00    +0.000 A 
ATOM     18  C   UNL     1       3.103   4.727  17.417  0.00  0.00    +0.000 A 
ATOM     19  C   UNL     1       4.007   4.070  16.574  0.00  0.00    +0.000 A 
BRANCH  14  21
ATOM     20  C   UNL     1       6.198   3.929  14.531  0.00  0.00    +0.000 C 
ATOM     21  O   UNL     1       6.344   3.706  15.929  0.00  0.00    +0.000 OA
ENDBRANCH  14  21
ENDBRANCH   1  17
BRANCH   2  22
ATOM     22  S   UNL     1       2.516   4.254  20.927  0.00  0.00    +0.000 S 
BRANCH  22  23
ATOM     23  C   UNL     1       1.073   3.277  20.430  0.00  0.00    +0.000 C 
BRANCH  23  24
ATOM     24  N   UNL     1       1.224   2.333  19.259  0.00  0.00    +0.000 N 
ATOM     25  O   UNL     1       0.268   2.199  18.478  0.00  0.00    +0.000 OA
ATOM     26  O   UNL     1       2.324   1.774  19.148  0.00  0.00    +0.000 OA
ENDBRANCH  23  24
ENDBRANCH  22  23
ENDBRANCH   2  22
TORSDOF 5
ENDMDL
MODEL 2
REMARK VINA RESULT:      -7.2      1.579      1.743
REMARK  Name = 
REMARK  6 active torsions:
REMARK  status: ('A' for Active; 'I' for Inactive)
REMARK    1  A    between atoms: C_1  and  O_2
REMARK    2  A    between atoms: O_2  and  C_3
REMARK    3  A    between atoms: C_6  and  N_7
REMARK    4  A    between atoms: C_8  and  S_9
REMARK    5  A    between atoms: S_9  and  C_10
REMARK    6  A    between atoms: C_10  and  N_11
REMARK                            x       y       z     vdW  Elec       q    Type
REMARK                         _______ _______ _______ _____ _____    ______ ____
ROOT
ATOM      1  N   UNL     1       3.803   6.274  18.306  0.00  0.00    +0.000 N 
ATOM      2  C   UNL     1       3.449   5.527  19.452  0.00  0.00    +0.000 A 
ATOM      3  N   UNL     1       2.571   5.896  20.341  0.00  0.00    +0.000 NA
ATOM      4  C   UNL     1       1.990   7.101  20.102  0.00  0.00    +0.000 A 
ATOM      5  S   UNL     1       0.850   7.825  21.186  0.00  0.00    +0.000 S 
ATOM      6  C   UNL     1       0.703   9.165  20.188  0.00  0.00    +0.000 A 
ATOM      7  C   UNL     1       1.477   9.101  19.067  0.00  0.00    +0.000 A 
ATOM      8  C   UNL     1       2.234   7.918  19.017  0.00  0.00    +0.000 A 
ATOM      9  C   UNL     1       3.182   7.500  18.023  0.00  0.00    +0.000 A 
ATOM     10  O   UNL     1       3.385   8.192  17.029  0.00  0.00    +0.000 OA
ATOM     11  C   UNL     1       1.313  10.298  18.208  0.00  0.00    +0.000 C 
ATOM     12  C   UNL     1       0.570  11.280  19.162  0.00  0.00    +0.000 C 
ATOM     13  C   UNL     1      -0.106  10.407  20.272  0.00  0.00    +0.000 C 
ENDROOT
BRANCH   1  17
ATOM     14  C   UNL     1       6.765   5.267  15.459  0.00  0.00    +0.000 A 
ATOM     15  C   UNL     1       7.062   6.130  16.512  0.00  0.00    +0.000 A 
ATOM     16  C   UNL     1       6.090   6.431  17.464  0.00  0.00    +0.000 A 
ATOM     17  C   UNL     1       4.804   5.876  17.370  0.00  0.00    +0.000 A 
ATOM     18  C   UNL     1       4.495   5.048  16.287  0.00  0.00    +0.000 A 
ATOM     19  C   UNL     1       5.474   4.747  15.334  0.00  0.00    +0.000 A 
BRANCH  14  21
ATOM     20  C   UNL     1       7.385   4.867  13.228  0.00  0.00    +0.000 C 
ATOM     21  O   UNL     1       7.788   5.043  14.581  0.00  0.00    +0.000 OA
ENDBRANCH  14  21
ENDBRANCH   1  17
BRANCH   2  22
ATOM     22  S   UNL     1       4.364   4.055  19.794  0.00  0.00    +0.000 S 
BRANCH  22  23
ATOM     23  C   UNL     1       3.057   2.798  19.790  0.00  0.00    +0.000 C 
BRANCH  23  24
ATOM     24  N   UNL     1       2.170   2.694  21.009  0.00  0.00    +0.000 N 
ATOM     25  O   UNL     1       0.944   2.831  20.863  0.00  0.00    +0.000 OA
ATOM     26  O   UNL     1       2.740   2.446  22.080  0.00  0.00    +0.000 OA
ENDBRANCH  23  24
ENDBRANCH  22  23
ENDBRANCH   2  22
TORSDOF 5
ENDMDL
MODEL 3
REMARK VINA RESULT:      -7.1      1.341      1.566
REMARK  Name = 
REMARK  6 active torsions:
REMARK  status: ('A' for Active; 'I' for Inactive)
REMARK    1  A    between atoms: C_1  and  O_2
REMARK    2  A    between atoms: O_2  and  C_3
REMARK    3  A    between atoms: C_6  and  N_7
REMARK    4  A    between atoms: C_8  and  S_9
REMARK    5  A    between atoms: S_9  and  C_10
REMARK    6  A    between atoms: C_10  and  N_11
REMARK                            x       y       z     vdW  Elec       q    Type
REMARK                         _______ _______ _______ _____ _____    ______ ____
ROOT
ATOM      1  N   UNL     1       3.800   6.086  18.260  0.00  0.00    +0.000 N 
ATOM      2  C   UNL     1       3.398   5.326  19.381  0.00  0.00    +0.000 A 
ATOM      3  N   UNL     1       2.527   5.712  20.270  0.00  0.00    +0.000 NA
ATOM      4  C   UNL     1       2.005   6.948  20.058  0.00  0.00    +0.000 A 
ATOM      5  S   UNL     1       0.887   7.696  21.148  0.00  0.00    +0.000 S 
ATOM      6  C   UNL     1       0.815   9.068  20.185  0.00  0.00    +0.000 A 
ATOM      7  C   UNL     1       1.599   8.997  19.071  0.00  0.00    +0.000 A 
ATOM      8  C   UNL     1       2.300   7.782  18.998  0.00  0.00    +0.000 A 
ATOM      9  C   UNL     1       3.240   7.346  18.004  0.00  0.00    +0.000 A 
ATOM     10  O   UNL     1       3.488   8.054  17.030  0.00  0.00    +0.000 OA
ATOM     11  C   UNL     1       1.502  10.223  18.243  0.00  0.00    +0.000 C 
ATOM     12  C   UNL     1       0.793  11.213  19.215  0.00  0.00    +0.000 C 
ATOM     13  C   UNL     1       0.064  10.344  20.293  0.00  0.00    +0.000 C 
ENDROOT
BRANCH   1  17
ATOM     14  C   UNL     1       6.741   5.015  15.414  0.00  0.00    +0.000 A 
ATOM     15  C   UNL     1       7.054   5.876  16.463  0.00  0.00    +0.000 A 
ATOM     16  C   UNL     1       6.089   6.199  17.415  0.00  0.00    +0.000 A 
ATOM     17  C   UNL     1       4.793   5.666  17.325  0.00  0.00    +0.000 A 
ATOM     18  C   UNL     1       4.468   4.839  16.246  0.00  0.00    +0.000 A 
ATOM     19  C   UNL     1       5.441   4.517  15.293  0.00  0.00    +0.000 A 
BRANCH  14  21
ATOM     20  C   UNL     1       7.409   4.907  13.164  0.00  0.00    +0.000 C 
ATOM     21  O   UNL     1       7.759   4.769  14.537  0.00  0.00    +0.000 OA
ENDBRANCH  14  21
ENDBRANCH   1  17
BRANCH   2  22
ATOM     22  S   UNL     1       4.238   3.804  19.693  0.00  0.00    +0.000 S 
BRANCH  22  23
ATOM     23  C   UNL     1       2.855   2.643  19.856  0.00  0.00    +0.000 C 
BRANCH  23  24
ATOM     24  N   UNL     1       1.948   2.450  18.663  0.00  0.00    +0.000 N 
ATOM     25  O   UNL     1       0.720   2.538  18.831  0.00  0.00    +0.000 OA
ATOM     26  O   UNL     1       2.509   2.242  17.578  0.00  0.00    +0.000 OA
ENDBRANCH  23  24
ENDBRANCH  22  23
ENDBRANCH   2  22
TORSDOF 5
ENDMDL
MODEL 4
REMARK VINA RESULT:      -7.1      1.473      1.951
REMARK  Name = 
REMARK  6 active torsions:
REMARK  status: ('A' for Active; 'I' for Inactive)
REMARK    1  A    between atoms: C_1  and  O_2
REMARK    2  A    between atoms: O_2  and  C_3
REMARK    3  A    between atoms: C_6  and  N_7
REMARK    4  A    between atoms: C_8  and  S_9
REMARK    5  A    between atoms: S_9  and  C_10
REMARK    6  A    between atoms: C_10  and  N_11
REMARK                            x       y       z     vdW  Elec       q    Type
REMARK                         _______ _______ _______ _____ _____    ______ ____
ROOT
ATOM      1  N   UNL     1       3.644   6.293  18.251  0.00  0.00    +0.000 N 
ATOM      2  C   UNL     1       3.371   5.582  19.441  0.00  0.00    +0.000 A 
ATOM      3  N   UNL     1       2.565   5.984  20.382  0.00  0.00    +0.000 NA
ATOM      4  C   UNL     1       1.974   7.186  20.151  0.00  0.00    +0.000 A 
ATOM      5  S   UNL     1       0.922   7.952  21.294  0.00  0.00    +0.000 S 
ATOM      6  C   UNL     1       0.710   9.263  20.270  0.00  0.00    +0.000 A 
ATOM      7  C   UNL     1       1.398   9.159  19.097  0.00  0.00    +0.000 A 
ATOM      8  C   UNL     1       2.142   7.970  19.027  0.00  0.00    +0.000 A 
ATOM      9  C   UNL     1       3.011   7.515  17.979  0.00  0.00    +0.000 A 
ATOM     10  O   UNL     1       3.144   8.176  16.951  0.00  0.00    +0.000 OA
ATOM     11  C   UNL     1       1.178  10.332  18.217  0.00  0.00    +0.000 C 
ATOM     12  C   UNL     1       0.514  11.348  19.194  0.00  0.00    +0.000 C 
ATOM     13  C   UNL     1      -0.083  10.514  20.376  0.00  0.00    +0.000 C 
ENDROOT
BRANCH   1  17
ATOM     14  C   UNL     1       6.408   4.844  15.395  0.00  0.00    +0.000 A 
ATOM     15  C   UNL     1       5.125   4.308  15.471  0.00  0.00    +0.000 A 
ATOM     16  C   UNL     1       4.209   4.812  16.393  0.00  0.00    +0.000 A 
ATOM     17  C   UNL     1       4.570   5.859  17.256  0.00  0.00    +0.000 A 
ATOM     18  C   UNL     1       5.873   6.364  17.209  0.00  0.00    +0.000 A 
ATOM     19  C   UNL     1       6.788   5.855  16.281  0.00  0.00    +0.000 A 
BRANCH  14  21
ATOM     20  C   UNL     1       6.584   3.941  13.233  0.00  0.00    +0.000 C 
ATOM     21  O   UNL     1       7.224   4.273  14.460  0.00  0.00    +0.000 OA
ENDBRANCH  14  21
ENDBRANCH   1  17
BRANCH   2  22
ATOM     22  S   UNL     1       4.300   4.113  19.759  0.00  0.00    +0.000 S 
BRANCH  22  23
ATOM     23  C   UNL     1       3.004   2.846  19.751  0.00  0.00    +0.000 C 
BRANCH  23  24
ATOM     24  N   UNL     1       2.153   2.694  20.991  0.00  0.00    +0.000 N 
ATOM     25  O   UNL     1       2.719   2.477  22.075  0.00  0.00    +0.000 OA
ATOM     26  O   UNL     1       0.932   2.828  20.835  0.00  0.00    +0.000 OA
ENDBRANCH  23  24
ENDBRANCH  22  23
ENDBRANCH   2  22
TORSDOF 5
ENDMDL
MODEL 5
REMARK VINA RESULT:      -7.1      4.373      6.697
REMARK  Name = 
REMARK  6 active torsions:
REMARK  status: ('A' for Active; 'I' for Inactive)
REMARK    1  A    between atoms: C_1  and  O_2
REMARK    2  A    between atoms: O_2  and  C_3
REMARK    3  A    between atoms: C_6  and  N_7
REMARK    4  A    between atoms: C_8  and  S_9
REMARK    5  A    between atoms: S_9  and  C_10
REMARK    6  A    between atoms: C_10  and  N_11
REMARK                            x       y       z     vdW  Elec       q    Type
REMARK                         _______ _______ _______ _____ _____    ______ ____
ROOT
ATOM      1  N   UNL     1       5.646   5.380  17.667  0.00  0.00    +0.000 N 
ATOM      2  C   UNL     1       5.721   4.421  16.632  0.00  0.00    +0.000 A 
ATOM      3  N   UNL     1       4.876   3.445  16.457  0.00  0.00    +0.000 NA
ATOM      4  C   UNL     1       3.871   3.391  17.370  0.00  0.00    +0.000 A 
ATOM      5  S   UNL     1       2.675   2.138  17.378  0.00  0.00    +0.000 S 
ATOM      6  C   UNL     1       1.938   2.806  18.728  0.00  0.00    +0.000 A 
ATOM      7  C   UNL     1       2.549   3.936  19.184  0.00  0.00    +0.000 A 
ATOM      8  C   UNL     1       3.675   4.272  18.414  0.00  0.00    +0.000 A 
ATOM      9  C   UNL     1       4.592   5.363  18.592  0.00  0.00    +0.000 A 
ATOM     10  O   UNL     1       4.415   6.183  19.490  0.00  0.00    +0.000 OA
ATOM     11  C   UNL     1       1.863   4.500  20.372  0.00  0.00    +0.000 C 
ATOM     12  C   UNL     1       0.926   3.329  20.789  0.00  0.00    +0.000 C 
ATOM     13  C   UNL     1       0.746   2.422  19.526  0.00  0.00    +0.000 C 
ENDROOT
BRANCH   1  17
ATOM     14  C   UNL     1       8.431   8.468  18.444  0.00  0.00    +0.000 A 
ATOM     15  C   UNL     1       8.515   7.255  19.122  0.00  0.00    +0.000 A 
ATOM     16  C   UNL     1       7.614   6.230  18.837  0.00  0.00    +0.000 A 
ATOM     17  C   UNL     1       6.611   6.411  17.871  0.00  0.00    +0.000 A 
ATOM     18  C   UNL     1       6.500   7.647  17.225  0.00  0.00    +0.000 A 
ATOM     19  C   UNL     1       7.408   8.672  17.514  0.00  0.00    +0.000 A 
BRANCH  14  21
ATOM     20  C   UNL     1       9.129  10.706  18.278  0.00  0.00    +0.000 C 
ATOM     21  O   UNL     1       9.360   9.403  18.803  0.00  0.00    +0.000 OA
ENDBRANCH  14  21
ENDBRANCH   1  17
BRANCH   2  22
ATOM     22  S   UNL     1       7.143   4.445  15.583  0.00  0.00    +0.000 S 
BRANCH  22  23
ATOM     23  C   UNL     1       6.393   4.315  13.939  0.00  0.00    +0.000 C 
BRANCH  23  24
ATOM     24  N   UNL     1       7.254   4.634  12.739  0.00  0.00    +0.000 N 
ATOM     25  O   UNL     1       7.138   3.930  11.721  0.00  0.00    +0.000 OA
ATOM     26  O   UNL     1       8.008   5.610  12.852  0.00  0.00    +0.000 OA
ENDBRANCH  23  24
ENDBRANCH  22  23
ENDBRANCH   2  22
TORSDOF 5
ENDMDL
MODEL 6
REMARK VINA RESULT:      -7.0      4.331      6.724
REMARK  Name = 
REMARK  6 active torsions:
REMARK  status: ('A' for Active; 'I' for Inactive)
REMARK    1  A    between atoms: C_1  and  O_2
REMARK    2  A    between atoms: O_2  and  C_3
REMARK    3  A    between atoms: C_6  and  N_7
REMARK    4  A    between atoms: C_8  and  S_9
REMARK    5  A    between atoms: S_9  and  C_10
REMARK    6  A    between atoms: C_10  and  N_11
REMARK                            x       y       z     vdW  Elec       q    Type
REMARK                         _______ _______ _______ _____ _____    ______ ____
ROOT
ATOM      1  N   UNL     1       5.534   5.455  17.729  0.00  0.00    +0.000 N 
ATOM      2  C   UNL     1       5.678   4.485  16.712  0.00  0.00    +0.000 A 
ATOM      3  N   UNL     1       4.888   3.463  16.538  0.00  0.00    +0.000 NA
ATOM      4  C   UNL     1       3.872   3.369  17.435  0.00  0.00    +0.000 A 
ATOM      5  S   UNL     1       2.744   2.055  17.444  0.00  0.00    +0.000 S 
ATOM      6  C   UNL     1       1.948   2.704  18.770  0.00  0.00    +0.000 A 
ATOM      7  C   UNL     1       2.491   3.872  19.218  0.00  0.00    +0.000 A 
ATOM      8  C   UNL     1       3.611   4.255  18.462  0.00  0.00    +0.000 A 
ATOM      9  C   UNL     1       4.466   5.395  18.637  0.00  0.00    +0.000 A 
ATOM     10  O   UNL     1       4.230   6.219  19.518  0.00  0.00    +0.000 OA
ATOM     11  C   UNL     1       1.756   4.417  20.384  0.00  0.00    +0.000 C 
ATOM     12  C   UNL     1       0.874   3.203  20.805  0.00  0.00    +0.000 C 
ATOM     13  C   UNL     1       0.765   2.269  19.554  0.00  0.00    +0.000 C 
ENDROOT
BRANCH   1  17
ATOM     14  C   UNL     1       8.278   8.645  18.157  0.00  0.00    +0.000 A 
ATOM     15  C   UNL     1       7.152   8.786  17.349  0.00  0.00    +0.000 A 
ATOM     16  C   UNL     1       6.235   7.742  17.239  0.00  0.00    +0.000 A 
ATOM     17  C   UNL     1       6.439   6.539  17.933  0.00  0.00    +0.000 A 
ATOM     18  C   UNL     1       7.593   6.383  18.706  0.00  0.00    +0.000 A 
ATOM     19  C   UNL     1       8.510   7.435  18.815  0.00  0.00    +0.000 A 
BRANCH  14  21
ATOM     20  C   UNL     1       9.288  10.304  19.480  0.00  0.00    +0.000 C 
ATOM     21  O   UNL     1       9.111   9.728  18.191  0.00  0.00    +0.000 OA
ENDBRANCH  14  21
ENDBRANCH   1  17
BRANCH   2  22
ATOM     22  S   UNL     1       7.115   4.568  15.687  0.00  0.00    +0.000 S 
BRANCH  22  23
ATOM     23  C   UNL     1       6.418   4.243  14.045  0.00  0.00    +0.000 C 
BRANCH  23  24
ATOM     24  N   UNL     1       7.238   4.633  12.837  0.00  0.00    +0.000 N 
ATOM     25  O   UNL     1       7.097   3.982  11.789  0.00  0.00    +0.000 OA
ATOM     26  O   UNL     1       7.983   5.613  12.977  0.00  0.00    +0.000 OA
ENDBRANCH  23  24
ENDBRANCH  22  23
ENDBRANCH   2  22
TORSDOF 5
ENDMDL
MODEL 7
REMARK VINA RESULT:      -7.0      0.932      1.319
REMARK  Name = 
REMARK  6 active torsions:
REMARK  status: ('A' for Active; 'I' for Inactive)
REMARK    1  A    between atoms: C_1  and  O_2
REMARK    2  A    between atoms: O_2  and  C_3
REMARK    3  A    between atoms: C_6  and  N_7
REMARK    4  A    between atoms: C_8  and  S_9
REMARK    5  A    between atoms: S_9  and  C_10
REMARK    6  A    between atoms: C_10  and  N_11
REMARK                            x       y       z     vdW  Elec       q    Type
REMARK                         _______ _______ _______ _____ _____    ______ ____
ROOT
ATOM      1  N   UNL     1       3.263   6.468  18.530  0.00  0.00    +0.000 N 
ATOM      2  C   UNL     1       2.887   5.768  19.698  0.00  0.00    +0.000 A 
ATOM      3  N   UNL     1       2.067   6.216  20.605  0.00  0.00    +0.000 NA
ATOM      4  C   UNL     1       1.572   7.458  20.363  0.00  0.00    +0.000 A 
ATOM      5  S   UNL     1       0.524   8.284  21.466  0.00  0.00    +0.000 S 
ATOM      6  C   UNL     1       0.450   9.617  20.450  0.00  0.00    +0.000 A 
ATOM      7  C   UNL     1       1.182   9.476  19.308  0.00  0.00    +0.000 A 
ATOM      8  C   UNL     1       1.845   8.239  19.257  0.00  0.00    +0.000 A 
ATOM      9  C   UNL     1       2.729   7.734  18.244  0.00  0.00    +0.000 A 
ATOM     10  O   UNL     1       2.954   8.393  17.232  0.00  0.00    +0.000 OA
ATOM     11  C   UNL     1       1.085  10.670  18.433  0.00  0.00    +0.000 C 
ATOM     12  C   UNL     1       0.448  11.720  19.391  0.00  0.00    +0.000 C 
ATOM     13  C   UNL     1      -0.259  10.918  20.535  0.00  0.00    +0.000 C 
ENDROOT
BRANCH   1  17
ATOM     14  C   UNL     1       6.075   4.872  15.803  0.00  0.00    +0.000 A 
ATOM     15  C   UNL     1       4.824   4.279  15.956  0.00  0.00    +0.000 A 
ATOM     16  C   UNL     1       3.891   4.830  16.832  0.00  0.00    +0.000 A 
ATOM     17  C   UNL     1       4.202   5.981  17.573  0.00  0.00    +0.000 A 
ATOM     18  C   UNL     1       5.475   6.547  17.453  0.00  0.00    +0.000 A 
ATOM     19  C   UNL     1       6.408   5.990  16.571  0.00  0.00    +0.000 A 
BRANCH  14  21
ATOM     20  C   UNL     1       6.313   3.889  13.682  0.00  0.00    +0.000 C 
ATOM     21  O   UNL     1       6.913   4.248  14.922  0.00  0.00    +0.000 OA
ENDBRANCH  14  21
ENDBRANCH   1  17
BRANCH   2  22
ATOM     22  S   UNL     1       3.696   4.235  20.039  0.00  0.00    +0.000 S 
BRANCH  22  23
ATOM     23  C   UNL     1       2.291   3.100  20.195  0.00  0.00    +0.000 C 
BRANCH  23  24
ATOM     24  N   UNL     1       1.858   2.335  18.967  0.00  0.00    +0.000 N 
ATOM     25  O   UNL     1       0.648   2.300  18.685  0.00  0.00    +0.000 OA
ATOM     26  O   UNL     1       2.763   1.813  18.301  0.00  0.00    +0.000 OA
ENDBRANCH  23  24
ENDBRANCH  22  23
ENDBRANCH   2  22
TORSDOF 5
ENDMDL
MODEL 8
REMARK VINA RESULT:      -6.9      1.236      1.535
REMARK  Name = 
REMARK  6 active torsions:
REMARK  status: ('A' for Active; 'I' for Inactive)
REMARK    1  A    between atoms: C_1  and  O_2
REMARK    2  A    between atoms: O_2  and  C_3
REMARK    3  A    between atoms: C_6  and  N_7
REMARK    4  A    between atoms: C_8  and  S_9
REMARK    5  A    between atoms: S_9  and  C_10
REMARK    6  A    between atoms: C_10  and  N_11
REMARK                            x       y       z     vdW  Elec       q    Type
REMARK                         _______ _______ _______ _____ _____    ______ ____
ROOT
ATOM      1  N   UNL     1       3.114   6.635  18.565  0.00  0.00    +0.000 N 
ATOM      2  C   UNL     1       2.695   5.977  19.743  0.00  0.00    +0.000 A 
ATOM      3  N   UNL     1       1.876   6.476  20.625  0.00  0.00    +0.000 NA
ATOM      4  C   UNL     1       1.427   7.728  20.343  0.00  0.00    +0.000 A 
ATOM      5  S   UNL     1       0.390   8.616  21.407  0.00  0.00    +0.000 S 
ATOM      6  C   UNL     1       0.379   9.924  20.357  0.00  0.00    +0.000 A 
ATOM      7  C   UNL     1       1.125   9.730  19.232  0.00  0.00    +0.000 A 
ATOM      8  C   UNL     1       1.746   8.470  19.224  0.00  0.00    +0.000 A 
ATOM      9  C   UNL     1       2.628   7.910  18.239  0.00  0.00    +0.000 A 
ATOM     10  O   UNL     1       2.893   8.536  17.215  0.00  0.00    +0.000 OA
ATOM     11  C   UNL     1       1.083  10.904  18.327  0.00  0.00    +0.000 C 
ATOM     12  C   UNL     1       0.466  11.999  19.247  0.00  0.00    +0.000 C 
ATOM     13  C   UNL     1      -0.286  11.251  20.398  0.00  0.00    +0.000 C 
ENDROOT
BRANCH   1  17
ATOM     14  C   UNL     1       5.926   4.884  15.935  0.00  0.00    +0.000 A 
ATOM     15  C   UNL     1       4.690   4.279  16.152  0.00  0.00    +0.000 A 
ATOM     16  C   UNL     1       3.756   4.879  16.994  0.00  0.00    +0.000 A 
ATOM     17  C   UNL     1       4.052   6.092  17.637  0.00  0.00    +0.000 A 
ATOM     18  C   UNL     1       5.310   6.672  17.455  0.00  0.00    +0.000 A 
ATOM     19  C   UNL     1       6.244   6.067  16.607  0.00  0.00    +0.000 A 
BRANCH  14  21
ATOM     20  C   UNL     1       6.214   3.905  13.819  0.00  0.00    +0.000 C 
ATOM     21  O   UNL     1       6.766   4.209  15.095  0.00  0.00    +0.000 OA
ENDBRANCH  14  21
ENDBRANCH   1  17
BRANCH   2  22
ATOM     22  S   UNL     1       3.445   4.427  20.137  0.00  0.00    +0.000 S 
BRANCH  22  23
ATOM     23  C   UNL     1       2.496   3.915  21.594  0.00  0.00    +0.000 C 
BRANCH  23  24
ATOM     24  N   UNL     1       1.409   2.883  21.405  0.00  0.00    +0.000 N 
ATOM     25  O   UNL     1       0.866   2.790  20.292  0.00  0.00    +0.000 OA
ATOM     26  O   UNL     1       1.154   2.173  22.387  0.00  0.00    +0.000 OA
ENDBRANCH  23  24
ENDBRANCH  22  23
ENDBRANCH   2  22
TORSDOF 5
ENDMDL
MODEL 9
REMARK VINA RESULT:      -6.9      0.614      1.232
REMARK  Name = 
REMARK  6 active torsions:
REMARK  status: ('A' for Active; 'I' for Inactive)
REMARK    1  A    between atoms: C_1  and  O_2
REMARK    2  A    between atoms: O_2  and  C_3
REMARK    3  A    between atoms: C_6  and  N_7
REMARK    4  A    between atoms: C_8  and  S_9
REMARK    5  A    between atoms: S_9  and  C_10
REMARK    6  A    between atoms: C_10  and  N_11
REMARK                            x       y       z     vdW  Elec       q    Type
REMARK                         _______ _______ _______ _____ _____    ______ ____
ROOT
ATOM      1  N   UNL     1       2.565   6.824  18.872  0.00  0.00    +0.000 N 
ATOM      2  C   UNL     1       2.136   6.257  20.093  0.00  0.00    +0.000 A 
ATOM      3  N   UNL     1       1.419   6.872  20.990  0.00  0.00    +0.000 NA
ATOM      4  C   UNL     1       1.095   8.155  20.679  0.00  0.00    +0.000 A 
ATOM      5  S   UNL     1       0.211   9.188  21.752  0.00  0.00    +0.000 S 
ATOM      6  C   UNL     1       0.290  10.452  20.652  0.00  0.00    +0.000 A 
ATOM      7  C   UNL     1       0.955  10.139  19.504  0.00  0.00    +0.000 A 
ATOM      8  C   UNL     1       1.436   8.819  19.518  0.00  0.00    +0.000 A 
ATOM      9  C   UNL     1       2.204   8.132  18.517  0.00  0.00    +0.000 A 
ATOM     10  O   UNL     1       2.484   8.690  17.459  0.00  0.00    +0.000 OA
ATOM     11  C   UNL     1       0.995  11.278  18.555  0.00  0.00    +0.000 C 
ATOM     12  C   UNL     1       0.545  12.465  19.458  0.00  0.00    +0.000 C 
ATOM     13  C   UNL     1      -0.226  11.844  20.670  0.00  0.00    +0.000 C 
ENDROOT
BRANCH   1  17
ATOM     14  C   UNL     1       5.066   4.702  16.201  0.00  0.00    +0.000 A 
ATOM     15  C   UNL     1       3.868   4.145  16.640  0.00  0.00    +0.000 A 
ATOM     16  C   UNL     1       3.033   4.863  17.494  0.00  0.00    +0.000 A 
ATOM     17  C   UNL     1       3.393   6.150  17.926  0.00  0.00    +0.000 A 
ATOM     18  C   UNL     1       4.618   6.688  17.521  0.00  0.00    +0.000 A 
ATOM     19  C   UNL     1       5.452   5.963  16.662  0.00  0.00    +0.000 A 
BRANCH  14  21
ATOM     20  C   UNL     1       6.945   4.549  14.798  0.00  0.00    +0.000 C 
ATOM     21  O   UNL     1       5.808   3.911  15.370  0.00  0.00    +0.000 OA
ENDBRANCH  14  21
ENDBRANCH   1  17
BRANCH   2  22
ATOM     22  S   UNL     1       2.734   4.649  20.514  0.00  0.00    +0.000 S 
BRANCH  22  23
ATOM     23  C   UNL     1       1.238   3.640  20.341  0.00  0.00    +0.000 C 
BRANCH  23  24
ATOM     24  N   UNL     1       1.277   2.472  19.383  0.00  0.00    +0.000 N 
ATOM     25  O   UNL     1       2.348   1.860  19.238  0.00  0.00    +0.000 OA
ATOM     26  O   UNL     1       0.209   2.187  18.825  0.00  0.00    +0.000 OA
ENDBRANCH  23  24
ENDBRANCH  22  23
ENDBRANCH   2  22
TORSDOF 5
ENDMDL
