MODEL 1
REMARK VINA RESULT:      -8.4      0.000      0.000
REMARK  Name = 
REMARK  12 active torsions:
REMARK  status: ('A' for Active; 'I' for Inactive)
REMARK    1  A    between atoms: C_1  and  C_2
REMARK    2  A    between atoms: N_4  and  C_5
REMARK    3  A    between atoms: C_5  and  C_6
REMARK    4  A    between atoms: C_5  and  C_17
REMARK    5  A    between atoms: C_6  and  C_7
REMARK    6  A    between atoms: C_11  and  C_12
REMARK    7  A    between atoms: N_19  and  C_20
REMARK    8  A    between atoms: C_20  and  C_21
REMARK    9  A    between atoms: C_20  and  C_28
REMARK   10  A    between atoms: C_21  and  C_22
REMARK   11  A    between atoms: N_30  and  C_31
REMARK   12  A    between atoms: C_31  and  C_32
REMARK                            x       y       z     vdW  Elec       q    Type
REMARK                         _______ _______ _______ _____ _____    ______ ____
ROOT
ATOM      1  C   UNL     1       1.568   8.718  19.250  0.00  0.00    +0.000 C 
ATOM      2  O   UNL     1       1.599   8.352  20.418  0.00  0.00    +0.000 OA
ATOM      3  N   UNL     1       2.177   8.006  18.221  0.00  0.00    +0.000 N 
ATOM      4  H   UNL     1       2.030   8.348  17.276  0.00  0.00    +0.000 HD
ENDROOT
BRANCH   1   5
ATOM      5  C   UNL     1       0.998  10.095  18.789  0.00  0.00    +0.000 C 
BRANCH   5   9
ATOM      6  C   UNL     1      -2.104   9.930  16.607  0.00  0.00    +0.000 C 
ATOM      7  C   UNL     1      -1.296  10.119  17.862  0.00  0.00    +0.000 C 
ATOM      8  O   UNL     1      -1.790  10.456  18.933  0.00  0.00    +0.000 OA
ATOM      9  N   UNL     1       0.043   9.861  17.700  0.00  0.00    +0.000 N 
ATOM     10  H   UNL     1       0.346   9.290  16.917  0.00  0.00    +0.000 HD
ENDBRANCH   5   9
BRANCH   5  11
ATOM     11  C   UNL     1       2.064  11.104  18.332  0.00  0.00    +0.000 C 
BRANCH  11  12
ATOM     12  C   UNL     1       1.729  12.497  18.761  0.00  0.00    +0.000 A 
ATOM     13  C   UNL     1       0.597  12.878  19.447  0.00  0.00    +0.000 A 
ATOM     14  N   UNL     1       0.565  14.243  19.489  0.00  0.00    +0.000 N 
ATOM     15  C   UNL     1       1.674  14.772  18.864  0.00  0.00    +0.000 A 
ATOM     16  C   UNL     1       2.006  16.111  18.586  0.00  0.00    +0.000 A 
ATOM     17  C   UNL     1       1.087  17.270  18.834  0.00  0.00    +0.000 C 
ATOM     18  C   UNL     1       3.271  16.335  18.014  0.00  0.00    +0.000 A 
ATOM     19  C   UNL     1       4.127  15.282  17.696  0.00  0.00    +0.000 A 
ATOM     20  C   UNL     1       3.732  13.957  17.908  0.00  0.00    +0.000 A 
ATOM     21  C   UNL     1       2.477  13.692  18.493  0.00  0.00    +0.000 A 
ATOM     22  H   UNL     1      -0.179  14.792  19.895  0.00  0.00    +0.000 HD
ENDBRANCH  11  12
ENDBRANCH   5  11
ENDBRANCH   1   5
BRANCH   3  23
ATOM     23  C   UNL     1       2.828   6.688  18.384  0.00  0.00    +0.000 C 
BRANCH  23  24
ATOM     24  C   UNL     1       4.165   6.614  17.589  0.00  0.00    +0.000 C 
ATOM     25  O   UNL     1       4.579   7.530  16.880  0.00  0.00    +0.000 OA
ATOM     26  N   UNL     1       4.805   5.394  17.638  0.00  0.00    +0.000 N 
ATOM     27  H   UNL     1       4.405   4.639  18.186  0.00  0.00    +0.000 HD
BRANCH  26  28
ATOM     28  C   UNL     1       6.051   5.130  16.928  0.00  0.00    +0.000 C 
BRANCH  28  29
ATOM     29  C   UNL     1       7.231   4.745  17.832  0.00  0.00    +0.000 C 
ATOM     30  N   UNL     1       7.168   5.158  19.133  0.00  0.00    +0.000 N 
ATOM     31  O   UNL     1       8.239   4.178  17.408  0.00  0.00    +0.000 OA
ATOM     32  H   UNL     1       6.500   5.865  19.415  0.00  0.00    +0.000 HD
ATOM     33  H   UNL     1       7.993   5.024  19.699  0.00  0.00    +0.000 HD
ENDBRANCH  28  29
ENDBRANCH  26  28
ENDBRANCH  23  24
BRANCH  23  34
ATOM     34  C   UNL     1       1.936   5.468  18.028  0.00  0.00    +0.000 C 
BRANCH  34  35
ATOM     35  C   UNL     1       1.729   4.536  19.202  0.00  0.00    +0.000 A 
ATOM     36  C   UNL     1       2.167   4.873  20.490  0.00  0.00    +0.000 A 
ATOM     37  C   UNL     1       2.149   3.921  21.512  0.00  0.00    +0.000 A 
ATOM     38  C   UNL     1       1.690   2.631  21.253  0.00  0.00    +0.000 A 
ATOM     39  C   UNL     1       1.194   2.311  19.994  0.00  0.00    +0.000 A 
ATOM     40  C   UNL     1       1.188   3.266  18.982  0.00  0.00    +0.000 A 
ENDBRANCH  34  35
ENDBRANCH  23  34
ENDBRANCH   3  23
TORSDOF 10
ENDMDL
MODEL 2
REMARK VINA RESULT:      -8.3      2.428      4.258
REMARK  Name = 
REMARK  12 active torsions:
REMARK  status: ('A' for Active; 'I' for Inactive)
REMARK    1  A    between atoms: C_1  and  C_2
REMARK    2  A    between atoms: N_4  and  C_5
REMARK    3  A    between atoms: C_5  and  C_6
REMARK    4  A    between atoms: C_5  and  C_17
REMARK    5  A    between atoms: C_6  and  C_7
REMARK    6  A    between atoms: C_11  and  C_12
REMARK    7  A    between atoms: N_19  and  C_20
REMARK    8  A    between atoms: C_20  and  C_21
REMARK    9  A    between atoms: C_20  and  C_28
REMARK   10  A    between atoms: C_21  and  C_22
REMARK   11  A    between atoms: N_30  and  C_31
REMARK   12  A    between atoms: C_31  and  C_32
REMARK                            x       y       z     vdW  Elec       q    Type
REMARK                         _______ _______ _______ _____ _____    ______ ____
ROOT
ATOM      1  C   UNL     1       2.047   8.744  18.285  0.00  0.00    +0.000 C 
ATOM      2  O   UNL     1       2.492   8.961  17.166  0.00  0.00    +0.000 OA
ATOM      3  N   UNL     1       2.133   7.499  18.901  0.00  0.00    +0.000 N 
ATOM      4  H   UNL     1       1.805   7.438  19.861  0.00  0.00    +0.000 HD
ENDROOT
BRANCH   1   5
ATOM      5  C   UNL     1       1.189   9.769  19.090  0.00  0.00    +0.000 C 
BRANCH   5   9
ATOM      6  C   UNL     1       0.157   9.039  22.670  0.00  0.00    +0.000 C 
ATOM      7  C   UNL     1       0.748   9.815  21.524  0.00  0.00    +0.000 C 
ATOM      8  O   UNL     1       1.201  10.949  21.646  0.00  0.00    +0.000 OA
ATOM      9  N   UNL     1       0.749   9.129  20.335  0.00  0.00    +0.000 N 
ATOM     10  H   UNL     1       0.672   8.117  20.347  0.00  0.00    +0.000 HD
ENDBRANCH   5   9
BRANCH   5  11
ATOM     11  C   UNL     1      -0.031  10.312  18.330  0.00  0.00    +0.000 C 
BRANCH  11  12
ATOM     12  C   UNL     1      -0.360  11.714  18.736  0.00  0.00    +0.000 A 
ATOM     13  C   UNL     1      -1.596  12.164  19.144  0.00  0.00    +0.000 A 
ATOM     14  N   UNL     1      -1.539  13.525  19.248  0.00  0.00    +0.000 N 
ATOM     15  C   UNL     1      -0.275  13.981  18.940  0.00  0.00    +0.000 A 
ATOM     16  C   UNL     1       0.212  15.296  18.821  0.00  0.00    +0.000 A 
ATOM     17  C   UNL     1      -0.654  16.518  18.898  0.00  0.00    +0.000 C 
ATOM     18  C   UNL     1       1.591  15.432  18.586  0.00  0.00    +0.000 A 
ATOM     19  C   UNL     1       2.420  14.324  18.432  0.00  0.00    +0.000 A 
ATOM     20  C   UNL     1       1.892  13.030  18.473  0.00  0.00    +0.000 A 
ATOM     21  C   UNL     1       0.515  12.850  18.721  0.00  0.00    +0.000 A 
ATOM     22  H   UNL     1      -2.318  14.120  19.489  0.00  0.00    +0.000 HD
ENDBRANCH  11  12
ENDBRANCH   5  11
ENDBRANCH   1   5
BRANCH   3  23
ATOM     23  C   UNL     1       2.855   6.335  18.343  0.00  0.00    +0.000 C 
BRANCH  23  24
ATOM     24  C   UNL     1       2.126   5.001  18.682  0.00  0.00    +0.000 C 
ATOM     25  O   UNL     1       1.784   4.185  17.828  0.00  0.00    +0.000 OA
ATOM     26  N   UNL     1       1.779   4.848  20.007  0.00  0.00    +0.000 N 
ATOM     27  H   UNL     1       2.024   5.569  20.677  0.00  0.00    +0.000 HD
BRANCH  26  28
ATOM     28  C   UNL     1       1.062   3.678  20.502  0.00  0.00    +0.000 C 
BRANCH  28  29
ATOM     29  C   UNL     1       1.850   2.824  21.505  0.00  0.00    +0.000 C 
ATOM     30  N   UNL     1       1.130   2.227  22.502  0.00  0.00    +0.000 N 
ATOM     31  O   UNL     1       3.079   2.744  21.493  0.00  0.00    +0.000 OA
ATOM     32  H   UNL     1       0.180   2.519  22.694  0.00  0.00    +0.000 HD
ATOM     33  H   UNL     1       1.652   1.773  23.238  0.00  0.00    +0.000 HD
ENDBRANCH  28  29
ENDBRANCH  26  28
ENDBRANCH  23  24
BRANCH  23  34
ATOM     34  C   UNL     1       4.350   6.236  18.749  0.00  0.00    +0.000 C 
BRANCH  34  35
ATOM     35  C   UNL     1       5.205   5.603  17.672  0.00  0.00    +0.000 A 
ATOM     36  C   UNL     1       6.375   4.899  17.985  0.00  0.00    +0.000 A 
ATOM     37  C   UNL     1       7.250   4.501  16.973  0.00  0.00    +0.000 A 
ATOM     38  C   UNL     1       6.959   4.800  15.644  0.00  0.00    +0.000 A 
ATOM     39  C   UNL     1       5.768   5.442  15.322  0.00  0.00    +0.000 A 
ATOM     40  C   UNL     1       4.882   5.817  16.328  0.00  0.00    +0.000 A 
ENDBRANCH  34  35
ENDBRANCH  23  34
ENDBRANCH   3  23
TORSDOF 10
ENDMDL
MODEL 3
REMARK VINA RESULT:      -8.3      1.697      2.391
REMARK  Name = 
REMARK  12 active torsions:
REMARK  status: ('A' for Active; 'I' for Inactive)
REMARK    1  A    between atoms: C_1  and  C_2
REMARK    2  A    between atoms: N_4  and  C_5
REMARK    3  A    between atoms: C_5  and  C_6
REMARK    4  A    between atoms: C_5  and  C_17
REMARK    5  A    between atoms: C_6  and  C_7
REMARK    6  A    between atoms: C_11  and  C_12
REMARK    7  A    between atoms: N_19  and  C_20
REMARK    8  A    between atoms: C_20  and  C_21
REMARK    9  A    between atoms: C_20  and  C_28
REMARK   10  A    between atoms: C_21  and  C_22
REMARK   11  A    between atoms: N_30  and  C_31
REMARK   12  A    between atoms: C_31  and  C_32
REMARK                            x       y       z     vdW  Elec       q    Type
REMARK                         _______ _______ _______ _____ _____    ______ ____
ROOT
ATOM      1  C   UNL     1       1.646   8.096  19.860  0.00  0.00    +0.000 C 
ATOM      2  O   UNL     1       1.500   7.314  20.790  0.00  0.00    +0.000 OA
ATOM      3  N   UNL     1       2.415   7.800  18.739  0.00  0.00    +0.000 N 
ATOM      4  H   UNL     1       2.411   8.481  17.986  0.00  0.00    +0.000 HD
ENDROOT
BRANCH   1   5
ATOM      5  C   UNL     1       1.137   9.571  19.882  0.00  0.00    +0.000 C 
BRANCH   5   9
ATOM      6  C   UNL     1      -0.848  10.085  23.076  0.00  0.00    +0.000 C 
ATOM      7  C   UNL     1       0.367   9.883  22.212  0.00  0.00    +0.000 C 
ATOM      8  O   UNL     1       1.511   9.883  22.654  0.00  0.00    +0.000 OA
ATOM      9  N   UNL     1       0.074   9.681  20.886  0.00  0.00    +0.000 N 
ATOM     10  H   UNL     1      -0.858   9.372  20.627  0.00  0.00    +0.000 HD
ENDBRANCH   5   9
BRANCH   5  11
ATOM     11  C   UNL     1       0.623  10.087  18.528  0.00  0.00    +0.000 C 
BRANCH  11  12
ATOM     12  C   UNL     1       0.096  11.483  18.629  0.00  0.00    +0.000 A 
ATOM     13  C   UNL     1      -1.178  11.888  18.296  0.00  0.00    +0.000 A 
ATOM     14  N   UNL     1      -1.217  13.253  18.348  0.00  0.00    +0.000 N 
ATOM     15  C   UNL     1       0.006  13.757  18.737  0.00  0.00    +0.000 A 
ATOM     16  C   UNL     1       0.451  15.089  18.830  0.00  0.00    +0.000 A 
ATOM     17  C   UNL     1      -0.351  16.272  18.376  0.00  0.00    +0.000 C 
ATOM     18  C   UNL     1       1.741  15.281  19.357  0.00  0.00    +0.000 A 
ATOM     19  C   UNL     1       2.550  14.207  19.721  0.00  0.00    +0.000 A 
ATOM     20  C   UNL     1       2.111  12.892  19.537  0.00  0.00    +0.000 A 
ATOM     21  C   UNL     1       0.818  12.658  19.025  0.00  0.00    +0.000 A 
ATOM     22  H   UNL     1      -2.018  13.818  18.109  0.00  0.00    +0.000 HD
ENDBRANCH  11  12
ENDBRANCH   5  11
ENDBRANCH   1   5
BRANCH   3  23
ATOM     23  C   UNL     1       3.048   6.489  18.480  0.00  0.00    +0.000 C 
BRANCH  23  24
ATOM     24  C   UNL     1       4.176   6.606  17.413  0.00  0.00    +0.000 C 
ATOM     25  O   UNL     1       4.587   7.681  16.981  0.00  0.00    +0.000 OA
ATOM     26  N   UNL     1       4.609   5.405  16.889  0.00  0.00    +0.000 N 
ATOM     27  H   UNL     1       4.206   4.537  17.225  0.00  0.00    +0.000 HD
BRANCH  26  28
ATOM     28  C   UNL     1       5.635   5.322  15.856  0.00  0.00    +0.000 C 
BRANCH  28  29
ATOM     29  C   UNL     1       7.074   5.434  16.376  0.00  0.00    +0.000 C 
ATOM     30  N   UNL     1       7.556   6.697  16.582  0.00  0.00    +0.000 N 
ATOM     31  O   UNL     1       7.811   4.458  16.516  0.00  0.00    +0.000 OA
ATOM     32  H   UNL     1       7.073   7.499  16.197  0.00  0.00    +0.000 HD
ATOM     33  H   UNL     1       8.538   6.785  16.798  0.00  0.00    +0.000 HD
ENDBRANCH  28  29
ENDBRANCH  26  28
ENDBRANCH  23  24
BRANCH  23  34
ATOM     34  C   UNL     1       2.066   5.353  18.085  0.00  0.00    +0.000 C 
BRANCH  34  35
ATOM     35  C   UNL     1       1.953   4.284  19.151  0.00  0.00    +0.000 A 
ATOM     36  C   UNL     1       1.106   3.179  18.992  0.00  0.00    +0.000 A 
ATOM     37  C   UNL     1       0.865   2.316  20.063  0.00  0.00    +0.000 A 
ATOM     38  C   UNL     1       1.472   2.551  21.296  0.00  0.00    +0.000 A 
ATOM     39  C   UNL     1       2.363   3.609  21.440  0.00  0.00    +0.000 A 
ATOM     40  C   UNL     1       2.624   4.454  20.365  0.00  0.00    +0.000 A 
ENDBRANCH  34  35
ENDBRANCH  23  34
ENDBRANCH   3  23
TORSDOF 10
ENDMDL
MODEL 4
REMARK VINA RESULT:      -8.2      2.903      4.188
REMARK  Name = 
REMARK  12 active torsions:
REMARK  status: ('A' for Active; 'I' for Inactive)
REMARK    1  A    between atoms: C_1  and  C_2
REMARK    2  A    between atoms: N_4  and  C_5
REMARK    3  A    between atoms: C_5  and  C_6
REMARK    4  A    between atoms: C_5  and  C_17
REMARK    5  A    between atoms: C_6  and  C_7
REMARK    6  A    between atoms: C_11  and  C_12
REMARK    7  A    between atoms: N_19  and  C_20
REMARK    8  A    between atoms: C_20  and  C_21
REMARK    9  A    between atoms: C_20  and  C_28
REMARK   10  A    between atoms: C_21  and  C_22
REMARK   11  A    between atoms: N_30  and  C_31
REMARK   12  A    between atoms: C_31  and  C_32
REMARK                            x       y       z     vdW  Elec       q    Type
REMARK                         _______ _______ _______ _____ _____    ______ ____
ROOT
ATOM      1  C   UNL     1       2.032   7.645  19.799  0.00  0.00    +0.000 C 
ATOM      2  O   UNL     1       1.917   6.830  20.705  0.00  0.00    +0.000 OA
ATOM      3  N   UNL     1       2.818   7.414  18.673  0.00  0.00    +0.000 N 
ATOM      4  H   UNL     1       2.788   8.117  17.941  0.00  0.00    +0.000 HD
ENDROOT
BRANCH   1   5
ATOM      5  C   UNL     1       1.461   9.095  19.862  0.00  0.00    +0.000 C 
BRANCH   5   9
ATOM      6  C   UNL     1      -0.645   9.538  22.989  0.00  0.00    +0.000 C 
ATOM      7  C   UNL     1       0.605   9.449  22.155  0.00  0.00    +0.000 C 
ATOM      8  O   UNL     1       1.729   9.635  22.611  0.00  0.00    +0.000 OA
ATOM      9  N   UNL     1       0.371   9.122  20.843  0.00  0.00    +0.000 N 
ATOM     10  H   UNL     1      -0.504   8.673  20.593  0.00  0.00    +0.000 HD
ENDBRANCH   5   9
BRANCH   5  11
ATOM     11  C   UNL     1       0.957   9.640  18.515  0.00  0.00    +0.000 C 
BRANCH  11  12
ATOM     12  C   UNL     1      -0.174  10.602  18.693  0.00  0.00    +0.000 A 
ATOM     13  C   UNL     1      -0.177  11.691  19.538  0.00  0.00    +0.000 A 
ATOM     14  N   UNL     1      -1.442  12.208  19.558  0.00  0.00    +0.000 N 
ATOM     15  C   UNL     1      -2.269  11.495  18.718  0.00  0.00    +0.000 A 
ATOM     16  C   UNL     1      -3.655  11.606  18.498  0.00  0.00    +0.000 A 
ATOM     17  C   UNL     1      -4.556  12.508  19.288  0.00  0.00    +0.000 C 
ATOM     18  C   UNL     1      -4.196  10.786  17.493  0.00  0.00    +0.000 A 
ATOM     19  C   UNL     1      -3.410   9.879  16.787  0.00  0.00    +0.000 A 
ATOM     20  C   UNL     1      -2.052   9.732  17.086  0.00  0.00    +0.000 A 
ATOM     21  C   UNL     1      -1.468  10.546  18.078  0.00  0.00    +0.000 A 
ATOM     22  H   UNL     1      -1.739  12.986  20.128  0.00  0.00    +0.000 HD
ENDBRANCH  11  12
ENDBRANCH   5  11
ENDBRANCH   1   5
BRANCH   3  23
ATOM     23  C   UNL     1       3.508   6.140  18.379  0.00  0.00    +0.000 C 
BRANCH  23  24
ATOM     24  C   UNL     1       4.623   6.334  17.310  0.00  0.00    +0.000 C 
ATOM     25  O   UNL     1       5.436   7.256  17.344  0.00  0.00    +0.000 OA
ATOM     26  N   UNL     1       4.567   5.460  16.245  0.00  0.00    +0.000 N 
ATOM     27  H   UNL     1       3.846   4.746  16.218  0.00  0.00    +0.000 HD
BRANCH  26  28
ATOM     28  C   UNL     1       5.510   5.513  15.133  0.00  0.00    +0.000 C 
BRANCH  28  29
ATOM     29  C   UNL     1       6.118   4.158  14.747  0.00  0.00    +0.000 C 
ATOM     30  N   UNL     1       6.368   3.953  13.419  0.00  0.00    +0.000 N 
ATOM     31  O   UNL     1       6.291   3.248  15.560  0.00  0.00    +0.000 OA
ATOM     32  H   UNL     1       5.964   4.565  12.721  0.00  0.00    +0.000 HD
ATOM     33  H   UNL     1       6.644   3.023  13.141  0.00  0.00    +0.000 HD
ENDBRANCH  28  29
ENDBRANCH  26  28
ENDBRANCH  23  24
BRANCH  23  34
ATOM     34  C   UNL     1       2.575   4.972  17.960  0.00  0.00    +0.000 C 
BRANCH  34  35
ATOM     35  C   UNL     1       2.321   3.996  19.089  0.00  0.00    +0.000 A 
ATOM     36  C   UNL     1       1.024   3.725  19.544  0.00  0.00    +0.000 A 
ATOM     37  C   UNL     1       0.828   2.983  20.711  0.00  0.00    +0.000 A 
ATOM     38  C   UNL     1       1.925   2.505  21.425  0.00  0.00    +0.000 A 
ATOM     39  C   UNL     1       3.212   2.716  20.942  0.00  0.00    +0.000 A 
ATOM     40  C   UNL     1       3.408   3.434  19.766  0.00  0.00    +0.000 A 
ENDBRANCH  34  35
ENDBRANCH  23  34
ENDBRANCH   3  23
TORSDOF 10
ENDMDL
MODEL 5
REMARK VINA RESULT:      -8.2      2.411      4.609
REMARK  Name = 
REMARK  12 active torsions:
REMARK  status: ('A' for Active; 'I' for Inactive)
REMARK    1  A    between atoms: C_1  and  C_2
REMARK    2  A    between atoms: N_4  and  C_5
REMARK    3  A    between atoms: C_5  and  C_6
REMARK    4  A    between atoms: C_5  and  C_17
REMARK    5  A    between atoms: C_6  and  C_7
REMARK    6  A    between atoms: C_11  and  C_12
REMARK    7  A    between atoms: N_19  and  C_20
REMARK    8  A    between atoms: C_20  and  C_21
REMARK    9  A    between atoms: C_20  and  C_28
REMARK   10  A    between atoms: C_21  and  C_22
REMARK   11  A    between atoms: N_30  and  C_31
REMARK   12  A    between atoms: C_31  and  C_32
REMARK                            x       y       z     vdW  Elec       q    Type
REMARK                         _______ _______ _______ _____ _____    ______ ____
ROOT
ATOM      1  C   UNL     1       2.109   7.424  19.702  0.00  0.00    +0.000 C 
ATOM      2  O   UNL     1       2.352   6.585  20.559  0.00  0.00    +0.000 OA
ATOM      3  N   UNL     1       2.540   7.303  18.384  0.00  0.00    +0.000 N 
ATOM      4  H   UNL     1       2.223   8.012  17.730  0.00  0.00    +0.000 HD
ENDROOT
BRANCH   1   5
ATOM      5  C   UNL     1       1.442   8.802  20.004  0.00  0.00    +0.000 C 
BRANCH   5   9
ATOM      6  C   UNL     1      -0.615   9.359  23.145  0.00  0.00    +0.000 C 
ATOM      7  C   UNL     1       0.415   9.652  22.088  0.00  0.00    +0.000 C 
ATOM      8  O   UNL     1       1.073  10.686  22.062  0.00  0.00    +0.000 OA
ATOM      9  N   UNL     1       0.561   8.646  21.166  0.00  0.00    +0.000 N 
ATOM     10  H   UNL     1       0.248   7.709  21.402  0.00  0.00    +0.000 HD
ENDBRANCH   5   9
BRANCH   5  11
ATOM     11  C   UNL     1       0.648   9.396  18.829  0.00  0.00    +0.000 C 
BRANCH  11  12
ATOM     12  C   UNL     1       1.133  10.763  18.465  0.00  0.00    +0.000 A 
ATOM     13  C   UNL     1       2.298  11.048  17.787  0.00  0.00    +0.000 A 
ATOM     14  N   UNL     1       2.482  12.402  17.810  0.00  0.00    +0.000 N 
ATOM     15  C   UNL     1       1.441  13.020  18.470  0.00  0.00    +0.000 A 
ATOM     16  C   UNL     1       1.260  14.372  18.815  0.00  0.00    +0.000 A 
ATOM     17  C   UNL     1       2.302  15.433  18.614  0.00  0.00    +0.000 C 
ATOM     18  C   UNL     1       0.031  14.706  19.409  0.00  0.00    +0.000 A 
ATOM     19  C   UNL     1      -0.935  13.741  19.684  0.00  0.00    +0.000 A 
ATOM     20  C   UNL     1      -0.692  12.392  19.405  0.00  0.00    +0.000 A 
ATOM     21  C   UNL     1       0.524  12.018  18.796  0.00  0.00    +0.000 A 
ATOM     22  H   UNL     1       3.280  12.883  17.424  0.00  0.00    +0.000 HD
ENDBRANCH  11  12
ENDBRANCH   5  11
ENDBRANCH   1   5
BRANCH   3  23
ATOM     23  C   UNL     1       3.233   6.117  17.834  0.00  0.00    +0.000 C 
BRANCH  23  24
ATOM     24  C   UNL     1       2.541   4.797  18.285  0.00  0.00    +0.000 C 
ATOM     25  O   UNL     1       1.374   4.521  18.014  0.00  0.00    +0.000 OA
ATOM     26  N   UNL     1       3.296   4.000  19.120  0.00  0.00    +0.000 N 
ATOM     27  H   UNL     1       4.236   4.287  19.373  0.00  0.00    +0.000 HD
BRANCH  26  28
ATOM     28  C   UNL     1       2.800   2.743  19.668  0.00  0.00    +0.000 C 
BRANCH  28  29
ATOM     29  C   UNL     1       1.992   2.887  20.965  0.00  0.00    +0.000 C 
ATOM     30  N   UNL     1       0.669   3.206  20.833  0.00  0.00    +0.000 N 
ATOM     31  O   UNL     1       2.505   2.821  22.083  0.00  0.00    +0.000 OA
ATOM     32  H   UNL     1       0.310   3.548  19.950  0.00  0.00    +0.000 HD
ATOM     33  H   UNL     1       0.162   3.430  21.676  0.00  0.00    +0.000 HD
ENDBRANCH  28  29
ENDBRANCH  26  28
ENDBRANCH  23  24
BRANCH  23  34
ATOM     34  C   UNL     1       4.753   6.047  18.141  0.00  0.00    +0.000 C 
BRANCH  34  35
ATOM     35  C   UNL     1       5.569   5.612  16.943  0.00  0.00    +0.000 A 
ATOM     36  C   UNL     1       5.129   5.847  15.633  0.00  0.00    +0.000 A 
ATOM     37  C   UNL     1       5.791   5.263  14.551  0.00  0.00    +0.000 A 
ATOM     38  C   UNL     1       6.898   4.446  14.772  0.00  0.00    +0.000 A 
ATOM     39  C   UNL     1       7.377   4.261  16.065  0.00  0.00    +0.000 A 
ATOM     40  C   UNL     1       6.733   4.863  17.141  0.00  0.00    +0.000 A 
ENDBRANCH  34  35
ENDBRANCH  23  34
ENDBRANCH   3  23
TORSDOF 10
ENDMDL
MODEL 6
REMARK VINA RESULT:      -8.1      1.831      2.409
REMARK  Name = 
REMARK  12 active torsions:
REMARK  status: ('A' for Active; 'I' for Inactive)
REMARK    1  A    between atoms: C_1  and  C_2
REMARK    2  A    between atoms: N_4  and  C_5
REMARK    3  A    between atoms: C_5  and  C_6
REMARK    4  A    between atoms: C_5  and  C_17
REMARK    5  A    between atoms: C_6  and  C_7
REMARK    6  A    between atoms: C_11  and  C_12
REMARK    7  A    between atoms: N_19  and  C_20
REMARK    8  A    between atoms: C_20  and  C_21
REMARK    9  A    between atoms: C_20  and  C_28
REMARK   10  A    between atoms: C_21  and  C_22
REMARK   11  A    between atoms: N_30  and  C_31
REMARK   12  A    between atoms: C_31  and  C_32
REMARK                            x       y       z     vdW  Elec       q    Type
REMARK                         _______ _______ _______ _____ _____    ______ ____
ROOT
ATOM      1  C   UNL     1       1.594   8.055  19.881  0.00  0.00    +0.000 C 
ATOM      2  O   UNL     1       1.403   7.252  20.784  0.00  0.00    +0.000 OA
ATOM      3  N   UNL     1       2.349   7.755  18.752  0.00  0.00    +0.000 N 
ATOM      4  H   UNL     1       2.386   8.460  18.022  0.00  0.00    +0.000 HD
ENDROOT
BRANCH   1   5
ATOM      5  C   UNL     1       1.166   9.554  19.951  0.00  0.00    +0.000 C 
BRANCH   5   9
ATOM      6  C   UNL     1      -0.815  10.076  23.147  0.00  0.00    +0.000 C 
ATOM      7  C   UNL     1       0.395   9.840  22.284  0.00  0.00    +0.000 C 
ATOM      8  O   UNL     1       1.535   9.776  22.733  0.00  0.00    +0.000 OA
ATOM      9  N   UNL     1       0.102   9.687  20.952  0.00  0.00    +0.000 N 
ATOM     10  H   UNL     1      -0.841   9.429  20.680  0.00  0.00    +0.000 HD
ENDBRANCH   5   9
BRANCH   5  11
ATOM     11  C   UNL     1       0.692  10.144  18.613  0.00  0.00    +0.000 C 
BRANCH  11  12
ATOM     12  C   UNL     1       0.172  11.537  18.773  0.00  0.00    +0.000 A 
ATOM     13  C   UNL     1      -1.146  11.922  18.652  0.00  0.00    +0.000 A 
ATOM     14  N   UNL     1      -1.193  13.287  18.682  0.00  0.00    +0.000 N 
ATOM     15  C   UNL     1       0.071  13.811  18.849  0.00  0.00    +0.000 A 
ATOM     16  C   UNL     1       0.507  15.149  18.840  0.00  0.00    +0.000 A 
ATOM     17  C   UNL     1      -0.375  16.315  18.504  0.00  0.00    +0.000 C 
ATOM     18  C   UNL     1       1.864  15.366  19.139  0.00  0.00    +0.000 A 
ATOM     19  C   UNL     1       2.737  14.308  19.383  0.00  0.00    +0.000 A 
ATOM     20  C   UNL     1       2.291  12.985  19.302  0.00  0.00    +0.000 A 
ATOM     21  C   UNL     1       0.934  12.727  19.019  0.00  0.00    +0.000 A 
ATOM     22  H   UNL     1      -2.030  13.839  18.570  0.00  0.00    +0.000 HD
ENDBRANCH  11  12
ENDBRANCH   5  11
ENDBRANCH   1   5
BRANCH   3  23
ATOM     23  C   UNL     1       2.912   6.420  18.450  0.00  0.00    +0.000 C 
BRANCH  23  24
ATOM     24  C   UNL     1       4.259   6.535  17.678  0.00  0.00    +0.000 C 
ATOM     25  O   UNL     1       4.400   7.220  16.667  0.00  0.00    +0.000 OA
ATOM     26  N   UNL     1       5.266   5.713  18.140  0.00  0.00    +0.000 N 
ATOM     27  H   UNL     1       5.098   5.115  18.942  0.00  0.00    +0.000 HD
BRANCH  26  28
ATOM     28  C   UNL     1       6.585   5.662  17.520  0.00  0.00    +0.000 C 
BRANCH  28  29
ATOM     29  C   UNL     1       7.529   6.799  17.933  0.00  0.00    +0.000 C 
ATOM     30  N   UNL     1       7.572   7.890  17.110  0.00  0.00    +0.000 N 
ATOM     31  O   UNL     1       8.291   6.718  18.896  0.00  0.00    +0.000 OA
ATOM     32  H   UNL     1       7.181   7.845  16.177  0.00  0.00    +0.000 HD
ATOM     33  H   UNL     1       8.281   8.583  17.300  0.00  0.00    +0.000 HD
ENDBRANCH  28  29
ENDBRANCH  26  28
ENDBRANCH  23  24
BRANCH  23  34
ATOM     34  C   UNL     1       1.952   5.461  17.696  0.00  0.00    +0.000 C 
BRANCH  34  35
ATOM     35  C   UNL     1       1.865   4.096  18.344  0.00  0.00    +0.000 A 
ATOM     36  C   UNL     1       1.203   3.906  19.565  0.00  0.00    +0.000 A 
ATOM     37  C   UNL     1       1.308   2.689  20.241  0.00  0.00    +0.000 A 
ATOM     38  C   UNL     1       2.070   1.656  19.701  0.00  0.00    +0.000 A 
ATOM     39  C   UNL     1       2.676   1.817  18.459  0.00  0.00    +0.000 A 
ATOM     40  C   UNL     1       2.551   3.021  17.772  0.00  0.00    +0.000 A 
ENDBRANCH  34  35
ENDBRANCH  23  34
ENDBRANCH   3  23
TORSDOF 10
ENDMDL
MODEL 7
REMARK VINA RESULT:      -8.1      2.030      4.154
REMARK  Name = 
REMARK  12 active torsions:
REMARK  status: ('A' for Active; 'I' for Inactive)
REMARK    1  A    between atoms: C_1  and  C_2
REMARK    2  A    between atoms: N_4  and  C_5
REMARK    3  A    between atoms: C_5  and  C_6
REMARK    4  A    between atoms: C_5  and  C_17
REMARK    5  A    between atoms: C_6  and  C_7
REMARK    6  A    between atoms: C_11  and  C_12
REMARK    7  A    between atoms: N_19  and  C_20
REMARK    8  A    between atoms: C_20  and  C_21
REMARK    9  A    between atoms: C_20  and  C_28
REMARK   10  A    between atoms: C_21  and  C_22
REMARK   11  A    between atoms: N_30  and  C_31
REMARK   12  A    between atoms: C_31  and  C_32
REMARK                            x       y       z     vdW  Elec       q    Type
REMARK                         _______ _______ _______ _____ _____    ______ ____
ROOT
ATOM      1  C   UNL     1       1.536   8.594  19.475  0.00  0.00    +0.000 C 
ATOM      2  O   UNL     1       1.941   8.359  20.606  0.00  0.00    +0.000 OA
ATOM      3  N   UNL     1       1.961   7.881  18.358  0.00  0.00    +0.000 N 
ATOM      4  H   UNL     1       1.509   8.099  17.475  0.00  0.00    +0.000 HD
ENDROOT
BRANCH   1   5
ATOM      5  C   UNL     1       0.632   9.815  19.116  0.00  0.00    +0.000 C 
BRANCH   5   9
ATOM      6  C   UNL     1       2.919  12.760  18.409  0.00  0.00    +0.000 C 
ATOM      7  C   UNL     1       2.257  11.429  18.181  0.00  0.00    +0.000 C 
ATOM      8  O   UNL     1       2.442  10.752  17.175  0.00  0.00    +0.000 OA
ATOM      9  N   UNL     1       1.441  11.034  19.212  0.00  0.00    +0.000 N 
ATOM     10  H   UNL     1       1.568  11.449  20.130  0.00  0.00    +0.000 HD
ENDBRANCH   5   9
BRANCH   5  11
ATOM     11  C   UNL     1      -0.622   9.957  19.994  0.00  0.00    +0.000 C 
BRANCH  11  12
ATOM     12  C   UNL     1      -1.652  10.832  19.353  0.00  0.00    +0.000 A 
ATOM     13  C   UNL     1      -2.244  11.934  19.931  0.00  0.00    +0.000 A 
ATOM     14  N   UNL     1      -3.255  12.351  19.112  0.00  0.00    +0.000 N 
ATOM     15  C   UNL     1      -3.324  11.558  17.987  0.00  0.00    +0.000 A 
ATOM     16  C   UNL     1      -4.257  11.556  16.933  0.00  0.00    +0.000 A 
ATOM     17  C   UNL     1      -5.496  12.401  16.912  0.00  0.00    +0.000 C 
ATOM     18  C   UNL     1      -3.996  10.675  15.868  0.00  0.00    +0.000 A 
ATOM     19  C   UNL     1      -2.898   9.818  15.881  0.00  0.00    +0.000 A 
ATOM     20  C   UNL     1      -2.035   9.784  16.981  0.00  0.00    +0.000 A 
ATOM     21  C   UNL     1      -2.255  10.662  18.063  0.00  0.00    +0.000 A 
ATOM     22  H   UNL     1      -3.884  13.114  19.313  0.00  0.00    +0.000 HD
ENDBRANCH  11  12
ENDBRANCH   5  11
ENDBRANCH   1   5
BRANCH   3  23
ATOM     23  C   UNL     1       2.851   6.701  18.406  0.00  0.00    +0.000 C 
BRANCH  23  24
ATOM     24  C   UNL     1       4.010   6.823  17.373  0.00  0.00    +0.000 C 
ATOM     25  O   UNL     1       4.381   7.896  16.900  0.00  0.00    +0.000 OA
ATOM     26  N   UNL     1       4.522   5.623  16.928  0.00  0.00    +0.000 N 
ATOM     27  H   UNL     1       4.152   4.752  17.295  0.00  0.00    +0.000 HD
BRANCH  26  28
ATOM     28  C   UNL     1       5.588   5.542  15.936  0.00  0.00    +0.000 C 
BRANCH  28  29
ATOM     29  C   UNL     1       7.007   5.599  16.519  0.00  0.00    +0.000 C 
ATOM     30  N   UNL     1       7.484   4.451  17.088  0.00  0.00    +0.000 N 
ATOM     31  O   UNL     1       7.666   6.638  16.571  0.00  0.00    +0.000 OA
ATOM     32  H   UNL     1       6.854   3.690  17.312  0.00  0.00    +0.000 HD
ATOM     33  H   UNL     1       8.359   4.513  17.587  0.00  0.00    +0.000 HD
ENDBRANCH  28  29
ENDBRANCH  26  28
ENDBRANCH  23  24
BRANCH  23  34
ATOM     34  C   UNL     1       2.135   5.334  18.234  0.00  0.00    +0.000 C 
BRANCH  34  35
ATOM     35  C   UNL     1       2.292   4.439  19.445  0.00  0.00    +0.000 A 
ATOM     36  C   UNL     1       3.479   3.735  19.685  0.00  0.00    +0.000 A 
ATOM     37  C   UNL     1       3.532   2.765  20.689  0.00  0.00    +0.000 A 
ATOM     38  C   UNL     1       2.402   2.497  21.458  0.00  0.00    +0.000 A 
ATOM     39  C   UNL     1       1.240   3.238  21.266  0.00  0.00    +0.000 A 
ATOM     40  C   UNL     1       1.194   4.223  20.284  0.00  0.00    +0.000 A 
ENDBRANCH  34  35
ENDBRANCH  23  34
ENDBRANCH   3  23
TORSDOF 10
ENDMDL
MODEL 8
REMARK VINA RESULT:      -8.1      2.536      3.965
REMARK  Name = 
REMARK  12 active torsions:
REMARK  status: ('A' for Active; 'I' for Inactive)
REMARK    1  A    between atoms: C_1  and  C_2
REMARK    2  A    between atoms: N_4  and  C_5
REMARK    3  A    between atoms: C_5  and  C_6
REMARK    4  A    between atoms: C_5  and  C_17
REMARK    5  A    between atoms: C_6  and  C_7
REMARK    6  A    between atoms: C_11  and  C_12
REMARK    7  A    between atoms: N_19  and  C_20
REMARK    8  A    between atoms: C_20  and  C_21
REMARK    9  A    between atoms: C_20  and  C_28
REMARK   10  A    between atoms: C_21  and  C_22
REMARK   11  A    between atoms: N_30  and  C_31
REMARK   12  A    between atoms: C_31  and  C_32
REMARK                            x       y       z     vdW  Elec       q    Type
REMARK                         _______ _______ _______ _____ _____    ______ ____
ROOT
ATOM      1  C   UNL     1       1.568   8.392  20.081  0.00  0.00    +0.000 C 
ATOM      2  O   UNL     1       1.480   7.591  21.002  0.00  0.00    +0.000 OA
ATOM      3  N   UNL     1       2.194   8.089  18.876  0.00  0.00    +0.000 N 
ATOM      4  H   UNL     1       2.147   8.792  18.144  0.00  0.00    +0.000 HD
ENDROOT
BRANCH   1   5
ATOM      5  C   UNL     1       1.148   9.891  20.193  0.00  0.00    +0.000 C 
BRANCH   5   9
ATOM      6  C   UNL     1      -1.269  10.235  23.100  0.00  0.00    +0.000 C 
ATOM      7  C   UNL     1       0.051  10.036  22.406  0.00  0.00    +0.000 C 
ATOM      8  O   UNL     1       1.114   9.922  23.008  0.00  0.00    +0.000 OA
ATOM      9  N   UNL     1      -0.048   9.975  21.038  0.00  0.00    +0.000 N 
ATOM     10  H   UNL     1      -0.944   9.752  20.617  0.00  0.00    +0.000 HD
ENDBRANCH   5   9
BRANCH   5  11
ATOM     11  C   UNL     1       0.877  10.579  18.845  0.00  0.00    +0.000 C 
BRANCH  11  12
ATOM     12  C   UNL     1      -0.415  11.332  18.856  0.00  0.00    +0.000 A 
ATOM     13  C   UNL     1      -0.648  12.520  19.514  0.00  0.00    +0.000 A 
ATOM     14  N   UNL     1      -1.985  12.791  19.439  0.00  0.00    +0.000 N 
ATOM     15  C   UNL     1      -2.637  11.814  18.717  0.00  0.00    +0.000 A 
ATOM     16  C   UNL     1      -4.010  11.631  18.471  0.00  0.00    +0.000 A 
ATOM     17  C   UNL     1      -5.090  12.464  19.096  0.00  0.00    +0.000 C 
ATOM     18  C   UNL     1      -4.355  10.577  17.606  0.00  0.00    +0.000 A 
ATOM     19  C   UNL     1      -3.391   9.732  17.063  0.00  0.00    +0.000 A 
ATOM     20  C   UNL     1      -2.041   9.887  17.394  0.00  0.00    +0.000 A 
ATOM     21  C   UNL     1      -1.653  10.941  18.247  0.00  0.00    +0.000 A 
ATOM     22  H   UNL     1      -2.440  13.580  19.873  0.00  0.00    +0.000 HD
ENDBRANCH  11  12
ENDBRANCH   5  11
ENDBRANCH   1   5
BRANCH   3  23
ATOM     23  C   UNL     1       2.721   6.754  18.517  0.00  0.00    +0.000 C 
BRANCH  23  24
ATOM     24  C   UNL     1       3.920   6.865  17.530  0.00  0.00    +0.000 C 
ATOM     25  O   UNL     1       3.891   7.549  16.509  0.00  0.00    +0.000 OA
ATOM     26  N   UNL     1       4.989   6.042  17.817  0.00  0.00    +0.000 N 
ATOM     27  H   UNL     1       4.957   5.445  18.637  0.00  0.00    +0.000 HD
BRANCH  26  28
ATOM     28  C   UNL     1       6.185   5.987  16.985  0.00  0.00    +0.000 C 
BRANCH  28  29
ATOM     29  C   UNL     1       7.079   4.765  17.233  0.00  0.00    +0.000 C 
ATOM     30  N   UNL     1       6.888   4.092  18.407  0.00  0.00    +0.000 N 
ATOM     31  O   UNL     1       7.995   4.443  16.475  0.00  0.00    +0.000 OA
ATOM     32  H   UNL     1       6.353   4.512  19.158  0.00  0.00    +0.000 HD
ATOM     33  H   UNL     1       7.554   3.370  18.638  0.00  0.00    +0.000 HD
ENDBRANCH  28  29
ENDBRANCH  26  28
ENDBRANCH  23  24
BRANCH  23  34
ATOM     34  C   UNL     1       1.667   5.762  17.956  0.00  0.00    +0.000 C 
BRANCH  34  35
ATOM     35  C   UNL     1       1.567   4.493  18.775  0.00  0.00    +0.000 A 
ATOM     36  C   UNL     1       1.402   4.532  20.166  0.00  0.00    +0.000 A 
ATOM     37  C   UNL     1       1.515   3.363  20.922  0.00  0.00    +0.000 A 
ATOM     38  C   UNL     1       1.790   2.151  20.292  0.00  0.00    +0.000 A 
ATOM     39  C   UNL     1       1.891   2.097  18.905  0.00  0.00    +0.000 A 
ATOM     40  C   UNL     1       1.753   3.257  18.149  0.00  0.00    +0.000 A 
ENDBRANCH  34  35
ENDBRANCH  23  34
ENDBRANCH   3  23
TORSDOF 10
ENDMDL
MODEL 9
REMARK VINA RESULT:      -8.0      2.391      4.313
REMARK  Name = 
REMARK  12 active torsions:
REMARK  status: ('A' for Active; 'I' for Inactive)
REMARK    1  A    between atoms: C_1  and  C_2
REMARK    2  A    between atoms: N_4  and  C_5
REMARK    3  A    between atoms: C_5  and  C_6
REMARK    4  A    between atoms: C_5  and  C_17
REMARK    5  A    between atoms: C_6  and  C_7
REMARK    6  A    between atoms: C_11  and  C_12
REMARK    7  A    between atoms: N_19  and  C_20
REMARK    8  A    between atoms: C_20  and  C_21
REMARK    9  A    between atoms: C_20  and  C_28
REMARK   10  A    between atoms: C_21  and  C_22
REMARK   11  A    between atoms: N_30  and  C_31
REMARK   12  A    between atoms: C_31  and  C_32
REMARK                            x       y       z     vdW  Elec       q    Type
REMARK                         _______ _______ _______ _____ _____    ______ ____
ROOT
ATOM      1  C   UNL     1       1.933   8.892  18.341  0.00  0.00    +0.000 C 
ATOM      2  O   UNL     1       1.928   9.059  17.128  0.00  0.00    +0.000 OA
ATOM      3  N   UNL     1       2.250   7.674  18.932  0.00  0.00    +0.000 N 
ATOM      4  H   UNL     1       2.302   7.656  19.947  0.00  0.00    +0.000 HD
ENDROOT
BRANCH   1   5
ATOM      5  C   UNL     1       1.426   9.957  19.362  0.00  0.00    +0.000 C 
BRANCH   5   9
ATOM      6  C   UNL     1      -0.423   9.046  22.550  0.00  0.00    +0.000 C 
ATOM      7  C   UNL     1       0.477   9.842  21.644  0.00  0.00    +0.000 C 
ATOM      8  O   UNL     1       1.005  10.896  21.982  0.00  0.00    +0.000 OA
ATOM      9  N   UNL     1       0.666   9.269  20.411  0.00  0.00    +0.000 N 
ATOM     10  H   UNL     1       0.485   8.277  20.293  0.00  0.00    +0.000 HD
ENDBRANCH   5   9
BRANCH   5  11
ATOM     11  C   UNL     1       0.564  11.071  18.746  0.00  0.00    +0.000 C 
BRANCH  11  12
ATOM     12  C   UNL     1       1.366  12.301  18.461  0.00  0.00    +0.000 A 
ATOM     13  C   UNL     1       2.682  12.326  18.055  0.00  0.00    +0.000 A 
ATOM     14  N   UNL     1       3.109  13.624  18.079  0.00  0.00    +0.000 N 
ATOM     15  C   UNL     1       2.086  14.462  18.470  0.00  0.00    +0.000 A 
ATOM     16  C   UNL     1       2.094  15.845  18.727  0.00  0.00    +0.000 A 
ATOM     17  C   UNL     1       3.335  16.687  18.735  0.00  0.00    +0.000 C 
ATOM     18  C   UNL     1       0.850  16.433  19.019  0.00  0.00    +0.000 A 
ATOM     19  C   UNL     1      -0.316  15.677  19.097  0.00  0.00    +0.000 A 
ATOM     20  C   UNL     1      -0.278  14.290  18.919  0.00  0.00    +0.000 A 
ATOM     21  C   UNL     1       0.948  13.665  18.610  0.00  0.00    +0.000 A 
ATOM     22  H   UNL     1       4.048  13.928  17.869  0.00  0.00    +0.000 HD
ENDBRANCH  11  12
ENDBRANCH   5  11
ENDBRANCH   1   5
BRANCH   3  23
ATOM     23  C   UNL     1       2.723   6.482  18.196  0.00  0.00    +0.000 C 
BRANCH  23  24
ATOM     24  C   UNL     1       1.952   5.202  18.634  0.00  0.00    +0.000 C 
ATOM     25  O   UNL     1       1.487   4.389  17.837  0.00  0.00    +0.000 OA
ATOM     26  N   UNL     1       1.717   5.099  19.989  0.00  0.00    +0.000 N 
ATOM     27  H   UNL     1       2.064   5.820  20.615  0.00  0.00    +0.000 HD
BRANCH  26  28
ATOM     28  C   UNL     1       0.982   3.986  20.578  0.00  0.00    +0.000 C 
BRANCH  28  29
ATOM     29  C   UNL     1       1.829   2.737  20.855  0.00  0.00    +0.000 C 
ATOM     30  N   UNL     1       2.073   1.912  19.792  0.00  0.00    +0.000 N 
ATOM     31  O   UNL     1       2.201   2.419  21.986  0.00  0.00    +0.000 OA
ATOM     32  H   UNL     1       1.536   2.004  18.939  0.00  0.00    +0.000 HD
ATOM     33  H   UNL     1       2.515   1.026  19.989  0.00  0.00    +0.000 HD
ENDBRANCH  28  29
ENDBRANCH  26  28
ENDBRANCH  23  24
BRANCH  23  34
ATOM     34  C   UNL     1       4.253   6.227  18.274  0.00  0.00    +0.000 C 
BRANCH  34  35
ATOM     35  C   UNL     1       4.788   5.517  17.050  0.00  0.00    +0.000 A 
ATOM     36  C   UNL     1       5.057   4.141  17.061  0.00  0.00    +0.000 A 
ATOM     37  C   UNL     1       5.736   3.548  15.995  0.00  0.00    +0.000 A 
ATOM     38  C   UNL     1       6.146   4.323  14.912  0.00  0.00    +0.000 A 
ATOM     39  C   UNL     1       5.825   5.676  14.867  0.00  0.00    +0.000 A 
ATOM     40  C   UNL     1       5.126   6.264  15.917  0.00  0.00    +0.000 A 
ENDBRANCH  34  35
ENDBRANCH  23  34
ENDBRANCH   3  23
TORSDOF 10
ENDMDL
