MODEL 1
REMARK VINA RESULT:      -8.0      0.000      0.000
REMARK  Name = 
REMARK  6 active torsions:
REMARK  status: ('A' for Active; 'I' for Inactive)
REMARK    1  A    between atoms: C_1  and  O_2
REMARK    2  A    between atoms: O_2  and  C_3
REMARK    3  A    between atoms: C_6  and  C_7
REMARK    4  A    between atoms: N_9  and  C_10
REMARK    5  A    between atoms: C_15  and  C_16
REMARK    6  A    between atoms: C_16  and  C_17
REMARK                            x       y       z     vdW  Elec       q    Type
REMARK                         _______ _______ _______ _____ _____    ______ ____
ROOT
ATOM      1  C   UNL     1       2.541   7.212  18.126  0.00  0.00    +0.000 A 
ATOM      2  C   UNL     1       2.030   5.910  18.202  0.00  0.00    +0.000 A 
ATOM      3  C   UNL     1       2.869   4.804  18.125  0.00  0.00    +0.000 A 
ATOM      4  C   UNL     1       4.228   4.990  17.944  0.00  0.00    +0.000 A 
ATOM      5  F   UNL     1       5.003   3.896  17.889  0.00  0.00    +0.000 F 
ATOM      6  C   UNL     1       4.788   6.271  17.796  0.00  0.00    +0.000 A 
ATOM      7  C   UNL     1       3.918   7.383  17.888  0.00  0.00    +0.000 A 
ENDROOT
BRANCH   6   8
ATOM      8  C   UNL     1       6.306   6.371  17.540  0.00  0.00    +0.000 C 
ATOM      9  C   UNL     1       6.771   7.780  17.087  0.00  0.00    +0.000 C 
ATOM     10  N   UNL     1       6.979   6.219  18.845  0.00  0.00    +0.000 NA
ATOM     11  C   UNL     1       7.859   5.300  19.016  0.00  0.00    +0.000 C 
ATOM     12  N   UNL     1       8.480   5.212  20.234  0.00  0.00    +0.000 N 
ATOM     13  C   UNL     1       8.235   4.300  17.941  0.00  0.00    +0.000 C 
ATOM     14  O   UNL     1       7.733   4.453  16.642  0.00  0.00    +0.000 OA
ATOM     15  C   UNL     1       6.729   5.382  16.436  0.00  0.00    +0.000 C 
ATOM     16  C   UNL     1       6.157   5.395  15.220  0.00  0.00    +0.000 C 
ATOM     17  F   UNL     1       5.201   6.296  14.909  0.00  0.00    +0.000 F 
ATOM     18  F   UNL     1       6.549   4.507  14.280  0.00  0.00    +0.000 F 
ATOM     19  H   UNL     1       7.995   5.724  20.964  0.00  0.00    +0.000 HD
ATOM     20  H   UNL     1       8.828   4.306  20.525  0.00  0.00    +0.000 HD
ENDBRANCH   6   8
BRANCH   1  23
ATOM     21  C   UNL     1       1.300   8.847  19.523  0.00  0.00    +0.000 C 
ATOM     22  O   UNL     1       1.609   8.380  20.619  0.00  0.00    +0.000 OA
ATOM     23  N   UNL     1       1.716   8.353  18.290  0.00  0.00    +0.000 N 
ATOM     24  H   UNL     1       1.493   8.925  17.478  0.00  0.00    +0.000 HD
BRANCH  21  28
ATOM     25  C   UNL     1      -1.001  12.313  19.739  0.00  0.00    +0.000 A 
ATOM     26  C   UNL     1      -1.032  11.523  18.590  0.00  0.00    +0.000 A 
ATOM     27  N   UNL     1      -0.304  10.376  18.442  0.00  0.00    +0.000 NA
ATOM     28  C   UNL     1       0.458  10.062  19.528  0.00  0.00    +0.000 A 
ATOM     29  C   UNL     1       0.477  10.851  20.677  0.00  0.00    +0.000 A 
ATOM     30  N   UNL     1      -0.247  11.986  20.808  0.00  0.00    +0.000 NA
BRANCH  25  32
ATOM     31  C   UNL     1      -2.436  13.640  21.012  0.00  0.00    +0.000 C 
ATOM     32  O   UNL     1      -1.742  13.474  19.773  0.00  0.00    +0.000 OA
ENDBRANCH  25  32
ENDBRANCH  21  28
ENDBRANCH   1  23
TORSDOF 4
ENDMDL
MODEL 2
REMARK VINA RESULT:      -7.5      0.976      1.202
REMARK  Name = 
REMARK  6 active torsions:
REMARK  status: ('A' for Active; 'I' for Inactive)
REMARK    1  A    between atoms: C_1  and  O_2
REMARK    2  A    between atoms: O_2  and  C_3
REMARK    3  A    between atoms: C_6  and  C_7
REMARK    4  A    between atoms: N_9  and  C_10
REMARK    5  A    between atoms: C_15  and  C_16
REMARK    6  A    between atoms: C_16  and  C_17
REMARK                            x       y       z     vdW  Elec       q    Type
REMARK                         _______ _______ _______ _____ _____    ______ ____
ROOT
ATOM      1  C   UNL     1       2.463   6.984  18.606  0.00  0.00    +0.000 A 
ATOM      2  C   UNL     1       1.977   5.677  18.475  0.00  0.00    +0.000 A 
ATOM      3  C   UNL     1       2.824   4.626  18.143  0.00  0.00    +0.000 A 
ATOM      4  C   UNL     1       4.166   4.877  17.915  0.00  0.00    +0.000 A 
ATOM      5  F   UNL     1       4.951   3.833  17.612  0.00  0.00    +0.000 F 
ATOM      6  C   UNL     1       4.696   6.178  17.969  0.00  0.00    +0.000 A 
ATOM      7  C   UNL     1       3.818   7.232  18.318  0.00  0.00    +0.000 A 
ENDROOT
BRANCH   6   8
ATOM      8  C   UNL     1       6.192   6.364  17.641  0.00  0.00    +0.000 C 
ATOM      9  C   UNL     1       6.568   7.814  17.239  0.00  0.00    +0.000 C 
ATOM     10  N   UNL     1       6.940   6.181  18.901  0.00  0.00    +0.000 NA
ATOM     11  C   UNL     1       7.869   5.298  18.979  0.00  0.00    +0.000 C 
ATOM     12  N   UNL     1       8.558   5.179  20.158  0.00  0.00    +0.000 N 
ATOM     13  C   UNL     1       8.232   4.370  17.836  0.00  0.00    +0.000 C 
ATOM     14  O   UNL     1       7.655   4.563  16.574  0.00  0.00    +0.000 OA
ATOM     15  C   UNL     1       6.600   5.452  16.468  0.00  0.00    +0.000 C 
ATOM     16  C   UNL     1       5.964   5.497  15.285  0.00  0.00    +0.000 C 
ATOM     17  F   UNL     1       4.952   6.365  15.070  0.00  0.00    +0.000 F 
ATOM     18  F   UNL     1       6.345   4.676  14.282  0.00  0.00    +0.000 F 
ATOM     19  H   UNL     1       8.089   5.631  20.937  0.00  0.00    +0.000 HD
ATOM     20  H   UNL     1       8.962   4.279  20.383  0.00  0.00    +0.000 HD
ENDBRANCH   6   8
BRANCH   1  23
ATOM     21  C   UNL     1       1.469   9.242  18.322  0.00  0.00    +0.000 C 
ATOM     22  O   UNL     1       1.995   9.508  17.242  0.00  0.00    +0.000 OA
ATOM     23  N   UNL     1       1.633   8.054  19.028  0.00  0.00    +0.000 N 
ATOM     24  H   UNL     1       1.028   7.923  19.835  0.00  0.00    +0.000 HD
BRANCH  21  28
ATOM     25  C   UNL     1      -1.267  12.040  19.751  0.00  0.00    +0.000 A 
ATOM     26  C   UNL     1      -0.032  11.883  20.382  0.00  0.00    +0.000 A 
ATOM     27  N   UNL     1       0.914  10.985  19.975  0.00  0.00    +0.000 NA
ATOM     28  C   UNL     1       0.549  10.254  18.885  0.00  0.00    +0.000 A 
ATOM     29  C   UNL     1      -0.682  10.422  18.253  0.00  0.00    +0.000 A 
ATOM     30  N   UNL     1      -1.611  11.314  18.668  0.00  0.00    +0.000 NA
BRANCH  25  32
ATOM     31  C   UNL     1      -2.630  12.575  21.566  0.00  0.00    +0.000 C 
ATOM     32  O   UNL     1      -2.169  12.946  20.264  0.00  0.00    +0.000 OA
ENDBRANCH  25  32
ENDBRANCH  21  28
ENDBRANCH   1  23
TORSDOF 4
ENDMDL
MODEL 3
REMARK VINA RESULT:      -7.3      3.869      9.575
REMARK  Name = 
REMARK  6 active torsions:
REMARK  status: ('A' for Active; 'I' for Inactive)
REMARK    1  A    between atoms: C_1  and  O_2
REMARK    2  A    between atoms: O_2  and  C_3
REMARK    3  A    between atoms: C_6  and  C_7
REMARK    4  A    between atoms: N_9  and  C_10
REMARK    5  A    between atoms: C_15  and  C_16
REMARK    6  A    between atoms: C_16  and  C_17
REMARK                            x       y       z     vdW  Elec       q    Type
REMARK                         _______ _______ _______ _____ _____    ______ ____
ROOT
ATOM      1  C   UNL     1       0.893   9.649  18.125  0.00  0.00    +0.000 A 
ATOM      2  C   UNL     1      -0.428   9.451  17.705  0.00  0.00    +0.000 A 
ATOM      3  C   UNL     1      -1.415  10.393  17.970  0.00  0.00    +0.000 A 
ATOM      4  C   UNL     1      -1.095  11.534  18.683  0.00  0.00    +0.000 A 
ATOM      5  F   UNL     1      -2.074  12.424  18.905  0.00  0.00    +0.000 F 
ATOM      6  C   UNL     1       0.200  11.756  19.186  0.00  0.00    +0.000 A 
ATOM      7  C   UNL     1       1.191  10.789  18.896  0.00  0.00    +0.000 A 
ENDROOT
BRANCH   6   8
ATOM      8  C   UNL     1       0.443  13.030  20.019  0.00  0.00    +0.000 C 
ATOM      9  C   UNL     1       1.896  13.163  20.547  0.00  0.00    +0.000 C 
ATOM     10  N   UNL     1       0.335  14.180  19.099  0.00  0.00    +0.000 NA
ATOM     11  C   UNL     1      -0.502  15.124  19.340  0.00  0.00    +0.000 C 
ATOM     12  N   UNL     1      -0.551  16.186  18.475  0.00  0.00    +0.000 N 
ATOM     13  C   UNL     1      -1.447  15.115  20.525  0.00  0.00    +0.000 C 
ATOM     14  O   UNL     1      -1.321  14.124  21.507  0.00  0.00    +0.000 OA
ATOM     15  C   UNL     1      -0.485  13.052  21.249  0.00  0.00    +0.000 C 
ATOM     16  C   UNL     1      -0.507  12.041  22.134  0.00  0.00    +0.000 C 
ATOM     17  F   UNL     1       0.306  10.973  21.994  0.00  0.00    +0.000 F 
ATOM     18  F   UNL     1      -1.340  12.093  23.197  0.00  0.00    +0.000 F 
ATOM     19  H   UNL     1      -0.097  15.996  17.587  0.00  0.00    +0.000 HD
ATOM     20  H   UNL     1      -1.425  16.691  18.394  0.00  0.00    +0.000 HD
ENDBRANCH   6   8
BRANCH   1  23
ATOM     21  C   UNL     1       2.412   7.754  18.641  0.00  0.00    +0.000 C 
ATOM     22  O   UNL     1       1.991   7.521  19.773  0.00  0.00    +0.000 OA
ATOM     23  N   UNL     1       1.932   8.744  17.789  0.00  0.00    +0.000 N 
ATOM     24  H   UNL     1       2.285   8.727  16.835  0.00  0.00    +0.000 HD
BRANCH  21  28
ATOM     25  C   UNL     1       5.404   5.142  17.384  0.00  0.00    +0.000 A 
ATOM     26  C   UNL     1       5.109   6.281  16.633  0.00  0.00    +0.000 A 
ATOM     27  N   UNL     1       4.140   7.181  16.978  0.00  0.00    +0.000 NA
ATOM     28  C   UNL     1       3.486   6.873  18.133  0.00  0.00    +0.000 A 
ATOM     29  C   UNL     1       3.793   5.739  18.883  0.00  0.00    +0.000 A 
ATOM     30  N   UNL     1       4.753   4.854  18.529  0.00  0.00    +0.000 NA
BRANCH  25  32
ATOM     31  C   UNL     1       6.928   4.689  15.677  0.00  0.00    +0.000 C 
ATOM     32  O   UNL     1       6.373   4.274  16.928  0.00  0.00    +0.000 OA
ENDBRANCH  25  32
ENDBRANCH  21  28
ENDBRANCH   1  23
TORSDOF 4
ENDMDL
MODEL 4
REMARK VINA RESULT:      -7.2      3.042      4.074
REMARK  Name = 
REMARK  6 active torsions:
REMARK  status: ('A' for Active; 'I' for Inactive)
REMARK    1  A    between atoms: C_1  and  O_2
REMARK    2  A    between atoms: O_2  and  C_3
REMARK    3  A    between atoms: C_6  and  C_7
REMARK    4  A    between atoms: N_9  and  C_10
REMARK    5  A    between atoms: C_15  and  C_16
REMARK    6  A    between atoms: C_16  and  C_17
REMARK                            x       y       z     vdW  Elec       q    Type
REMARK                         _______ _______ _______ _____ _____    ______ ____
ROOT
ATOM      1  C   UNL     1       1.833   8.245  19.444  0.00  0.00    +0.000 A 
ATOM      2  C   UNL     1       2.206   8.488  18.116  0.00  0.00    +0.000 A 
ATOM      3  C   UNL     1       2.690   7.465  17.308  0.00  0.00    +0.000 A 
ATOM      4  C   UNL     1       2.829   6.191  17.830  0.00  0.00    +0.000 A 
ATOM      5  F   UNL     1       3.285   5.230  17.013  0.00  0.00    +0.000 F 
ATOM      6  C   UNL     1       2.531   5.904  19.174  0.00  0.00    +0.000 A 
ATOM      7  C   UNL     1       2.031   6.957  19.975  0.00  0.00    +0.000 A 
ENDROOT
BRANCH   6   8
ATOM      8  C   UNL     1       2.775   4.466  19.677  0.00  0.00    +0.000 C 
ATOM      9  C   UNL     1       2.903   4.358  21.219  0.00  0.00    +0.000 C 
ATOM     10  N   UNL     1       1.545   3.695  19.406  0.00  0.00    +0.000 NA
ATOM     11  C   UNL     1       1.597   2.623  18.702  0.00  0.00    +0.000 C 
ATOM     12  N   UNL     1       0.437   1.922  18.497  0.00  0.00    +0.000 N 
ATOM     13  C   UNL     1       2.874   2.101  18.074  0.00  0.00    +0.000 C 
ATOM     14  O   UNL     1       4.099   2.705  18.385  0.00  0.00    +0.000 OA
ATOM     15  C   UNL     1       4.078   3.903  19.078  0.00  0.00    +0.000 C 
ATOM     16  C   UNL     1       5.253   4.539  19.221  0.00  0.00    +0.000 C 
ATOM     17  F   UNL     1       5.343   5.690  19.921  0.00  0.00    +0.000 F 
ATOM     18  F   UNL     1       6.374   4.018  18.675  0.00  0.00    +0.000 F 
ATOM     19  H   UNL     1      -0.396   2.463  18.712  0.00  0.00    +0.000 HD
ATOM     20  H   UNL     1       0.362   1.362  17.657  0.00  0.00    +0.000 HD
ENDBRANCH   6   8
BRANCH   1  23
ATOM     21  C   UNL     1       0.199  10.067  19.862  0.00  0.00    +0.000 C 
ATOM     22  O   UNL     1      -0.383  10.006  18.780  0.00  0.00    +0.000 OA
ATOM     23  N   UNL     1       1.256   9.253  20.258  0.00  0.00    +0.000 N 
ATOM     24  H   UNL     1       1.544   9.329  21.231  0.00  0.00    +0.000 HD
BRANCH  21  28
ATOM     25  C   UNL     1      -1.184  12.715  22.767  0.00  0.00    +0.000 A 
ATOM     26  C   UNL     1      -1.181  13.089  21.422  0.00  0.00    +0.000 A 
ATOM     27  N   UNL     1      -0.740  12.279  20.414  0.00  0.00    +0.000 NA
ATOM     28  C   UNL     1      -0.306  11.059  20.836  0.00  0.00    +0.000 A 
ATOM     29  C   UNL     1      -0.320  10.687  22.180  0.00  0.00    +0.000 A 
ATOM     30  N   UNL     1      -0.757  11.501  23.168  0.00  0.00    +0.000 NA
BRANCH  25  32
ATOM     31  C   UNL     1      -3.024  13.558  23.925  0.00  0.00    +0.000 C 
ATOM     32  O   UNL     1      -1.612  13.621  23.712  0.00  0.00    +0.000 OA
ENDBRANCH  25  32
ENDBRANCH  21  28
ENDBRANCH   1  23
TORSDOF 4
ENDMDL
MODEL 5
REMARK VINA RESULT:      -7.2      5.259      7.369
REMARK  Name = 
REMARK  6 active torsions:
REMARK  status: ('A' for Active; 'I' for Inactive)
REMARK    1  A    between atoms: C_1  and  O_2
REMARK    2  A    between atoms: O_2  and  C_3
REMARK    3  A    between atoms: C_6  and  C_7
REMARK    4  A    between atoms: N_9  and  C_10
REMARK    5  A    between atoms: C_15  and  C_16
REMARK    6  A    between atoms: C_16  and  C_17
REMARK                            x       y       z     vdW  Elec       q    Type
REMARK                         _______ _______ _______ _____ _____    ______ ____
ROOT
ATOM      1  C   UNL     1       8.065   8.431  17.963  0.00  0.00    +0.000 A 
ATOM      2  C   UNL     1       8.531   7.556  18.952  0.00  0.00    +0.000 A 
ATOM      3  C   UNL     1       8.067   6.248  19.031  0.00  0.00    +0.000 A 
ATOM      4  C   UNL     1       7.110   5.808  18.134  0.00  0.00    +0.000 A 
ATOM      5  F   UNL     1       6.701   4.535  18.235  0.00  0.00    +0.000 F 
ATOM      6  C   UNL     1       6.560   6.661  17.160  0.00  0.00    +0.000 A 
ATOM      7  C   UNL     1       7.053   7.985  17.092  0.00  0.00    +0.000 A 
ENDROOT
BRANCH   6   8
ATOM      8  C   UNL     1       5.456   6.094  16.244  0.00  0.00    +0.000 C 
ATOM      9  C   UNL     1       4.702   7.179  15.431  0.00  0.00    +0.000 C 
ATOM     10  N   UNL     1       6.127   5.313  15.185  0.00  0.00    +0.000 NA
ATOM     11  C   UNL     1       5.825   4.079  15.003  0.00  0.00    +0.000 C 
ATOM     12  N   UNL     1       6.451   3.398  13.992  0.00  0.00    +0.000 N 
ATOM     13  C   UNL     1       4.821   3.333  15.859  0.00  0.00    +0.000 C 
ATOM     14  O   UNL     1       4.055   4.032  16.801  0.00  0.00    +0.000 OA
ATOM     15  C   UNL     1       4.400   5.343  17.078  0.00  0.00    +0.000 C 
ATOM     16  C   UNL     1       3.753   5.936  18.096  0.00  0.00    +0.000 C 
ATOM     17  F   UNL     1       3.987   7.227  18.414  0.00  0.00    +0.000 F 
ATOM     18  F   UNL     1       2.839   5.243  18.810  0.00  0.00    +0.000 F 
ATOM     19  H   UNL     1       7.282   3.872  13.650  0.00  0.00    +0.000 HD
ATOM     20  H   UNL     1       6.557   2.396  14.088  0.00  0.00    +0.000 HD
ENDBRANCH   6   8
BRANCH   1  23
ATOM     21  C   UNL     1       9.108  10.501  18.854  0.00  0.00    +0.000 C 
ATOM     22  O   UNL     1       9.201  10.135  20.025  0.00  0.00    +0.000 OA
ATOM     23  N   UNL     1       8.589   9.740  17.811  0.00  0.00    +0.000 N 
ATOM     24  H   UNL     1       8.704  10.122  16.875  0.00  0.00    +0.000 HD
BRANCH  21  28
ATOM     25  C   UNL     1      10.750  14.183  17.805  0.00  0.00    +0.000 A 
ATOM     26  C   UNL     1       9.674  14.123  18.693  0.00  0.00    +0.000 A 
ATOM     27  N   UNL     1       9.080  12.955  19.081  0.00  0.00    +0.000 NA
ATOM     28  C   UNL     1       9.638  11.842  18.528  0.00  0.00    +0.000 A 
ATOM     29  C   UNL     1      10.718  11.908  17.649  0.00  0.00    +0.000 A 
ATOM     30  N   UNL     1      11.295  13.072  17.271  0.00  0.00    +0.000 NA
BRANCH  25  32
ATOM     31  C   UNL     1      10.217  16.363  17.169  0.00  0.00    +0.000 C 
ATOM     32  O   UNL     1      11.252  15.415  17.445  0.00  0.00    +0.000 OA
ENDBRANCH  25  32
ENDBRANCH  21  28
ENDBRANCH   1  23
TORSDOF 4
ENDMDL
MODEL 6
REMARK VINA RESULT:      -7.1      3.806      8.701
REMARK  Name = 
REMARK  6 active torsions:
REMARK  status: ('A' for Active; 'I' for Inactive)
REMARK    1  A    between atoms: C_1  and  O_2
REMARK    2  A    between atoms: O_2  and  C_3
REMARK    3  A    between atoms: C_6  and  C_7
REMARK    4  A    between atoms: N_9  and  C_10
REMARK    5  A    between atoms: C_15  and  C_16
REMARK    6  A    between atoms: C_16  and  C_17
REMARK                            x       y       z     vdW  Elec       q    Type
REMARK                         _______ _______ _______ _____ _____    ______ ____
ROOT
ATOM      1  C   UNL     1       1.943   7.962  19.489  0.00  0.00    +0.000 A 
ATOM      2  C   UNL     1       1.515   7.187  20.574  0.00  0.00    +0.000 A 
ATOM      3  C   UNL     1       0.643   7.704  21.525  0.00  0.00    +0.000 A 
ATOM      4  C   UNL     1       0.209   9.014  21.414  0.00  0.00    +0.000 A 
ATOM      5  F   UNL     1      -0.643   9.468  22.344  0.00  0.00    +0.000 F 
ATOM      6  C   UNL     1       0.657   9.857  20.381  0.00  0.00    +0.000 A 
ATOM      7  C   UNL     1       1.536   9.308  19.419  0.00  0.00    +0.000 A 
ENDROOT
BRANCH   6   8
ATOM      8  C   UNL     1       0.162  11.318  20.375  0.00  0.00    +0.000 C 
ATOM      9  C   UNL     1      -1.017  11.582  21.348  0.00  0.00    +0.000 C 
ATOM     10  N   UNL     1       1.241  12.145  20.953  0.00  0.00    +0.000 NA
ATOM     11  C   UNL     1       1.728  13.129  20.287  0.00  0.00    +0.000 C 
ATOM     12  N   UNL     1       2.709  13.888  20.871  0.00  0.00    +0.000 N 
ATOM     13  C   UNL     1       1.283  13.483  18.882  0.00  0.00    +0.000 C 
ATOM     14  O   UNL     1       0.184  12.826  18.314  0.00  0.00    +0.000 OA
ATOM     15  C   UNL     1      -0.320  11.715  18.967  0.00  0.00    +0.000 C 
ATOM     16  C   UNL     1      -1.266  11.012  18.321  0.00  0.00    +0.000 C 
ATOM     17  F   UNL     1      -1.852   9.939  18.895  0.00  0.00    +0.000 F 
ATOM     18  F   UNL     1      -1.658  11.386  17.083  0.00  0.00    +0.000 F 
ATOM     19  H   UNL     1       3.132  13.437  21.676  0.00  0.00    +0.000 HD
ATOM     20  H   UNL     1       3.369  14.357  20.265  0.00  0.00    +0.000 HD
ENDBRANCH   6   8
BRANCH   1  23
ATOM     21  C   UNL     1       3.567   6.302  18.610  0.00  0.00    +0.000 C 
ATOM     22  O   UNL     1       3.657   5.618  19.629  0.00  0.00    +0.000 OA
ATOM     23  N   UNL     1       2.762   7.427  18.462  0.00  0.00    +0.000 N 
ATOM     24  H   UNL     1       2.687   7.806  17.521  0.00  0.00    +0.000 HD
BRANCH  21  28
ATOM     25  C   UNL     1       5.789   5.255  15.245  0.00  0.00    +0.000 A 
ATOM     26  C   UNL     1       5.277   4.263  16.083  0.00  0.00    +0.000 A 
ATOM     27  N   UNL     1       4.543   4.527  17.205  0.00  0.00    +0.000 NA
ATOM     28  C   UNL     1       4.346   5.855  17.435  0.00  0.00    +0.000 A 
ATOM     29  C   UNL     1       4.852   6.841  16.589  0.00  0.00    +0.000 A 
ATOM     30  N   UNL     1       5.579   6.565  15.483  0.00  0.00    +0.000 NA
BRANCH  25  32
ATOM     31  C   UNL     1       6.010   3.750  13.477  0.00  0.00    +0.000 C 
ATOM     32  O   UNL     1       6.552   4.884  14.159  0.00  0.00    +0.000 OA
ENDBRANCH  25  32
ENDBRANCH  21  28
ENDBRANCH   1  23
TORSDOF 4
ENDMDL
MODEL 7
REMARK VINA RESULT:      -7.1      3.815      9.522
REMARK  Name = 
REMARK  6 active torsions:
REMARK  status: ('A' for Active; 'I' for Inactive)
REMARK    1  A    between atoms: C_1  and  O_2
REMARK    2  A    between atoms: O_2  and  C_3
REMARK    3  A    between atoms: C_6  and  C_7
REMARK    4  A    between atoms: N_9  and  C_10
REMARK    5  A    between atoms: C_15  and  C_16
REMARK    6  A    between atoms: C_16  and  C_17
REMARK                            x       y       z     vdW  Elec       q    Type
REMARK                         _______ _______ _______ _____ _____    ______ ____
ROOT
ATOM      1  C   UNL     1       1.400   8.681  19.903  0.00  0.00    +0.000 A 
ATOM      2  C   UNL     1       1.025   8.299  21.197  0.00  0.00    +0.000 A 
ATOM      3  C   UNL     1       0.163   9.083  21.956  0.00  0.00    +0.000 A 
ATOM      4  C   UNL     1      -0.313  10.273  21.435  0.00  0.00    +0.000 A 
ATOM      5  F   UNL     1      -1.154  10.992  22.194  0.00  0.00    +0.000 F 
ATOM      6  C   UNL     1       0.080  10.738  20.168  0.00  0.00    +0.000 A 
ATOM      7  C   UNL     1       0.950   9.920  19.409  0.00  0.00    +0.000 A 
ENDROOT
BRANCH   6   8
ATOM      8  C   UNL     1      -0.458  12.105  19.700  0.00  0.00    +0.000 C 
ATOM      9  C   UNL     1       0.164  12.599  18.367  0.00  0.00    +0.000 C 
ATOM     10  N   UNL     1      -1.877  11.913  19.335  0.00  0.00    +0.000 NA
ATOM     11  C   UNL     1      -2.790  12.622  19.894  0.00  0.00    +0.000 C 
ATOM     12  N   UNL     1      -4.090  12.431  19.507  0.00  0.00    +0.000 N 
ATOM     13  C   UNL     1      -2.502  13.649  20.971  0.00  0.00    +0.000 C 
ATOM     14  O   UNL     1      -1.176  13.976  21.283  0.00  0.00    +0.000 OA
ATOM     15  C   UNL     1      -0.169  13.186  20.759  0.00  0.00    +0.000 C 
ATOM     16  C   UNL     1       1.078  13.423  21.202  0.00  0.00    +0.000 C 
ATOM     17  F   UNL     1       2.134  12.736  20.716  0.00  0.00    +0.000 F 
ATOM     18  F   UNL     1       1.292  14.375  22.137  0.00  0.00    +0.000 F 
ATOM     19  H   UNL     1      -4.228  11.563  18.996  0.00  0.00    +0.000 HD
ATOM     20  H   UNL     1      -4.820  12.638  20.177  0.00  0.00    +0.000 HD
ENDBRANCH   6   8
BRANCH   1  23
ATOM     21  C   UNL     1       2.460   6.509  19.333  0.00  0.00    +0.000 C 
ATOM     22  O   UNL     1       2.005   5.862  20.276  0.00  0.00    +0.000 OA
ATOM     23  N   UNL     1       2.206   7.854  19.080  0.00  0.00    +0.000 N 
ATOM     24  H   UNL     1       2.540   8.215  18.190  0.00  0.00    +0.000 HD
BRANCH  21  28
ATOM     25  C   UNL     1       4.921   4.637  16.541  0.00  0.00    +0.000 A 
ATOM     26  C   UNL     1       4.078   3.877  17.352  0.00  0.00    +0.000 A 
ATOM     27  N   UNL     1       3.245   4.417  18.292  0.00  0.00    +0.000 NA
ATOM     28  C   UNL     1       3.305   5.776  18.366  0.00  0.00    +0.000 A 
ATOM     29  C   UNL     1       4.142   6.531  17.546  0.00  0.00    +0.000 A 
ATOM     30  N   UNL     1       4.963   5.982  16.621  0.00  0.00    +0.000 NA
BRANCH  25  32
ATOM     31  C   UNL     1       6.877   4.794  15.280  0.00  0.00    +0.000 C 
ATOM     32  O   UNL     1       5.752   3.993  15.651  0.00  0.00    +0.000 OA
ENDBRANCH  25  32
ENDBRANCH  21  28
ENDBRANCH   1  23
TORSDOF 4
ENDMDL
MODEL 8
REMARK VINA RESULT:      -7.0      4.371      8.904
REMARK  Name = 
REMARK  6 active torsions:
REMARK  status: ('A' for Active; 'I' for Inactive)
REMARK    1  A    between atoms: C_1  and  O_2
REMARK    2  A    between atoms: O_2  and  C_3
REMARK    3  A    between atoms: C_6  and  C_7
REMARK    4  A    between atoms: N_9  and  C_10
REMARK    5  A    between atoms: C_15  and  C_16
REMARK    6  A    between atoms: C_16  and  C_17
REMARK                            x       y       z     vdW  Elec       q    Type
REMARK                         _______ _______ _______ _____ _____    ______ ____
ROOT
ATOM      1  C   UNL     1       0.684   9.221  21.707  0.00  0.00    +0.000 A 
ATOM      2  C   UNL     1      -0.221   9.159  22.774  0.00  0.00    +0.000 A 
ATOM      3  C   UNL     1      -0.918  10.287  23.189  0.00  0.00    +0.000 A 
ATOM      4  C   UNL     1      -0.696  11.498  22.557  0.00  0.00    +0.000 A 
ATOM      5  F   UNL     1      -1.400  12.559  22.979  0.00  0.00    +0.000 F 
ATOM      6  C   UNL     1       0.248  11.632  21.523  0.00  0.00    +0.000 A 
ATOM      7  C   UNL     1       0.939  10.469  21.110  0.00  0.00    +0.000 A 
ENDROOT
BRANCH   6   8
ATOM      8  C   UNL     1       0.465  13.035  20.921  0.00  0.00    +0.000 C 
ATOM      9  C   UNL     1      -0.440  14.130  21.544  0.00  0.00    +0.000 C 
ATOM     10  N   UNL     1       1.817  13.476  21.322  0.00  0.00    +0.000 NA
ATOM     11  C   UNL     1       2.677  13.815  20.430  0.00  0.00    +0.000 C 
ATOM     12  N   UNL     1       3.910  14.245  20.846  0.00  0.00    +0.000 N 
ATOM     13  C   UNL     1       2.401  13.751  18.941  0.00  0.00    +0.000 C 
ATOM     14  O   UNL     1       1.107  13.461  18.486  0.00  0.00    +0.000 OA
ATOM     15  C   UNL     1       0.175  13.020  19.408  0.00  0.00    +0.000 C 
ATOM     16  C   UNL     1      -1.004  12.598  18.921  0.00  0.00    +0.000 C 
ATOM     17  F   UNL     1      -1.995  12.192  19.744  0.00  0.00    +0.000 F 
ATOM     18  F   UNL     1      -1.220  12.592  17.587  0.00  0.00    +0.000 F 
ATOM     19  H   UNL     1       4.107  14.008  21.814  0.00  0.00    +0.000 HD
ATOM     20  H   UNL     1       4.694  14.113  20.219  0.00  0.00    +0.000 HD
ENDBRANCH   6   8
BRANCH   1  23
ATOM     21  C   UNL     1       1.769   7.913  19.897  0.00  0.00    +0.000 C 
ATOM     22  O   UNL     1       1.663   8.758  19.009  0.00  0.00    +0.000 OA
ATOM     23  N   UNL     1       1.339   8.064  21.211  0.00  0.00    +0.000 N 
ATOM     24  H   UNL     1       1.619   7.335  21.864  0.00  0.00    +0.000 HD
BRANCH  21  28
ATOM     25  C   UNL     1       3.782   4.463  18.710  0.00  0.00    +0.000 A 
ATOM     26  C   UNL     1       3.059   4.476  19.904  0.00  0.00    +0.000 A 
ATOM     27  N   UNL     1       2.377   5.569  20.361  0.00  0.00    +0.000 NA
ATOM     28  C   UNL     1       2.458   6.653  19.540  0.00  0.00    +0.000 A 
ATOM     29  C   UNL     1       3.173   6.630  18.344  0.00  0.00    +0.000 A 
ATOM     30  N   UNL     1       3.846   5.542  17.905  0.00  0.00    +0.000 NA
BRANCH  25  32
ATOM     31  C   UNL     1       3.617   2.175  18.289  0.00  0.00    +0.000 C 
ATOM     32  O   UNL     1       4.468   3.322  18.357  0.00  0.00    +0.000 OA
ENDBRANCH  25  32
ENDBRANCH  21  28
ENDBRANCH   1  23
TORSDOF 4
ENDMDL
MODEL 9
REMARK VINA RESULT:      -7.0      4.051      8.755
REMARK  Name = 
REMARK  6 active torsions:
REMARK  status: ('A' for Active; 'I' for Inactive)
REMARK    1  A    between atoms: C_1  and  O_2
REMARK    2  A    between atoms: O_2  and  C_3
REMARK    3  A    between atoms: C_6  and  C_7
REMARK    4  A    between atoms: N_9  and  C_10
REMARK    5  A    between atoms: C_15  and  C_16
REMARK    6  A    between atoms: C_16  and  C_17
REMARK                            x       y       z     vdW  Elec       q    Type
REMARK                         _______ _______ _______ _____ _____    ______ ____
ROOT
ATOM      1  C   UNL     1       1.215   8.544  20.662  0.00  0.00    +0.000 A 
ATOM      2  C   UNL     1       0.366   8.092  21.680  0.00  0.00    +0.000 A 
ATOM      3  C   UNL     1      -0.494   8.964  22.338  0.00  0.00    +0.000 A 
ATOM      4  C   UNL     1      -0.495  10.306  22.000  0.00  0.00    +0.000 A 
ATOM      5  F   UNL     1      -1.350  11.110  22.649  0.00  0.00    +0.000 F 
ATOM      6  C   UNL     1       0.381  10.827  21.032  0.00  0.00    +0.000 A 
ATOM      7  C   UNL     1       1.241   9.920  20.368  0.00  0.00    +0.000 A 
ENDROOT
BRANCH   6   8
ATOM      8  C   UNL     1       0.346  12.346  20.767  0.00  0.00    +0.000 C 
ATOM      9  C   UNL     1      -0.668  13.112  21.658  0.00  0.00    +0.000 C 
ATOM     10  N   UNL     1       1.641  12.897  21.217  0.00  0.00    +0.000 NA
ATOM     11  C   UNL     1       2.378  13.562  20.403  0.00  0.00    +0.000 C 
ATOM     12  N   UNL     1       3.559  14.079  20.868  0.00  0.00    +0.000 N 
ATOM     13  C   UNL     1       2.013  13.791  18.949  0.00  0.00    +0.000 C 
ATOM     14  O   UNL     1       0.750  13.408  18.480  0.00  0.00    +0.000 OA
ATOM     15  C   UNL     1      -0.041  12.627  19.302  0.00  0.00    +0.000 C 
ATOM     16  C   UNL     1      -1.175  12.142  18.768  0.00  0.00    +0.000 C 
ATOM     17  F   UNL     1      -2.035  11.406  19.504  0.00  0.00    +0.000 F 
ATOM     18  F   UNL     1      -1.478  12.402  17.477  0.00  0.00    +0.000 F 
ATOM     19  H   UNL     1       3.854  13.664  21.746  0.00  0.00    +0.000 HD
ATOM     20  H   UNL     1       4.309  14.220  20.203  0.00  0.00    +0.000 HD
ENDBRANCH   6   8
BRANCH   1  23
ATOM     21  C   UNL     1       2.210   7.722  18.541  0.00  0.00    +0.000 C 
ATOM     22  O   UNL     1       1.703   8.560  17.797  0.00  0.00    +0.000 OA
ATOM     23  N   UNL     1       2.035   7.657  19.920  0.00  0.00    +0.000 N 
ATOM     24  H   UNL     1       2.626   6.995  20.418  0.00  0.00    +0.000 HD
BRANCH  21  28
ATOM     25  C   UNL     1       4.634   4.785  16.852  0.00  0.00    +0.000 A 
ATOM     26  C   UNL     1       4.982   6.132  16.737  0.00  0.00    +0.000 A 
ATOM     27  N   UNL     1       4.237   7.151  17.260  0.00  0.00    +0.000 NA
ATOM     28  C   UNL     1       3.118   6.736  17.916  0.00  0.00    +0.000 A 
ATOM     29  C   UNL     1       2.781   5.389  18.036  0.00  0.00    +0.000 A 
ATOM     30  N   UNL     1       3.527   4.390  17.511  0.00  0.00    +0.000 NA
BRANCH  25  32
ATOM     31  C   UNL     1       5.801   4.197  14.920  0.00  0.00    +0.000 C 
ATOM     32  O   UNL     1       5.433   3.835  16.254  0.00  0.00    +0.000 OA
ENDBRANCH  25  32
ENDBRANCH  21  28
ENDBRANCH   1  23
TORSDOF 4
ENDMDL
