MODEL 1
REMARK VINA RESULT:      -7.1      0.000      0.000
REMARK  Name = 
REMARK  5 active torsions:
REMARK  status: ('A' for Active; 'I' for Inactive)
REMARK    1  A    between atoms: C_1  and  N_2
REMARK    2  A    between atoms: N_2  and  C_3
REMARK    3  A    between atoms: N_2  and  C_16
REMARK    4  A    between atoms: C_3  and  C_4
REMARK    5  A    between atoms: C_16  and  C_17
REMARK                            x       y       z     vdW  Elec       q    Type
REMARK                         _______ _______ _______ _____ _____    ______ ____
ROOT
ATOM      1  C   UNL     1       6.051   6.197  17.414  0.00  0.00    +0.000 C 
ATOM      2  N   UNL     1       4.873   5.632  18.084  0.00  0.00    +0.000 NA
ENDROOT
BRANCH   2   3
ATOM      3  C   UNL     1       4.062   6.737  18.635  0.00  0.00    +0.000 C 
BRANCH   3   4
ATOM      4  C   UNL     1       2.522   6.572  18.606  0.00  0.00    +0.000 C 
ATOM      5  C   UNL     1       1.878   7.704  17.786  0.00  0.00    +0.000 C 
ATOM      6  C   UNL     1       1.908   9.046  18.515  0.00  0.00    +0.000 C 
ATOM      7  N   UNL     1       1.256   8.890  19.805  0.00  0.00    +0.000 N 
ATOM      8  C   UNL     1       0.644  10.008  20.345  0.00  0.00    +0.000 A 
ATOM      9  N   UNL     1       0.420  11.068  19.543  0.00  0.00    +0.000 NA
ATOM     10  C   UNL     1      -0.310  12.089  20.023  0.00  0.00    +0.000 A 
ATOM     11  C   UNL     1      -0.828  12.115  21.289  0.00  0.00    +0.000 A 
ATOM     12  C   UNL     1      -0.525  11.020  22.055  0.00  0.00    +0.000 A 
ATOM     13  N   UNL     1       0.204   9.975  21.614  0.00  0.00    +0.000 NA
ATOM     14  C   UNL     1       1.775   7.867  20.710  0.00  0.00    +0.000 C 
ATOM     15  C   UNL     1       1.848   6.515  19.988  0.00  0.00    +0.000 C 
ENDBRANCH   3   4
ENDBRANCH   2   3
BRANCH   2  16
ATOM     16  C   UNL     1       4.102   4.763  17.160  0.00  0.00    +0.000 C 
BRANCH  16  17
ATOM     17  C   UNL     1       4.247   3.234  17.415  0.00  0.00    +0.000 C 
ATOM     18  C   UNL     1       3.053   2.429  16.896  0.00  0.00    +0.000 C 
ATOM     19  O   UNL     1       1.836   2.809  17.546  0.00  0.00    +0.000 OA
ATOM     20  C   UNL     1       2.008   2.888  18.903  0.00  0.00    +0.000 A 
ATOM     21  C   UNL     1       0.851   2.948  19.676  0.00  0.00    +0.000 A 
ATOM     22  C   UNL     1       0.955   3.035  21.069  0.00  0.00    +0.000 A 
ATOM     23  C   UNL     1       2.209   3.060  21.678  0.00  0.00    +0.000 A 
ATOM     24  C   UNL     1       3.366   3.015  20.903  0.00  0.00    +0.000 A 
ATOM     25  C   UNL     1       3.266   2.945  19.515  0.00  0.00    +0.000 A 
ATOM     26  O   UNL     1       4.445   2.957  18.814  0.00  0.00    +0.000 OA
ENDBRANCH  16  17
ENDBRANCH   2  16
TORSDOF 4
ENDMDL
MODEL 2
REMARK VINA RESULT:      -6.7      5.750      8.404
REMARK  Name = 
REMARK  5 active torsions:
REMARK  status: ('A' for Active; 'I' for Inactive)
REMARK    1  A    between atoms: C_1  and  N_2
REMARK    2  A    between atoms: N_2  and  C_3
REMARK    3  A    between atoms: N_2  and  C_16
REMARK    4  A    between atoms: C_3  and  C_4
REMARK    5  A    between atoms: C_16  and  C_17
REMARK                            x       y       z     vdW  Elec       q    Type
REMARK                         _______ _______ _______ _____ _____    ______ ____
ROOT
ATOM      1  C   UNL     1      -2.693  10.213  15.825  0.00  0.00    +0.000 C 
ATOM      2  N   UNL     1      -2.991  10.705  17.176  0.00  0.00    +0.000 NA
ENDROOT
BRANCH   2   3
ATOM      3  C   UNL     1      -4.375  10.329  17.527  0.00  0.00    +0.000 C 
BRANCH   3   4
ATOM      4  C   UNL     1      -5.426  11.465  17.591  0.00  0.00    +0.000 C 
ATOM      5  C   UNL     1      -4.872  12.662  18.383  0.00  0.00    +0.000 C 
ATOM      6  C   UNL     1      -4.802  12.389  19.884  0.00  0.00    +0.000 C 
ATOM      7  N   UNL     1      -6.126  12.011  20.352  0.00  0.00    +0.000 N 
ATOM      8  C   UNL     1      -6.438  12.301  21.669  0.00  0.00    +0.000 A 
ATOM      9  N   UNL     1      -5.650  13.163  22.342  0.00  0.00    +0.000 NA
ATOM     10  C   UNL     1      -6.039  13.563  23.565  0.00  0.00    +0.000 A 
ATOM     11  C   UNL     1      -7.189  13.131  24.169  0.00  0.00    +0.000 A 
ATOM     12  C   UNL     1      -7.916  12.228  23.438  0.00  0.00    +0.000 A 
ATOM     13  N   UNL     1      -7.562  11.800  22.209  0.00  0.00    +0.000 NA
ATOM     14  C   UNL     1      -6.774  10.870  19.710  0.00  0.00    +0.000 C 
ATOM     15  C   UNL     1      -6.785  11.060  18.188  0.00  0.00    +0.000 C 
ENDBRANCH   3   4
ENDBRANCH   2   3
BRANCH   2  16
ATOM     16  C   UNL     1      -1.996  10.202  18.156  0.00  0.00    +0.000 C 
BRANCH  16  17
ATOM     17  C   UNL     1      -0.849  11.196  18.504  0.00  0.00    +0.000 C 
ATOM     18  C   UNL     1       0.532  10.538  18.487  0.00  0.00    +0.000 C 
ATOM     19  O   UNL     1       0.631   9.491  19.457  0.00  0.00    +0.000 OA
ATOM     20  C   UNL     1       0.133   9.894  20.668  0.00  0.00    +0.000 A 
ATOM     21  C   UNL     1       0.440   9.094  21.766  0.00  0.00    +0.000 A 
ATOM     22  C   UNL     1      -0.042   9.445  23.033  0.00  0.00    +0.000 A 
ATOM     23  C   UNL     1      -0.822  10.590  23.192  0.00  0.00    +0.000 A 
ATOM     24  C   UNL     1      -1.139  11.381  22.091  0.00  0.00    +0.000 A 
ATOM     25  C   UNL     1      -0.676  11.025  20.827  0.00  0.00    +0.000 A 
ATOM     26  O   UNL     1      -1.072  11.820  19.781  0.00  0.00    +0.000 OA
ENDBRANCH  16  17
ENDBRANCH   2  16
TORSDOF 4
ENDMDL
MODEL 3
REMARK VINA RESULT:      -6.6      1.953      4.379
REMARK  Name = 
REMARK  5 active torsions:
REMARK  status: ('A' for Active; 'I' for Inactive)
REMARK    1  A    between atoms: C_1  and  N_2
REMARK    2  A    between atoms: N_2  and  C_3
REMARK    3  A    between atoms: N_2  and  C_16
REMARK    4  A    between atoms: C_3  and  C_4
REMARK    5  A    between atoms: C_16  and  C_17
REMARK                            x       y       z     vdW  Elec       q    Type
REMARK                         _______ _______ _______ _____ _____    ______ ____
ROOT
ATOM      1  C   UNL     1       1.133   4.373  20.454  0.00  0.00    +0.000 C 
ATOM      2  N   UNL     1       1.556   5.672  19.914  0.00  0.00    +0.000 NA
ENDROOT
BRANCH   2   3
ATOM      3  C   UNL     1       1.097   6.740  20.824  0.00  0.00    +0.000 C 
BRANCH   3   4
ATOM      4  C   UNL     1       1.764   8.131  20.683  0.00  0.00    +0.000 C 
ATOM      5  C   UNL     1       1.778   8.857  22.039  0.00  0.00    +0.000 C 
ATOM      6  C   UNL     1       0.394   9.356  22.450  0.00  0.00    +0.000 C 
ATOM      7  N   UNL     1      -0.126  10.212  21.396  0.00  0.00    +0.000 N 
ATOM      8  C   UNL     1      -1.012  11.208  21.769  0.00  0.00    +0.000 A 
ATOM      9  N   UNL     1      -1.109  11.527  23.074  0.00  0.00    +0.000 NA
ATOM     10  C   UNL     1      -1.850  12.594  23.418  0.00  0.00    +0.000 A 
ATOM     11  C   UNL     1      -2.522  13.368  22.512  0.00  0.00    +0.000 A 
ATOM     12  C   UNL     1      -2.405  12.958  21.209  0.00  0.00    +0.000 A 
ATOM     13  N   UNL     1      -1.673  11.894  20.821  0.00  0.00    +0.000 NA
ATOM     14  C   UNL     1      -0.224   9.650  20.051  0.00  0.00    +0.000 C 
ATOM     15  C   UNL     1       1.126   9.054  19.630  0.00  0.00    +0.000 C 
ENDBRANCH   3   4
ENDBRANCH   2   3
BRANCH   2  16
ATOM     16  C   UNL     1       3.023   5.702  19.690  0.00  0.00    +0.000 C 
BRANCH  16  17
ATOM     17  C   UNL     1       3.524   4.879  18.467  0.00  0.00    +0.000 C 
ATOM     18  C   UNL     1       4.435   3.717  18.867  0.00  0.00    +0.000 C 
ATOM     19  O   UNL     1       5.620   4.176  19.525  0.00  0.00    +0.000 OA
ATOM     20  C   UNL     1       6.185   5.223  18.847  0.00  0.00    +0.000 A 
ATOM     21  C   UNL     1       7.488   5.565  19.200  0.00  0.00    +0.000 A 
ATOM     22  C   UNL     1       8.123   6.629  18.549  0.00  0.00    +0.000 A 
ATOM     23  C   UNL     1       7.455   7.340  17.553  0.00  0.00    +0.000 A 
ATOM     24  C   UNL     1       6.147   7.006  17.211  0.00  0.00    +0.000 A 
ATOM     25  C   UNL     1       5.506   5.959  17.868  0.00  0.00    +0.000 A 
ATOM     26  O   UNL     1       4.201   5.720  17.517  0.00  0.00    +0.000 OA
ENDBRANCH  16  17
ENDBRANCH   2  16
TORSDOF 4
ENDMDL
MODEL 4
REMARK VINA RESULT:      -6.6      3.531      4.964
REMARK  Name = 
REMARK  5 active torsions:
REMARK  status: ('A' for Active; 'I' for Inactive)
REMARK    1  A    between atoms: C_1  and  N_2
REMARK    2  A    between atoms: N_2  and  C_3
REMARK    3  A    between atoms: N_2  and  C_16
REMARK    4  A    between atoms: C_3  and  C_4
REMARK    5  A    between atoms: C_16  and  C_17
REMARK                            x       y       z     vdW  Elec       q    Type
REMARK                         _______ _______ _______ _____ _____    ______ ____
ROOT
ATOM      1  C   UNL     1       2.021  10.108  18.045  0.00  0.00    +0.000 C 
ATOM      2  N   UNL     1       1.334   9.378  19.118  0.00  0.00    +0.000 NA
ENDROOT
BRANCH   2   3
ATOM      3  C   UNL     1      -0.046   9.890  19.236  0.00  0.00    +0.000 C 
BRANCH   3   4
ATOM      4  C   UNL     1      -0.587  10.755  18.071  0.00  0.00    +0.000 C 
ATOM      5  C   UNL     1      -1.100  12.105  18.601  0.00  0.00    +0.000 C 
ATOM      6  C   UNL     1      -2.418  11.973  19.361  0.00  0.00    +0.000 C 
ATOM      7  N   UNL     1      -3.396  11.339  18.492  0.00  0.00    +0.000 N 
ATOM      8  C   UNL     1      -4.728  11.651  18.704  0.00  0.00    +0.000 A 
ATOM      9  N   UNL     1      -5.024  12.720  19.469  0.00  0.00    +0.000 NA
ATOM     10  C   UNL     1      -6.307  13.114  19.548  0.00  0.00    +0.000 A 
ATOM     11  C   UNL     1      -7.331  12.478  18.901  0.00  0.00    +0.000 A 
ATOM     12  C   UNL     1      -6.955  11.378  18.174  0.00  0.00    +0.000 A 
ATOM     13  N   UNL     1      -5.682  10.949  18.069  0.00  0.00    +0.000 NA
ATOM     14  C   UNL     1      -3.060  10.033  17.929  0.00  0.00    +0.000 C 
ATOM     15  C   UNL     1      -1.695  10.097  17.231  0.00  0.00    +0.000 C 
ENDBRANCH   3   4
ENDBRANCH   2   3
BRANCH   2  16
ATOM     16  C   UNL     1       1.382   7.913  18.879  0.00  0.00    +0.000 C 
BRANCH  16  17
ATOM     17  C   UNL     1       2.678   7.205  19.373  0.00  0.00    +0.000 C 
ATOM     18  C   UNL     1       3.471   6.557  18.236  0.00  0.00    +0.000 C 
ATOM     19  O   UNL     1       2.711   5.541  17.574  0.00  0.00    +0.000 OA
ATOM     20  C   UNL     1       2.106   4.712  18.480  0.00  0.00    +0.000 A 
ATOM     21  C   UNL     1       1.592   3.515  17.985  0.00  0.00    +0.000 A 
ATOM     22  C   UNL     1       0.956   2.623  18.856  0.00  0.00    +0.000 A 
ATOM     23  C   UNL     1       0.839   2.931  20.211  0.00  0.00    +0.000 A 
ATOM     24  C   UNL     1       1.340   4.135  20.702  0.00  0.00    +0.000 A 
ATOM     25  C   UNL     1       1.959   5.032  19.835  0.00  0.00    +0.000 A 
ATOM     26  O   UNL     1       2.380   6.219  20.377  0.00  0.00    +0.000 OA
ENDBRANCH  16  17
ENDBRANCH   2  16
TORSDOF 4
ENDMDL
MODEL 5
REMARK VINA RESULT:      -6.5      2.711      4.980
REMARK  Name = 
REMARK  5 active torsions:
REMARK  status: ('A' for Active; 'I' for Inactive)
REMARK    1  A    between atoms: C_1  and  N_2
REMARK    2  A    between atoms: N_2  and  C_3
REMARK    3  A    between atoms: N_2  and  C_16
REMARK    4  A    between atoms: C_3  and  C_4
REMARK    5  A    between atoms: C_16  and  C_17
REMARK                            x       y       z     vdW  Elec       q    Type
REMARK                         _______ _______ _______ _____ _____    ______ ____
ROOT
ATOM      1  C   UNL     1       3.507   3.638  18.299  0.00  0.00    +0.000 C 
ATOM      2  N   UNL     1       3.260   4.621  17.237  0.00  0.00    +0.000 NA
ENDROOT
BRANCH   2   3
ATOM      3  C   UNL     1       2.467   5.736  17.794  0.00  0.00    +0.000 C 
BRANCH   3   4
ATOM      4  C   UNL     1       3.244   6.896  18.466  0.00  0.00    +0.000 C 
ATOM      5  C   UNL     1       3.127   6.800  19.997  0.00  0.00    +0.000 C 
ATOM      6  C   UNL     1       1.740   7.188  20.504  0.00  0.00    +0.000 C 
ATOM      7  N   UNL     1       1.428   8.527  20.031  0.00  0.00    +0.000 N 
ATOM      8  C   UNL     1       0.573   9.289  20.809  0.00  0.00    +0.000 A 
ATOM      9  N   UNL     1       0.325   8.891  22.072  0.00  0.00    +0.000 NA
ATOM     10  C   UNL     1      -0.378   9.709  22.874  0.00  0.00    +0.000 A 
ATOM     11  C   UNL     1      -0.866  10.922  22.471  0.00  0.00    +0.000 A 
ATOM     12  C   UNL     1      -0.605  11.240  21.163  0.00  0.00    +0.000 A 
ATOM     13  N   UNL     1       0.095  10.449  20.325  0.00  0.00    +0.000 NA
ATOM     14  C   UNL     1       1.471   8.767  18.591  0.00  0.00    +0.000 C 
ATOM     15  C   UNL     1       2.819   8.306  18.022  0.00  0.00    +0.000 C 
ENDBRANCH   3   4
ENDBRANCH   2   3
BRANCH   2  16
ATOM     16  C   UNL     1       4.535   5.076  16.627  0.00  0.00    +0.000 C 
BRANCH  16  17
ATOM     17  C   UNL     1       5.702   4.048  16.692  0.00  0.00    +0.000 C 
ATOM     18  C   UNL     1       7.067   4.712  16.887  0.00  0.00    +0.000 C 
ATOM     19  O   UNL     1       7.390   5.586  15.801  0.00  0.00    +0.000 OA
ATOM     20  C   UNL     1       7.142   4.983  14.596  0.00  0.00    +0.000 A 
ATOM     21  C   UNL     1       7.689   5.593  13.469  0.00  0.00    +0.000 A 
ATOM     22  C   UNL     1       7.470   5.033  12.205  0.00  0.00    +0.000 A 
ATOM     23  C   UNL     1       6.711   3.870  12.077  0.00  0.00    +0.000 A 
ATOM     24  C   UNL     1       6.152   3.269  13.203  0.00  0.00    +0.000 A 
ATOM     25  C   UNL     1       6.355   3.834  14.460  0.00  0.00    +0.000 A 
ATOM     26  O   UNL     1       5.732   3.220  15.516  0.00  0.00    +0.000 OA
ENDBRANCH  16  17
ENDBRANCH   2  16
TORSDOF 4
ENDMDL
MODEL 6
REMARK VINA RESULT:      -6.4      2.818      4.817
REMARK  Name = 
REMARK  5 active torsions:
REMARK  status: ('A' for Active; 'I' for Inactive)
REMARK    1  A    between atoms: C_1  and  N_2
REMARK    2  A    between atoms: N_2  and  C_3
REMARK    3  A    between atoms: N_2  and  C_16
REMARK    4  A    between atoms: C_3  and  C_4
REMARK    5  A    between atoms: C_16  and  C_17
REMARK                            x       y       z     vdW  Elec       q    Type
REMARK                         _______ _______ _______ _____ _____    ______ ____
ROOT
ATOM      1  C   UNL     1       6.294   7.296  17.766  0.00  0.00    +0.000 C 
ATOM      2  N   UNL     1       4.980   6.655  17.629  0.00  0.00    +0.000 NA
ENDROOT
BRANCH   2   3
ATOM      3  C   UNL     1       3.936   7.699  17.649  0.00  0.00    +0.000 C 
BRANCH   3   4
ATOM      4  C   UNL     1       2.471   7.236  17.844  0.00  0.00    +0.000 C 
ATOM      5  C   UNL     1       1.504   8.413  17.621  0.00  0.00    +0.000 C 
ATOM      6  C   UNL     1       1.534   9.421  18.768  0.00  0.00    +0.000 C 
ATOM      7  N   UNL     1       1.243   8.723  20.010  0.00  0.00    +0.000 N 
ATOM      8  C   UNL     1       0.640   9.454  21.020  0.00  0.00    +0.000 A 
ATOM      9  N   UNL     1       0.090  10.644  20.711  0.00  0.00    +0.000 NA
ATOM     10  C   UNL     1      -0.628  11.280  21.653  0.00  0.00    +0.000 A 
ATOM     11  C   UNL     1      -0.820  10.786  22.915  0.00  0.00    +0.000 A 
ATOM     12  C   UNL     1      -0.200   9.590  23.163  0.00  0.00    +0.000 A 
ATOM     13  N   UNL     1       0.530   8.920  22.248  0.00  0.00    +0.000 NA
ATOM     14  C   UNL     1       2.096   7.594  20.372  0.00  0.00    +0.000 C 
ATOM     15  C   UNL     1       2.167   6.595  19.209  0.00  0.00    +0.000 C 
ENDBRANCH   3   4
ENDBRANCH   2   3
BRANCH   2  16
ATOM     16  C   UNL     1       4.924   5.814  16.407  0.00  0.00    +0.000 C 
BRANCH  16  17
ATOM     17  C   UNL     1       5.715   4.476  16.489  0.00  0.00    +0.000 C 
ATOM     18  C   UNL     1       7.230   4.682  16.526  0.00  0.00    +0.000 C 
ATOM     19  O   UNL     1       7.705   5.332  15.342  0.00  0.00    +0.000 OA
ATOM     20  C   UNL     1       7.168   4.759  14.219  0.00  0.00    +0.000 A 
ATOM     21  C   UNL     1       7.768   5.085  13.005  0.00  0.00    +0.000 A 
ATOM     22  C   UNL     1       7.266   4.538  11.818  0.00  0.00    +0.000 A 
ATOM     23  C   UNL     1       6.174   3.672  11.853  0.00  0.00    +0.000 A 
ATOM     24  C   UNL     1       5.566   3.358  13.067  0.00  0.00    +0.000 A 
ATOM     25  C   UNL     1       6.052   3.914  14.247  0.00  0.00    +0.000 A 
ATOM     26  O   UNL     1       5.373   3.602  15.398  0.00  0.00    +0.000 OA
ENDBRANCH  16  17
ENDBRANCH   2  16
TORSDOF 4
ENDMDL
MODEL 7
REMARK VINA RESULT:      -6.4      2.292      4.392
REMARK  Name = 
REMARK  5 active torsions:
REMARK  status: ('A' for Active; 'I' for Inactive)
REMARK    1  A    between atoms: C_1  and  N_2
REMARK    2  A    between atoms: N_2  and  C_3
REMARK    3  A    between atoms: N_2  and  C_16
REMARK    4  A    between atoms: C_3  and  C_4
REMARK    5  A    between atoms: C_16  and  C_17
REMARK                            x       y       z     vdW  Elec       q    Type
REMARK                         _______ _______ _______ _____ _____    ______ ____
ROOT
ATOM      1  C   UNL     1       1.624   5.717  20.645  0.00  0.00    +0.000 C 
ATOM      2  N   UNL     1       2.106   6.429  19.455  0.00  0.00    +0.000 NA
ENDROOT
BRANCH   2   3
ATOM      3  C   UNL     1       2.083   7.881  19.725  0.00  0.00    +0.000 C 
BRANCH   3   4
ATOM      4  C   UNL     1       0.899   8.694  19.145  0.00  0.00    +0.000 C 
ATOM      5  C   UNL     1       1.351   9.489  17.908  0.00  0.00    +0.000 C 
ATOM      6  C   UNL     1       2.236  10.681  18.269  0.00  0.00    +0.000 C 
ATOM      7  N   UNL     1       1.518  11.527  19.209  0.00  0.00    +0.000 N 
ATOM      8  C   UNL     1       1.821  12.877  19.204  0.00  0.00    +0.000 A 
ATOM      9  N   UNL     1       2.511  13.377  18.161  0.00  0.00    +0.000 NA
ATOM     10  C   UNL     1       2.671  14.710  18.080  0.00  0.00    +0.000 A 
ATOM     11  C   UNL     1       2.178  15.585  19.009  0.00  0.00    +0.000 A 
ATOM     12  C   UNL     1       1.521  14.998  20.058  0.00  0.00    +0.000 A 
ATOM     13  N   UNL     1       1.340  13.667  20.179  0.00  0.00    +0.000 NA
ATOM     14  C   UNL     1       1.046  10.916  20.450  0.00  0.00    +0.000 C 
ATOM     15  C   UNL     1       0.225   9.658  20.137  0.00  0.00    +0.000 C 
ENDBRANCH   3   4
ENDBRANCH   2   3
BRANCH   2  16
ATOM     16  C   UNL     1       3.449   5.943  19.052  0.00  0.00    +0.000 C 
BRANCH  16  17
ATOM     17  C   UNL     1       3.534   4.422  18.731  0.00  0.00    +0.000 C 
ATOM     18  C   UNL     1       4.725   3.738  19.405  0.00  0.00    +0.000 C 
ATOM     19  O   UNL     1       5.970   4.289  18.964  0.00  0.00    +0.000 OA
ATOM     20  C   UNL     1       5.996   4.414  17.600  0.00  0.00    +0.000 A 
ATOM     21  C   UNL     1       7.241   4.646  17.019  0.00  0.00    +0.000 A 
ATOM     22  C   UNL     1       7.339   4.789  15.630  0.00  0.00    +0.000 A 
ATOM     23  C   UNL     1       6.198   4.697  14.835  0.00  0.00    +0.000 A 
ATOM     24  C   UNL     1       4.951   4.479  15.419  0.00  0.00    +0.000 A 
ATOM     25  C   UNL     1       4.849   4.353  16.802  0.00  0.00    +0.000 A 
ATOM     26  O   UNL     1       3.585   4.193  17.311  0.00  0.00    +0.000 OA
ENDBRANCH  16  17
ENDBRANCH   2  16
TORSDOF 4
ENDMDL
MODEL 8
REMARK VINA RESULT:      -6.3      1.811      4.202
REMARK  Name = 
REMARK  5 active torsions:
REMARK  status: ('A' for Active; 'I' for Inactive)
REMARK    1  A    between atoms: C_1  and  N_2
REMARK    2  A    between atoms: N_2  and  C_3
REMARK    3  A    between atoms: N_2  and  C_16
REMARK    4  A    between atoms: C_3  and  C_4
REMARK    5  A    between atoms: C_16  and  C_17
REMARK                            x       y       z     vdW  Elec       q    Type
REMARK                         _______ _______ _______ _____ _____    ______ ____
ROOT
ATOM      1  C   UNL     1       1.559   4.233  20.923  0.00  0.00    +0.000 C 
ATOM      2  N   UNL     1       1.955   4.825  19.639  0.00  0.00    +0.000 NA
ENDROOT
BRANCH   2   3
ATOM      3  C   UNL     1       1.324   6.154  19.512  0.00  0.00    +0.000 C 
BRANCH   3   4
ATOM      4  C   UNL     1       2.215   7.394  19.775  0.00  0.00    +0.000 C 
ATOM      5  C   UNL     1       1.736   8.139  21.033  0.00  0.00    +0.000 C 
ATOM      6  C   UNL     1       0.430   8.896  20.803  0.00  0.00    +0.000 C 
ATOM      7  N   UNL     1       0.609   9.806  19.683  0.00  0.00    +0.000 N 
ATOM      8  C   UNL     1      -0.158  10.959  19.676  0.00  0.00    +0.000 A 
ATOM      9  N   UNL     1      -0.782  11.323  20.813  0.00  0.00    +0.000 NA
ATOM     10  C   UNL     1      -1.398  12.518  20.850  0.00  0.00    +0.000 A 
ATOM     11  C   UNL     1      -1.433  13.380  19.788  0.00  0.00    +0.000 A 
ATOM     12  C   UNL     1      -0.808  12.922  18.657  0.00  0.00    +0.000 A 
ATOM     13  N   UNL     1      -0.181  11.732  18.576  0.00  0.00    +0.000 NA
ATOM     14  C   UNL     1       1.038   9.239  18.407  0.00  0.00    +0.000 C 
ATOM     15  C   UNL     1       2.302   8.392  18.608  0.00  0.00    +0.000 C 
ENDBRANCH   3   4
ENDBRANCH   2   3
BRANCH   2  16
ATOM     16  C   UNL     1       3.433   4.880  19.513  0.00  0.00    +0.000 C 
BRANCH  16  17
ATOM     17  C   UNL     1       3.996   4.420  18.136  0.00  0.00    +0.000 C 
ATOM     18  C   UNL     1       5.171   3.449  18.270  0.00  0.00    +0.000 C 
ATOM     19  O   UNL     1       6.278   4.048  18.952  0.00  0.00    +0.000 OA
ATOM     20  C   UNL     1       6.539   5.299  18.459  0.00  0.00    +0.000 A 
ATOM     21  C   UNL     1       7.761   5.867  18.815  0.00  0.00    +0.000 A 
ATOM     22  C   UNL     1       8.089   7.145  18.349  0.00  0.00    +0.000 A 
ATOM     23  C   UNL     1       7.200   7.844  17.534  0.00  0.00    +0.000 A 
ATOM     24  C   UNL     1       5.972   7.281  17.191  0.00  0.00    +0.000 A 
ATOM     25  C   UNL     1       5.635   6.016  17.667  0.00  0.00    +0.000 A 
ATOM     26  O   UNL     1       4.390   5.547  17.333  0.00  0.00    +0.000 OA
ENDBRANCH  16  17
ENDBRANCH   2  16
TORSDOF 4
ENDMDL
MODEL 9
REMARK VINA RESULT:      -6.3      1.500      3.803
REMARK  Name = 
REMARK  5 active torsions:
REMARK  status: ('A' for Active; 'I' for Inactive)
REMARK    1  A    between atoms: C_1  and  N_2
REMARK    2  A    between atoms: N_2  and  C_3
REMARK    3  A    between atoms: N_2  and  C_16
REMARK    4  A    between atoms: C_3  and  C_4
REMARK    5  A    between atoms: C_16  and  C_17
REMARK                            x       y       z     vdW  Elec       q    Type
REMARK                         _______ _______ _______ _____ _____    ______ ____
ROOT
ATOM      1  C   UNL     1       0.442   3.090  18.640  0.00  0.00    +0.000 C 
ATOM      2  N   UNL     1       1.709   3.800  18.426  0.00  0.00    +0.000 NA
ENDROOT
BRANCH   2   3
ATOM      3  C   UNL     1       1.450   5.254  18.442  0.00  0.00    +0.000 C 
BRANCH   3   4
ATOM      4  C   UNL     1       2.611   6.179  18.887  0.00  0.00    +0.000 C 
ATOM      5  C   UNL     1       2.321   6.767  20.279  0.00  0.00    +0.000 C 
ATOM      6  C   UNL     1       1.233   7.838  20.248  0.00  0.00    +0.000 C 
ATOM      7  N   UNL     1       1.625   8.874  19.306  0.00  0.00    +0.000 N 
ATOM      8  C   UNL     1       1.154  10.154  19.541  0.00  0.00    +0.000 A 
ATOM      9  N   UNL     1       0.633  10.435  20.751  0.00  0.00    +0.000 NA
ATOM     10  C   UNL     1       0.319  11.712  21.031  0.00  0.00    +0.000 A 
ATOM     11  C   UNL     1       0.491  12.741  20.146  0.00  0.00    +0.000 A 
ATOM     12  C   UNL     1       0.990  12.370  18.925  0.00  0.00    +0.000 A 
ATOM     13  N   UNL     1       1.317  11.102  18.602  0.00  0.00    +0.000 NA
ATOM     14  C   UNL     1       1.908   8.470  17.930  0.00  0.00    +0.000 C 
ATOM     15  C   UNL     1       2.934   7.329  17.918  0.00  0.00    +0.000 C 
ENDBRANCH   3   4
ENDBRANCH   2   3
BRANCH   2  16
ATOM     16  C   UNL     1       2.725   3.389  19.427  0.00  0.00    +0.000 C 
BRANCH  16  17
ATOM     17  C   UNL     1       3.878   2.501  18.874  0.00  0.00    +0.000 C 
ATOM     18  C   UNL     1       5.180   2.660  19.662  0.00  0.00    +0.000 C 
ATOM     19  O   UNL     1       5.673   4.002  19.603  0.00  0.00    +0.000 OA
ATOM     20  C   UNL     1       5.644   4.480  18.320  0.00  0.00    +0.000 A 
ATOM     21  C   UNL     1       6.367   5.644  18.071  0.00  0.00    +0.000 A 
ATOM     22  C   UNL     1       6.376   6.190  16.782  0.00  0.00    +0.000 A 
ATOM     23  C   UNL     1       5.665   5.571  15.755  0.00  0.00    +0.000 A 
ATOM     24  C   UNL     1       4.930   4.415  16.008  0.00  0.00    +0.000 A 
ATOM     25  C   UNL     1       4.906   3.879  17.293  0.00  0.00    +0.000 A 
ATOM     26  O   UNL     1       4.119   2.771  17.482  0.00  0.00    +0.000 OA
ENDBRANCH  16  17
ENDBRANCH   2  16
TORSDOF 4
ENDMDL
