MODEL 1
REMARK VINA RESULT:      -8.0      0.000      0.000
REMARK  Name = 
REMARK  7 active torsions:
REMARK  status: ('A' for Active; 'I' for Inactive)
REMARK    1  A    between atoms: C_1  and  C_2
REMARK    2  A    between atoms: C_4  and  C_5
REMARK    3  A    between atoms: C_6  and  O_7
REMARK    4  A    between atoms: O_7  and  S_8
REMARK    5  A    between atoms: S_8  and  C_11
REMARK    6  A    between atoms: C_14  and  N_15
REMARK    7  A    between atoms: C_24  and  C_25
REMARK                            x       y       z     vdW  Elec       q    Type
REMARK                         _______ _______ _______ _____ _____    ______ ____
ROOT
ATOM      1  S   UNL     1       0.755   9.380  20.800  0.00  0.00    +0.000 S 
ATOM      2  O   UNL     1       1.663   9.936  21.788  0.00  0.00    +0.000 OA
ATOM      3  O   UNL     1      -0.558   8.878  21.173  0.00  0.00    +0.000 OA
ENDROOT
BRANCH   1   4
ATOM      4  C   UNL     1       1.573   7.921  20.192  0.00  0.00    +0.000 A 
ATOM      5  C   UNL     1       2.241   7.848  18.978  0.00  0.00    +0.000 A 
ATOM      6  C   UNL     1       2.775   6.608  18.572  0.00  0.00    +0.000 A 
ATOM      7  C   UNL     1       2.635   5.447  19.357  0.00  0.00    +0.000 A 
ATOM      8  C   UNL     1       1.955   5.558  20.575  0.00  0.00    +0.000 A 
ATOM      9  C   UNL     1       1.430   6.780  20.990  0.00  0.00    +0.000 A 
BRANCH   7  10
ATOM     10  N   UNL     1       3.128   4.184  18.942  0.00  0.00    +0.000 N 
ATOM     11  C   UNL     1       2.275   3.112  18.463  0.00  0.00    +0.000 C 
ATOM     12  C   UNL     1       3.249   2.147  17.809  0.00  0.00    +0.000 C 
ATOM     13  N   UNL     1       4.487   2.442  18.465  0.00  0.00    +0.000 N 
ATOM     14  C   UNL     1       4.460   3.734  18.989  0.00  0.00    +0.000 C 
ATOM     15  O   UNL     1       5.465   4.301  19.387  0.00  0.00    +0.000 OA
ATOM     16  H   UNL     1       5.384   2.029  18.248  0.00  0.00    +0.000 HD
ENDBRANCH   7  10
ENDBRANCH   1   4
BRANCH   1  17
ATOM     17  O   UNL     1       0.587  10.445  19.576  0.00  0.00    +0.000 OA
BRANCH  17  23
ATOM     18  C   UNL     1      -4.539  11.622  17.312  0.00  0.00    +0.000 C 
ATOM     19  C   UNL     1      -3.185  11.321  17.895  0.00  0.00    +0.000 A 
ATOM     20  C   UNL     1      -2.807  11.957  19.081  0.00  0.00    +0.000 A 
ATOM     21  C   UNL     1      -1.562  11.727  19.706  0.00  0.00    +0.000 A 
ATOM     22  C   UNL     1      -1.360  12.460  21.002  0.00  0.00    +0.000 C 
ATOM     23  C   UNL     1      -0.656  10.835  19.105  0.00  0.00    +0.000 A 
ATOM     24  C   UNL     1      -1.042  10.185  17.913  0.00  0.00    +0.000 A 
ATOM     25  C   UNL     1      -2.291  10.420  17.300  0.00  0.00    +0.000 A 
ATOM     26  C   UNL     1      -2.659   9.709  16.026  0.00  0.00    +0.000 C 
ENDBRANCH  17  23
ENDBRANCH   1  17
TORSDOF 4
ENDMDL
MODEL 2
REMARK VINA RESULT:      -7.9      1.048      1.213
REMARK  Name = 
REMARK  7 active torsions:
REMARK  status: ('A' for Active; 'I' for Inactive)
REMARK    1  A    between atoms: C_1  and  C_2
REMARK    2  A    between atoms: C_4  and  C_5
REMARK    3  A    between atoms: C_6  and  O_7
REMARK    4  A    between atoms: O_7  and  S_8
REMARK    5  A    between atoms: S_8  and  C_11
REMARK    6  A    between atoms: C_14  and  N_15
REMARK    7  A    between atoms: C_24  and  C_25
REMARK                            x       y       z     vdW  Elec       q    Type
REMARK                         _______ _______ _______ _____ _____    ______ ____
ROOT
ATOM      1  S   UNL     1       0.770   9.383  21.008  0.00  0.00    +0.000 S 
ATOM      2  O   UNL     1       1.708   9.871  22.004  0.00  0.00    +0.000 OA
ATOM      3  O   UNL     1      -0.557   8.916  21.379  0.00  0.00    +0.000 OA
ENDROOT
BRANCH   1   4
ATOM      4  C   UNL     1       1.528   7.918  20.339  0.00  0.00    +0.000 A 
ATOM      5  C   UNL     1       2.200   7.869  19.126  0.00  0.00    +0.000 A 
ATOM      6  C   UNL     1       2.682   6.626  18.669  0.00  0.00    +0.000 A 
ATOM      7  C   UNL     1       2.486   5.439  19.400  0.00  0.00    +0.000 A 
ATOM      8  C   UNL     1       1.802   5.526  20.618  0.00  0.00    +0.000 A 
ATOM      9  C   UNL     1       1.329   6.750  21.084  0.00  0.00    +0.000 A 
BRANCH   7  10
ATOM     10  N   UNL     1       2.926   4.175  18.932  0.00  0.00    +0.000 N 
ATOM     11  C   UNL     1       4.103   3.499  19.446  0.00  0.00    +0.000 C 
ATOM     12  C   UNL     1       3.952   2.078  18.931  0.00  0.00    +0.000 C 
ATOM     13  N   UNL     1       3.112   2.237  17.783  0.00  0.00    +0.000 N 
ATOM     14  C   UNL     1       2.374   3.416  17.883  0.00  0.00    +0.000 C 
ATOM     15  O   UNL     1       1.427   3.661  17.154  0.00  0.00    +0.000 OA
ATOM     16  H   UNL     1       2.748   1.489  17.208  0.00  0.00    +0.000 HD
ENDBRANCH   7  10
ENDBRANCH   1   4
BRANCH   1  17
ATOM     17  O   UNL     1       0.628  10.496  19.823  0.00  0.00    +0.000 OA
BRANCH  17  23
ATOM     18  C   UNL     1      -4.447  11.681  17.451  0.00  0.00    +0.000 C 
ATOM     19  C   UNL     1      -3.106  11.378  18.063  0.00  0.00    +0.000 A 
ATOM     20  C   UNL     1      -2.751  12.016  19.255  0.00  0.00    +0.000 A 
ATOM     21  C   UNL     1      -1.520  11.784  19.906  0.00  0.00    +0.000 A 
ATOM     22  C   UNL     1      -1.344  12.519  21.204  0.00  0.00    +0.000 C 
ATOM     23  C   UNL     1      -0.604  10.889  19.326  0.00  0.00    +0.000 A 
ATOM     24  C   UNL     1      -0.967  10.237  18.128  0.00  0.00    +0.000 A 
ATOM     25  C   UNL     1      -2.202  10.474  17.488  0.00  0.00    +0.000 A 
ATOM     26  C   UNL     1      -2.546   9.760  16.208  0.00  0.00    +0.000 C 
ENDBRANCH  17  23
ENDBRANCH   1  17
TORSDOF 4
ENDMDL
MODEL 3
REMARK VINA RESULT:      -7.9      0.920      1.342
REMARK  Name = 
REMARK  7 active torsions:
REMARK  status: ('A' for Active; 'I' for Inactive)
REMARK    1  A    between atoms: C_1  and  C_2
REMARK    2  A    between atoms: C_4  and  C_5
REMARK    3  A    between atoms: C_6  and  O_7
REMARK    4  A    between atoms: O_7  and  S_8
REMARK    5  A    between atoms: S_8  and  C_11
REMARK    6  A    between atoms: C_14  and  N_15
REMARK    7  A    between atoms: C_24  and  C_25
REMARK                            x       y       z     vdW  Elec       q    Type
REMARK                         _______ _______ _______ _____ _____    ______ ____
ROOT
ATOM      1  S   UNL     1       0.596   9.487  20.889  0.00  0.00    +0.000 S 
ATOM      2  O   UNL     1       1.450   9.993  21.951  0.00  0.00    +0.000 OA
ATOM      3  O   UNL     1      -0.710   8.914  21.174  0.00  0.00    +0.000 OA
ENDROOT
BRANCH   1   4
ATOM      4  C   UNL     1       1.487   8.109  20.200  0.00  0.00    +0.000 A 
ATOM      5  C   UNL     1       1.678   6.898  20.850  0.00  0.00    +0.000 A 
ATOM      6  C   UNL     1       2.476   5.915  20.230  0.00  0.00    +0.000 A 
ATOM      7  C   UNL     1       3.091   6.137  18.983  0.00  0.00    +0.000 A 
ATOM      8  C   UNL     1       2.877   7.370  18.357  0.00  0.00    +0.000 A 
ATOM      9  C   UNL     1       2.084   8.346  18.957  0.00  0.00    +0.000 A 
BRANCH   7  10
ATOM     10  N   UNL     1       3.932   5.175  18.367  0.00  0.00    +0.000 N 
ATOM     11  C   UNL     1       3.488   4.289  17.307  0.00  0.00    +0.000 C 
ATOM     12  C   UNL     1       4.783   3.737  16.737  0.00  0.00    +0.000 C 
ATOM     13  N   UNL     1       5.701   3.877  17.827  0.00  0.00    +0.000 N 
ATOM     14  C   UNL     1       5.262   4.867  18.705  0.00  0.00    +0.000 C 
ATOM     15  O   UNL     1       5.977   5.333  19.577  0.00  0.00    +0.000 OA
ATOM     16  H   UNL     1       6.689   3.662  17.799  0.00  0.00    +0.000 HD
ENDBRANCH   7  10
ENDBRANCH   1   4
BRANCH   1  17
ATOM     17  O   UNL     1       0.431  10.640  19.747  0.00  0.00    +0.000 OA
BRANCH  17  23
ATOM     18  C   UNL     1      -4.619  11.597  17.223  0.00  0.00    +0.000 C 
ATOM     19  C   UNL     1      -3.285  11.354  17.875  0.00  0.00    +0.000 A 
ATOM     20  C   UNL     1      -2.998  12.000  19.081  0.00  0.00    +0.000 A 
ATOM     21  C   UNL     1      -1.778  11.823  19.769  0.00  0.00    +0.000 A 
ATOM     22  C   UNL     1      -1.677  12.557  21.075  0.00  0.00    +0.000 C 
ATOM     23  C   UNL     1      -0.802  10.976  19.213  0.00  0.00    +0.000 A 
ATOM     24  C   UNL     1      -1.097  10.315  18.001  0.00  0.00    +0.000 A 
ATOM     25  C   UNL     1      -2.321  10.498  17.324  0.00  0.00    +0.000 A 
ATOM     26  C   UNL     1      -2.591   9.776  16.031  0.00  0.00    +0.000 C 
ENDBRANCH  17  23
ENDBRANCH   1  17
TORSDOF 4
ENDMDL
MODEL 4
REMARK VINA RESULT:      -7.8      2.445      3.228
REMARK  Name = 
REMARK  7 active torsions:
REMARK  status: ('A' for Active; 'I' for Inactive)
REMARK    1  A    between atoms: C_1  and  C_2
REMARK    2  A    between atoms: C_4  and  C_5
REMARK    3  A    between atoms: C_6  and  O_7
REMARK    4  A    between atoms: O_7  and  S_8
REMARK    5  A    between atoms: S_8  and  C_11
REMARK    6  A    between atoms: C_14  and  N_15
REMARK    7  A    between atoms: C_24  and  C_25
REMARK                            x       y       z     vdW  Elec       q    Type
REMARK                         _______ _______ _______ _____ _____    ______ ____
ROOT
ATOM      1  S   UNL     1       0.840  10.369  19.202  0.00  0.00    +0.000 S 
ATOM      2  O   UNL     1      -0.549   9.981  19.024  0.00  0.00    +0.000 OA
ATOM      3  O   UNL     1       1.514  11.237  18.250  0.00  0.00    +0.000 OA
ENDROOT
BRANCH   1   4
ATOM      4  C   UNL     1       1.762   8.852  19.069  0.00  0.00    +0.000 A 
ATOM      5  C   UNL     1       2.456   8.456  17.934  0.00  0.00    +0.000 A 
ATOM      6  C   UNL     1       3.077   7.190  17.927  0.00  0.00    +0.000 A 
ATOM      7  C   UNL     1       2.996   6.318  19.029  0.00  0.00    +0.000 A 
ATOM      8  C   UNL     1       2.287   6.750  20.156  0.00  0.00    +0.000 A 
ATOM      9  C   UNL     1       1.677   8.002  20.177  0.00  0.00    +0.000 A 
BRANCH   7  10
ATOM     10  N   UNL     1       3.577   5.025  19.021  0.00  0.00    +0.000 N 
ATOM     11  C   UNL     1       2.818   3.809  18.790  0.00  0.00    +0.000 C 
ATOM     12  C   UNL     1       3.888   2.768  18.508  0.00  0.00    +0.000 C 
ATOM     13  N   UNL     1       5.045   3.311  19.153  0.00  0.00    +0.000 N 
ATOM     14  C   UNL     1       4.917   4.692  19.296  0.00  0.00    +0.000 C 
ATOM     15  O   UNL     1       5.855   5.410  19.600  0.00  0.00    +0.000 OA
ATOM     16  H   UNL     1       5.975   2.914  19.130  0.00  0.00    +0.000 HD
ENDBRANCH   7  10
ENDBRANCH   1   4
BRANCH   1  17
ATOM     17  O   UNL     1       1.032  10.978  20.703  0.00  0.00    +0.000 OA
BRANCH  17  23
ATOM     18  C   UNL     1      -3.582  12.818  23.552  0.00  0.00    +0.000 C 
ATOM     19  C   UNL     1      -2.361  12.347  22.809  0.00  0.00    +0.000 A 
ATOM     20  C   UNL     1      -1.705  11.195  23.255  0.00  0.00    +0.000 A 
ATOM     21  C   UNL     1      -0.561  10.674  22.614  0.00  0.00    +0.000 A 
ATOM     22  C   UNL     1      -0.030   9.400  23.206  0.00  0.00    +0.000 C 
ATOM     23  C   UNL     1      -0.047  11.346  21.491  0.00  0.00    +0.000 A 
ATOM     24  C   UNL     1      -0.716  12.502  21.034  0.00  0.00    +0.000 A 
ATOM     25  C   UNL     1      -1.861  13.012  21.681  0.00  0.00    +0.000 A 
ATOM     26  C   UNL     1      -2.540  14.251  21.163  0.00  0.00    +0.000 C 
ENDBRANCH  17  23
ENDBRANCH   1  17
TORSDOF 4
ENDMDL
MODEL 5
REMARK VINA RESULT:      -7.7      1.459      1.992
REMARK  Name = 
REMARK  7 active torsions:
REMARK  status: ('A' for Active; 'I' for Inactive)
REMARK    1  A    between atoms: C_1  and  C_2
REMARK    2  A    between atoms: C_4  and  C_5
REMARK    3  A    between atoms: C_6  and  O_7
REMARK    4  A    between atoms: O_7  and  S_8
REMARK    5  A    between atoms: S_8  and  C_11
REMARK    6  A    between atoms: C_14  and  N_15
REMARK    7  A    between atoms: C_24  and  C_25
REMARK                            x       y       z     vdW  Elec       q    Type
REMARK                         _______ _______ _______ _____ _____    ______ ____
ROOT
ATOM      1  S   UNL     1       0.535   9.904  20.607  0.00  0.00    +0.000 S 
ATOM      2  O   UNL     1       1.457  10.443  21.593  0.00  0.00    +0.000 OA
ATOM      3  O   UNL     1      -0.695   9.237  21.003  0.00  0.00    +0.000 OA
ENDROOT
BRANCH   1   4
ATOM      4  C   UNL     1       1.439   8.605  19.793  0.00  0.00    +0.000 A 
ATOM      5  C   UNL     1       1.839   7.427  20.408  0.00  0.00    +0.000 A 
ATOM      6  C   UNL     1       2.625   6.514  19.676  0.00  0.00    +0.000 A 
ATOM      7  C   UNL     1       3.024   6.774  18.351  0.00  0.00    +0.000 A 
ATOM      8  C   UNL     1       2.604   7.972  17.763  0.00  0.00    +0.000 A 
ATOM      9  C   UNL     1       1.820   8.878  18.474  0.00  0.00    +0.000 A 
BRANCH   7  10
ATOM     10  N   UNL     1       3.851   5.886  17.617  0.00  0.00    +0.000 N 
ATOM     11  C   UNL     1       5.091   6.291  16.982  0.00  0.00    +0.000 C 
ATOM     12  C   UNL     1       5.775   4.972  16.662  0.00  0.00    +0.000 C 
ATOM     13  N   UNL     1       4.683   4.049  16.596  0.00  0.00    +0.000 N 
ATOM     14  C   UNL     1       3.595   4.534  17.320  0.00  0.00    +0.000 C 
ATOM     15  O   UNL     1       2.636   3.837  17.609  0.00  0.00    +0.000 OA
ATOM     16  H   UNL     1       4.761   3.050  16.455  0.00  0.00    +0.000 HD
ENDBRANCH   7  10
ENDBRANCH   1   4
BRANCH   1  17
ATOM     17  O   UNL     1       0.181  11.068  19.521  0.00  0.00    +0.000 OA
BRANCH  17  23
ATOM     18  C   UNL     1      -5.029  11.409  17.170  0.00  0.00    +0.000 C 
ATOM     19  C   UNL     1      -3.654  11.329  17.776  0.00  0.00    +0.000 A 
ATOM     20  C   UNL     1      -3.412  11.991  18.983  0.00  0.00    +0.000 A 
ATOM     21  C   UNL     1      -2.158  11.962  19.630  0.00  0.00    +0.000 A 
ATOM     22  C   UNL     1      -2.107  12.686  20.945  0.00  0.00    +0.000 C 
ATOM     23  C   UNL     1      -1.102  11.252  19.031  0.00  0.00    +0.000 A 
ATOM     24  C   UNL     1      -1.350  10.575  17.817  0.00  0.00    +0.000 A 
ATOM     25  C   UNL     1      -2.609  10.609  17.182  0.00  0.00    +0.000 A 
ATOM     26  C   UNL     1      -2.827   9.876  15.885  0.00  0.00    +0.000 C 
ENDBRANCH  17  23
ENDBRANCH   1  17
TORSDOF 4
ENDMDL
MODEL 6
REMARK VINA RESULT:      -7.6      1.665      2.633
REMARK  Name = 
REMARK  7 active torsions:
REMARK  status: ('A' for Active; 'I' for Inactive)
REMARK    1  A    between atoms: C_1  and  C_2
REMARK    2  A    between atoms: C_4  and  C_5
REMARK    3  A    between atoms: C_6  and  O_7
REMARK    4  A    between atoms: O_7  and  S_8
REMARK    5  A    between atoms: S_8  and  C_11
REMARK    6  A    between atoms: C_14  and  N_15
REMARK    7  A    between atoms: C_24  and  C_25
REMARK                            x       y       z     vdW  Elec       q    Type
REMARK                         _______ _______ _______ _____ _____    ______ ____
ROOT
ATOM      1  S   UNL     1       0.340  10.279  20.585  0.00  0.00    +0.000 S 
ATOM      2  O   UNL     1       1.294  10.949  21.453  0.00  0.00    +0.000 OA
ATOM      3  O   UNL     1      -0.760   9.497  21.128  0.00  0.00    +0.000 OA
ENDROOT
BRANCH   1   4
ATOM      4  C   UNL     1       1.293   9.058  19.709  0.00  0.00    +0.000 A 
ATOM      5  C   UNL     1       1.633   9.147  18.366  0.00  0.00    +0.000 A 
ATOM      6  C   UNL     1       2.319   8.071  17.769  0.00  0.00    +0.000 A 
ATOM      7  C   UNL     1       2.652   6.909  18.492  0.00  0.00    +0.000 A 
ATOM      8  C   UNL     1       2.292   6.853  19.843  0.00  0.00    +0.000 A 
ATOM      9  C   UNL     1       1.622   7.915  20.447  0.00  0.00    +0.000 A 
BRANCH   7  10
ATOM     10  N   UNL     1       3.303   5.800  17.894  0.00  0.00    +0.000 N 
ATOM     11  C   UNL     1       4.670   5.843  17.408  0.00  0.00    +0.000 C 
ATOM     12  C   UNL     1       5.027   4.379  17.216  0.00  0.00    +0.000 C 
ATOM     13  N   UNL     1       3.750   3.756  17.040  0.00  0.00    +0.000 N 
ATOM     14  C   UNL     1       2.746   4.540  17.607  0.00  0.00    +0.000 C 
ATOM     15  O   UNL     1       1.615   4.123  17.793  0.00  0.00    +0.000 OA
ATOM     16  H   UNL     1       3.586   2.763  16.939  0.00  0.00    +0.000 HD
ENDBRANCH   7  10
ENDBRANCH   1   4
BRANCH   1  17
ATOM     17  O   UNL     1      -0.253  11.359  19.516  0.00  0.00    +0.000 OA
BRANCH  17  23
ATOM     18  C   UNL     1      -5.856  12.185  18.670  0.00  0.00    +0.000 C 
ATOM     19  C   UNL     1      -4.387  11.960  18.906  0.00  0.00    +0.000 A 
ATOM     20  C   UNL     1      -3.696  11.087  18.060  0.00  0.00    +0.000 A 
ATOM     21  C   UNL     1      -2.317  10.824  18.198  0.00  0.00    +0.000 A 
ATOM     22  C   UNL     1      -1.742   9.903  17.161  0.00  0.00    +0.000 C 
ATOM     23  C   UNL     1      -1.608  11.451  19.238  0.00  0.00    +0.000 A 
ATOM     24  C   UNL     1      -2.303  12.340  20.086  0.00  0.00    +0.000 A 
ATOM     25  C   UNL     1      -3.682  12.598  19.936  0.00  0.00    +0.000 A 
ATOM     26  C   UNL     1      -4.384  13.550  20.866  0.00  0.00    +0.000 C 
ENDBRANCH  17  23
ENDBRANCH   1  17
TORSDOF 4
ENDMDL
MODEL 7
REMARK VINA RESULT:      -7.5      2.722      3.783
REMARK  Name = 
REMARK  7 active torsions:
REMARK  status: ('A' for Active; 'I' for Inactive)
REMARK    1  A    between atoms: C_1  and  C_2
REMARK    2  A    between atoms: C_4  and  C_5
REMARK    3  A    between atoms: C_6  and  O_7
REMARK    4  A    between atoms: O_7  and  S_8
REMARK    5  A    between atoms: S_8  and  C_11
REMARK    6  A    between atoms: C_14  and  N_15
REMARK    7  A    between atoms: C_24  and  C_25
REMARK                            x       y       z     vdW  Elec       q    Type
REMARK                         _______ _______ _______ _____ _____    ______ ____
ROOT
ATOM      1  S   UNL     1       0.757  10.882  19.412  0.00  0.00    +0.000 S 
ATOM      2  O   UNL     1      -0.656  10.777  19.091  0.00  0.00    +0.000 OA
ATOM      3  O   UNL     1       1.672  11.637  18.570  0.00  0.00    +0.000 OA
ENDROOT
BRANCH   1   4
ATOM      4  C   UNL     1       1.383   9.221  19.279  0.00  0.00    +0.000 A 
ATOM      5  C   UNL     1       1.459   8.328  20.339  0.00  0.00    +0.000 A 
ATOM      6  C   UNL     1       2.055   7.069  20.122  0.00  0.00    +0.000 A 
ATOM      7  C   UNL     1       2.586   6.706  18.869  0.00  0.00    +0.000 A 
ATOM      8  C   UNL     1       2.493   7.632  17.824  0.00  0.00    +0.000 A 
ATOM      9  C   UNL     1       1.898   8.875  18.025  0.00  0.00    +0.000 A 
BRANCH   7  10
ATOM     10  N   UNL     1       3.228   5.461  18.647  0.00  0.00    +0.000 N 
ATOM     11  C   UNL     1       4.603   5.192  19.026  0.00  0.00    +0.000 C 
ATOM     12  C   UNL     1       4.709   3.679  18.937  0.00  0.00    +0.000 C 
ATOM     13  N   UNL     1       3.670   3.336  18.014  0.00  0.00    +0.000 N 
ATOM     14  C   UNL     1       2.701   4.338  17.982  0.00  0.00    +0.000 C 
ATOM     15  O   UNL     1       1.611   4.180  17.457  0.00  0.00    +0.000 OA
ATOM     16  H   UNL     1       3.401   2.398  17.749  0.00  0.00    +0.000 HD
ENDBRANCH   7  10
ENDBRANCH   1   4
BRANCH   1  17
ATOM     17  O   UNL     1       0.914  11.389  20.954  0.00  0.00    +0.000 OA
BRANCH  17  23
ATOM     18  C   UNL     1      -3.742  12.951  23.900  0.00  0.00    +0.000 C 
ATOM     19  C   UNL     1      -2.510  12.551  23.134  0.00  0.00    +0.000 A 
ATOM     20  C   UNL     1      -1.936  11.301  23.387  0.00  0.00    +0.000 A 
ATOM     21  C   UNL     1      -0.788  10.838  22.709  0.00  0.00    +0.000 A 
ATOM     22  C   UNL     1      -0.354   9.448  23.078  0.00  0.00    +0.000 C 
ATOM     23  C   UNL     1      -0.184  11.671  21.751  0.00  0.00    +0.000 A 
ATOM     24  C   UNL     1      -0.770  12.929  21.488  0.00  0.00    +0.000 A 
ATOM     25  C   UNL     1      -1.919  13.379  22.170  0.00  0.00    +0.000 A 
ATOM     26  C   UNL     1      -2.507  14.730  21.861  0.00  0.00    +0.000 C 
ENDBRANCH  17  23
ENDBRANCH   1  17
TORSDOF 4
ENDMDL
MODEL 8
REMARK VINA RESULT:      -7.5      2.742      3.611
REMARK  Name = 
REMARK  7 active torsions:
REMARK  status: ('A' for Active; 'I' for Inactive)
REMARK    1  A    between atoms: C_1  and  C_2
REMARK    2  A    between atoms: C_4  and  C_5
REMARK    3  A    between atoms: C_6  and  O_7
REMARK    4  A    between atoms: O_7  and  S_8
REMARK    5  A    between atoms: S_8  and  C_11
REMARK    6  A    between atoms: C_14  and  N_15
REMARK    7  A    between atoms: C_24  and  C_25
REMARK                            x       y       z     vdW  Elec       q    Type
REMARK                         _______ _______ _______ _____ _____    ______ ____
ROOT
ATOM      1  S   UNL     1       0.788  10.592  19.298  0.00  0.00    +0.000 S 
ATOM      2  O   UNL     1      -0.623  10.303  19.110  0.00  0.00    +0.000 OA
ATOM      3  O   UNL     1       1.507  11.483  18.400  0.00  0.00    +0.000 OA
ENDROOT
BRANCH   1   4
ATOM      4  C   UNL     1       1.614   9.035  19.047  0.00  0.00    +0.000 A 
ATOM      5  C   UNL     1       2.179   8.635  17.844  0.00  0.00    +0.000 A 
ATOM      6  C   UNL     1       2.730   7.341  17.752  0.00  0.00    +0.000 A 
ATOM      7  C   UNL     1       2.706   6.445  18.838  0.00  0.00    +0.000 A 
ATOM      8  C   UNL     1       2.128   6.882  20.035  0.00  0.00    +0.000 A 
ATOM      9  C   UNL     1       1.588   8.162  20.140  0.00  0.00    +0.000 A 
BRANCH   7  10
ATOM     10  N   UNL     1       3.217   5.125  18.748  0.00  0.00    +0.000 N 
ATOM     11  C   UNL     1       4.496   4.724  19.304  0.00  0.00    +0.000 C 
ATOM     12  C   UNL     1       4.430   3.206  19.292  0.00  0.00    +0.000 C 
ATOM     13  N   UNL     1       3.473   2.932  18.263  0.00  0.00    +0.000 N 
ATOM     14  C   UNL     1       2.641   4.034  18.071  0.00  0.00    +0.000 C 
ATOM     15  O   UNL     1       1.609   3.972  17.423  0.00  0.00    +0.000 OA
ATOM     16  H   UNL     1       3.127   2.017  18.006  0.00  0.00    +0.000 HD
ENDBRANCH   7  10
ENDBRANCH   1   4
BRANCH   1  17
ATOM     17  O   UNL     1       1.029  11.080  20.835  0.00  0.00    +0.000 OA
BRANCH  17  23
ATOM     18  C   UNL     1      -3.337  13.282  23.815  0.00  0.00    +0.000 C 
ATOM     19  C   UNL     1      -2.179  12.713  23.041  0.00  0.00    +0.000 A 
ATOM     20  C   UNL     1      -1.782  11.397  23.295  0.00  0.00    +0.000 A 
ATOM     21  C   UNL     1      -0.716  10.777  22.609  0.00  0.00    +0.000 A 
ATOM     22  C   UNL     1      -0.474   9.342  22.980  0.00  0.00    +0.000 C 
ATOM     23  C   UNL     1      -0.011  11.515  21.641  0.00  0.00    +0.000 A 
ATOM     24  C   UNL     1      -0.419  12.840  21.377  0.00  0.00    +0.000 A 
ATOM     25  C   UNL     1      -1.489  13.448  22.067  0.00  0.00    +0.000 A 
ATOM     26  C   UNL     1      -1.887  14.866  21.756  0.00  0.00    +0.000 C 
ENDBRANCH  17  23
ENDBRANCH   1  17
TORSDOF 4
ENDMDL
MODEL 9
REMARK VINA RESULT:      -7.4      1.680      2.576
REMARK  Name = 
REMARK  7 active torsions:
REMARK  status: ('A' for Active; 'I' for Inactive)
REMARK    1  A    between atoms: C_1  and  C_2
REMARK    2  A    between atoms: C_4  and  C_5
REMARK    3  A    between atoms: C_6  and  O_7
REMARK    4  A    between atoms: O_7  and  S_8
REMARK    5  A    between atoms: S_8  and  C_11
REMARK    6  A    between atoms: C_14  and  N_15
REMARK    7  A    between atoms: C_24  and  C_25
REMARK                            x       y       z     vdW  Elec       q    Type
REMARK                         _______ _______ _______ _____ _____    ______ ____
ROOT
ATOM      1  S   UNL     1       0.273  10.529  20.490  0.00  0.00    +0.000 S 
ATOM      2  O   UNL     1       1.223  11.287  21.284  0.00  0.00    +0.000 OA
ATOM      3  O   UNL     1      -0.779   9.740  21.113  0.00  0.00    +0.000 OA
ENDROOT
BRANCH   1   4
ATOM      4  C   UNL     1       1.249   9.293  19.660  0.00  0.00    +0.000 A 
ATOM      5  C   UNL     1       1.626   9.361  18.326  0.00  0.00    +0.000 A 
ATOM      6  C   UNL     1       2.328   8.274  17.765  0.00  0.00    +0.000 A 
ATOM      7  C   UNL     1       2.639   7.125  18.516  0.00  0.00    +0.000 A 
ATOM      8  C   UNL     1       2.242   7.091  19.858  0.00  0.00    +0.000 A 
ATOM      9  C   UNL     1       1.555   8.162  20.425  0.00  0.00    +0.000 A 
BRANCH   7  10
ATOM     10  N   UNL     1       3.305   6.006  17.954  0.00  0.00    +0.000 N 
ATOM     11  C   UNL     1       2.815   4.644  18.068  0.00  0.00    +0.000 C 
ATOM     12  C   UNL     1       3.624   3.886  17.030  0.00  0.00    +0.000 C 
ATOM     13  N   UNL     1       4.800   4.690  16.886  0.00  0.00    +0.000 N 
ATOM     14  C   UNL     1       4.542   6.001  17.283  0.00  0.00    +0.000 C 
ATOM     15  O   UNL     1       5.304   6.922  17.040  0.00  0.00    +0.000 OA
ATOM     16  H   UNL     1       5.553   4.524  16.231  0.00  0.00    +0.000 HD
ENDBRANCH   7  10
ENDBRANCH   1   4
BRANCH   1  17
ATOM     17  O   UNL     1      -0.394  11.517  19.376  0.00  0.00    +0.000 OA
BRANCH  17  23
ATOM     18  C   UNL     1      -6.045  11.950  18.553  0.00  0.00    +0.000 C 
ATOM     19  C   UNL     1      -4.562  11.828  18.783  0.00  0.00    +0.000 A 
ATOM     20  C   UNL     1      -3.823  10.970  17.963  0.00  0.00    +0.000 A 
ATOM     21  C   UNL     1      -2.428  10.802  18.098  0.00  0.00    +0.000 A 
ATOM     22  C   UNL     1      -1.802   9.881  17.090  0.00  0.00    +0.000 C 
ATOM     23  C   UNL     1      -1.754  11.511  19.107  0.00  0.00    +0.000 A 
ATOM     24  C   UNL     1      -2.499  12.386  19.928  0.00  0.00    +0.000 A 
ATOM     25  C   UNL     1      -3.892  12.548  19.781  0.00  0.00    +0.000 A 
ATOM     26  C   UNL     1      -4.648  13.488  20.682  0.00  0.00    +0.000 C 
ENDBRANCH  17  23
ENDBRANCH   1  17
TORSDOF 4
ENDMDL
