MODEL 1
REMARK VINA RESULT:      -8.1      0.000      0.000
REMARK  Name = 
REMARK  4 active torsions:
REMARK  status: ('A' for Active; 'I' for Inactive)
REMARK    1  A    between atoms: C_2  and  C_3
REMARK    2  A    between atoms: C_7  and  C_8
REMARK    3  A    between atoms: C_11  and  C_12
REMARK    4  A    between atoms: C_17  and  N_18
REMARK                            x       y       z     vdW  Elec       q    Type
REMARK                         _______ _______ _______ _____ _____    ______ ____
ROOT
ATOM      1  C   UNL     1       3.744   6.366  18.014  0.00  0.00    +0.000 A 
ATOM      2  C   UNL     1       3.335   7.596  17.483  0.00  0.00    +0.000 A 
ATOM      3  C   UNL     1       2.467   8.428  18.194  0.00  0.00    +0.000 A 
ATOM      4  C   UNL     1       1.983   8.030  19.446  0.00  0.00    +0.000 A 
ATOM      5  C   UNL     1       2.379   6.802  19.980  0.00  0.00    +0.000 A 
ATOM      6  C   UNL     1       3.275   5.992  19.284  0.00  0.00    +0.000 A 
ENDROOT
BRANCH   4   7
ATOM      7  C   UNL     1       1.114   8.914  20.226  0.00  0.00    +0.000 A 
ATOM      8  C   UNL     1       1.137   8.840  21.557  0.00  0.00    +0.000 A 
ATOM      9  C   UNL     1       0.328   9.724  22.400  0.00  0.00    +0.000 A 
ATOM     10  O   UNL     1       0.341   9.594  23.618  0.00  0.00    +0.000 OA
ATOM     11  C   UNL     1      -0.465  10.785  21.765  0.00  0.00    +0.000 A 
ATOM     12  C   UNL     1      -0.612  11.002  20.445  0.00  0.00    +0.000 A 
ATOM     13  S   UNL     1       0.160   9.964  19.262  0.00  0.00    +0.000 S 
BRANCH  12  14
ATOM     14  N   UNL     1      -1.428  12.065  20.020  0.00  0.00    +0.000 N 
ATOM     15  C   UNL     1      -2.001  13.057  20.959  0.00  0.00    +0.000 C 
ATOM     16  C   UNL     1      -3.512  12.853  21.125  0.00  0.00    +0.000 C 
ATOM     17  O   UNL     1      -4.184  12.890  19.856  0.00  0.00    +0.000 OA
ATOM     18  C   UNL     1      -3.679  11.850  19.003  0.00  0.00    +0.000 C 
ATOM     19  C   UNL     1      -2.173  12.011  18.740  0.00  0.00    +0.000 C 
ENDBRANCH  12  14
ENDBRANCH   4   7
BRANCH   1  24
ATOM     20  C   UNL     1       6.038   5.855  17.084  0.00  0.00    +0.000 A 
ATOM     21  S   UNL     1       6.842   4.721  16.082  0.00  0.00    +0.000 S 
ATOM     22  C   UNL     1       5.464   3.729  15.980  0.00  0.00    +0.000 A 
ATOM     23  C   UNL     1       4.392   4.270  16.649  0.00  0.00    +0.000 A 
ATOM     24  C   UNL     1       4.702   5.526  17.276  0.00  0.00    +0.000 A 
BRANCH  20  26
ATOM     25  O   UNL     1       7.476   7.763  16.941  0.00  0.00    +0.000 OA
ATOM     26  C   UNL     1       6.809   6.969  17.604  0.00  0.00    +0.000 C 
ENDBRANCH  20  26
ENDBRANCH   1  24
TORSDOF 4
ENDMDL
MODEL 2
REMARK VINA RESULT:      -7.9      3.278      8.810
REMARK  Name = 
REMARK  4 active torsions:
REMARK  status: ('A' for Active; 'I' for Inactive)
REMARK    1  A    between atoms: C_2  and  C_3
REMARK    2  A    between atoms: C_7  and  C_8
REMARK    3  A    between atoms: C_11  and  C_12
REMARK    4  A    between atoms: C_17  and  N_18
REMARK                            x       y       z     vdW  Elec       q    Type
REMARK                         _______ _______ _______ _____ _____    ______ ____
ROOT
ATOM      1  C   UNL     1       0.582  10.109  19.649  0.00  0.00    +0.000 A 
ATOM      2  C   UNL     1       1.150   9.700  18.435  0.00  0.00    +0.000 A 
ATOM      3  C   UNL     1       1.853   8.497  18.344  0.00  0.00    +0.000 A 
ATOM      4  C   UNL     1       2.010   7.690  19.477  0.00  0.00    +0.000 A 
ATOM      5  C   UNL     1       1.454   8.092  20.693  0.00  0.00    +0.000 A 
ATOM      6  C   UNL     1       0.721   9.275  20.771  0.00  0.00    +0.000 A 
ENDROOT
BRANCH   4   7
ATOM      7  C   UNL     1       2.700   6.401  19.385  0.00  0.00    +0.000 A 
ATOM      8  C   UNL     1       2.245   5.368  20.095  0.00  0.00    +0.000 A 
ATOM      9  C   UNL     1       2.858   4.039  20.017  0.00  0.00    +0.000 A 
ATOM     10  O   UNL     1       2.440   3.127  20.720  0.00  0.00    +0.000 OA
ATOM     11  C   UNL     1       3.951   3.814  19.061  0.00  0.00    +0.000 A 
ATOM     12  C   UNL     1       4.539   4.735  18.277  0.00  0.00    +0.000 A 
ATOM     13  S   UNL     1       4.047   6.417  18.324  0.00  0.00    +0.000 S 
BRANCH  12  14
ATOM     14  N   UNL     1       5.587   4.334  17.430  0.00  0.00    +0.000 N 
ATOM     15  C   UNL     1       6.998   4.718  17.668  0.00  0.00    +0.000 C 
ATOM     16  C   UNL     1       7.469   5.756  16.642  0.00  0.00    +0.000 C 
ATOM     17  O   UNL     1       7.279   5.282  15.299  0.00  0.00    +0.000 OA
ATOM     18  C   UNL     1       5.886   5.017  15.065  0.00  0.00    +0.000 C 
ATOM     19  C   UNL     1       5.344   3.942  16.021  0.00  0.00    +0.000 C 
ENDBRANCH  12  14
ENDBRANCH   4   7
BRANCH   1  24
ATOM     20  C   UNL     1       0.341  12.602  19.986  0.00  0.00    +0.000 A 
ATOM     21  S   UNL     1      -0.864  13.815  20.107  0.00  0.00    +0.000 S 
ATOM     22  C   UNL     1      -2.103  12.724  19.695  0.00  0.00    +0.000 A 
ATOM     23  C   UNL     1      -1.624  11.447  19.520  0.00  0.00    +0.000 A 
ATOM     24  C   UNL     1      -0.203  11.353  19.714  0.00  0.00    +0.000 A 
BRANCH  20  26
ATOM     25  O   UNL     1       2.319  13.112  21.233  0.00  0.00    +0.000 OA
ATOM     26  C   UNL     1       1.725  13.000  20.161  0.00  0.00    +0.000 C 
ENDBRANCH  20  26
ENDBRANCH   1  24
TORSDOF 4
ENDMDL
MODEL 3
REMARK VINA RESULT:      -7.9      3.274      9.027
REMARK  Name = 
REMARK  4 active torsions:
REMARK  status: ('A' for Active; 'I' for Inactive)
REMARK    1  A    between atoms: C_2  and  C_3
REMARK    2  A    between atoms: C_7  and  C_8
REMARK    3  A    between atoms: C_11  and  C_12
REMARK    4  A    between atoms: C_17  and  N_18
REMARK                            x       y       z     vdW  Elec       q    Type
REMARK                         _______ _______ _______ _____ _____    ______ ____
ROOT
ATOM      1  C   UNL     1       0.814   9.708  19.831  0.00  0.00    +0.000 A 
ATOM      2  C   UNL     1       0.864   8.779  20.878  0.00  0.00    +0.000 A 
ATOM      3  C   UNL     1       1.547   7.570  20.728  0.00  0.00    +0.000 A 
ATOM      4  C   UNL     1       2.181   7.269  19.516  0.00  0.00    +0.000 A 
ATOM      5  C   UNL     1       2.130   8.186  18.465  0.00  0.00    +0.000 A 
ATOM      6  C   UNL     1       1.479   9.407  18.631  0.00  0.00    +0.000 A 
ENDROOT
BRANCH   4   7
ATOM      7  C   UNL     1       2.944   6.028  19.361  0.00  0.00    +0.000 A 
ATOM      8  C   UNL     1       2.594   4.957  20.074  0.00  0.00    +0.000 A 
ATOM      9  C   UNL     1       3.284   3.671  19.938  0.00  0.00    +0.000 A 
ATOM     10  O   UNL     1       2.964   2.723  20.644  0.00  0.00    +0.000 OA
ATOM     11  C   UNL     1       4.334   3.531  18.920  0.00  0.00    +0.000 A 
ATOM     12  C   UNL     1       4.819   4.500  18.122  0.00  0.00    +0.000 A 
ATOM     13  S   UNL     1       4.226   6.146  18.229  0.00  0.00    +0.000 S 
BRANCH  12  14
ATOM     14  N   UNL     1       5.841   4.179  17.212  0.00  0.00    +0.000 N 
ATOM     15  C   UNL     1       7.235   4.654  17.375  0.00  0.00    +0.000 C 
ATOM     16  C   UNL     1       7.576   5.733  16.340  0.00  0.00    +0.000 C 
ATOM     17  O   UNL     1       7.340   5.262  15.003  0.00  0.00    +0.000 OA
ATOM     18  C   UNL     1       5.958   4.906  14.844  0.00  0.00    +0.000 C 
ATOM     19  C   UNL     1       5.544   3.787  15.814  0.00  0.00    +0.000 C 
ENDBRANCH  12  14
ENDBRANCH   4   7
BRANCH   1  24
ATOM     20  C   UNL     1      -1.042  11.365  19.385  0.00  0.00    +0.000 A 
ATOM     21  S   UNL     1      -1.495  12.979  19.741  0.00  0.00    +0.000 S 
ATOM     22  C   UNL     1      -0.200  13.177  20.826  0.00  0.00    +0.000 A 
ATOM     23  C   UNL     1       0.598  12.058  20.881  0.00  0.00    +0.000 A 
ATOM     24  C   UNL     1       0.136  11.001  20.024  0.00  0.00    +0.000 A 
BRANCH  20  26
ATOM     25  O   UNL     1      -1.634  10.221  17.368  0.00  0.00    +0.000 OA
ATOM     26  C   UNL     1      -1.905  10.595  18.509  0.00  0.00    +0.000 C 
ENDBRANCH  20  26
ENDBRANCH   1  24
TORSDOF 4
ENDMDL
MODEL 4
REMARK VINA RESULT:      -7.9      1.030      1.528
REMARK  Name = 
REMARK  4 active torsions:
REMARK  status: ('A' for Active; 'I' for Inactive)
REMARK    1  A    between atoms: C_2  and  C_3
REMARK    2  A    between atoms: C_7  and  C_8
REMARK    3  A    between atoms: C_11  and  C_12
REMARK    4  A    between atoms: C_17  and  N_18
REMARK                            x       y       z     vdW  Elec       q    Type
REMARK                         _______ _______ _______ _____ _____    ______ ____
ROOT
ATOM      1  C   UNL     1       3.676   6.335  18.074  0.00  0.00    +0.000 A 
ATOM      2  C   UNL     1       3.249   7.549  17.519  0.00  0.00    +0.000 A 
ATOM      3  C   UNL     1       2.405   8.403  18.233  0.00  0.00    +0.000 A 
ATOM      4  C   UNL     1       1.965   8.044  19.513  0.00  0.00    +0.000 A 
ATOM      5  C   UNL     1       2.379   6.833  20.071  0.00  0.00    +0.000 A 
ATOM      6  C   UNL     1       3.251   6.001  19.370  0.00  0.00    +0.000 A 
ENDROOT
BRANCH   4   7
ATOM      7  C   UNL     1       1.122   8.953  20.294  0.00  0.00    +0.000 A 
ATOM      8  C   UNL     1       1.107   8.844  21.623  0.00  0.00    +0.000 A 
ATOM      9  C   UNL     1       0.322   9.748  22.469  0.00  0.00    +0.000 A 
ATOM     10  O   UNL     1       0.297   9.586  23.683  0.00  0.00    +0.000 OA
ATOM     11  C   UNL     1      -0.398  10.864  21.842  0.00  0.00    +0.000 A 
ATOM     12  C   UNL     1      -0.500  11.121  20.526  0.00  0.00    +0.000 A 
ATOM     13  S   UNL     1       0.249  10.075  19.335  0.00  0.00    +0.000 S 
BRANCH  12  14
ATOM     14  N   UNL     1      -1.249  12.236  20.109  0.00  0.00    +0.000 N 
ATOM     15  C   UNL     1      -1.006  12.925  18.821  0.00  0.00    +0.000 C 
ATOM     16  C   UNL     1      -0.353  14.295  19.042  0.00  0.00    +0.000 C 
ATOM     17  O   UNL     1      -1.139  15.109  19.927  0.00  0.00    +0.000 OA
ATOM     18  C   UNL     1      -1.271  14.461  21.202  0.00  0.00    +0.000 C 
ATOM     19  C   UNL     1      -1.968  13.097  21.078  0.00  0.00    +0.000 C 
ENDBRANCH  12  14
ENDBRANCH   4   7
BRANCH   1  24
ATOM     20  C   UNL     1       5.945   5.783  17.106  0.00  0.00    +0.000 A 
ATOM     21  S   UNL     1       6.714   4.623  16.105  0.00  0.00    +0.000 S 
ATOM     22  C   UNL     1       5.322   3.646  16.047  0.00  0.00    +0.000 A 
ATOM     23  C   UNL     1       4.271   4.211  16.730  0.00  0.00    +0.000 A 
ATOM     24  C   UNL     1       4.609   5.473  17.330  0.00  0.00    +0.000 A 
BRANCH  20  26
ATOM     25  O   UNL     1       7.456   7.628  16.910  0.00  0.00    +0.000 OA
ATOM     26  C   UNL     1       6.739   6.895  17.592  0.00  0.00    +0.000 C 
ENDBRANCH  20  26
ENDBRANCH   1  24
TORSDOF 4
ENDMDL
MODEL 5
REMARK VINA RESULT:      -7.9      0.417      1.035
REMARK  Name = 
REMARK  4 active torsions:
REMARK  status: ('A' for Active; 'I' for Inactive)
REMARK    1  A    between atoms: C_2  and  C_3
REMARK    2  A    between atoms: C_7  and  C_8
REMARK    3  A    between atoms: C_11  and  C_12
REMARK    4  A    between atoms: C_17  and  N_18
REMARK                            x       y       z     vdW  Elec       q    Type
REMARK                         _______ _______ _______ _____ _____    ______ ____
ROOT
ATOM      1  C   UNL     1       3.742   6.391  18.056  0.00  0.00    +0.000 A 
ATOM      2  C   UNL     1       3.222   6.043  19.310  0.00  0.00    +0.000 A 
ATOM      3  C   UNL     1       2.353   6.902  19.985  0.00  0.00    +0.000 A 
ATOM      4  C   UNL     1       2.003   8.134  19.418  0.00  0.00    +0.000 A 
ATOM      5  C   UNL     1       2.522   8.492  18.173  0.00  0.00    +0.000 A 
ATOM      6  C   UNL     1       3.359   7.616  17.485  0.00  0.00    +0.000 A 
ENDROOT
BRANCH   4   7
ATOM      7  C   UNL     1       1.052   9.022  20.092  0.00  0.00    +0.000 A 
ATOM      8  C   UNL     1       1.039   9.068  21.425  0.00  0.00    +0.000 A 
ATOM      9  C   UNL     1       0.146   9.966  22.164  0.00  0.00    +0.000 A 
ATOM     10  O   UNL     1       0.130   9.946  23.388  0.00  0.00    +0.000 OA
ATOM     11  C   UNL     1      -0.695  10.910  21.414  0.00  0.00    +0.000 A 
ATOM     12  C   UNL     1      -0.814  10.998  20.077  0.00  0.00    +0.000 A 
ATOM     13  S   UNL     1       0.062   9.914  19.013  0.00  0.00    +0.000 S 
BRANCH  12  14
ATOM     14  N   UNL     1      -1.685  11.960  19.537  0.00  0.00    +0.000 N 
ATOM     15  C   UNL     1      -2.384  12.964  20.373  0.00  0.00    +0.000 C 
ATOM     16  C   UNL     1      -3.881  12.650  20.477  0.00  0.00    +0.000 C 
ATOM     17  O   UNL     1      -4.482  12.547  19.177  0.00  0.00    +0.000 OA
ATOM     18  C   UNL     1      -3.853  11.497  18.426  0.00  0.00    +0.000 C 
ATOM     19  C   UNL     1      -2.351  11.760  18.228  0.00  0.00    +0.000 C 
ENDBRANCH  12  14
ENDBRANCH   4   7
BRANCH   1  24
ATOM     20  C   UNL     1       5.972   5.650  17.125  0.00  0.00    +0.000 A 
ATOM     21  S   UNL     1       6.661   4.424  16.145  0.00  0.00    +0.000 S 
ATOM     22  C   UNL     1       5.196   3.561  16.075  0.00  0.00    +0.000 A 
ATOM     23  C   UNL     1       4.184   4.214  16.737  0.00  0.00    +0.000 A 
ATOM     24  C   UNL     1       4.613   5.450  17.333  0.00  0.00    +0.000 A 
BRANCH  20  26
ATOM     25  O   UNL     1       7.029   7.797  17.086  0.00  0.00    +0.000 OA
ATOM     26  C   UNL     1       6.846   6.700  17.614  0.00  0.00    +0.000 C 
ENDBRANCH  20  26
ENDBRANCH   1  24
TORSDOF 4
ENDMDL
MODEL 6
REMARK VINA RESULT:      -7.9      1.548      1.904
REMARK  Name = 
REMARK  4 active torsions:
REMARK  status: ('A' for Active; 'I' for Inactive)
REMARK    1  A    between atoms: C_2  and  C_3
REMARK    2  A    between atoms: C_7  and  C_8
REMARK    3  A    between atoms: C_11  and  C_12
REMARK    4  A    between atoms: C_17  and  N_18
REMARK                            x       y       z     vdW  Elec       q    Type
REMARK                         _______ _______ _______ _____ _____    ______ ____
ROOT
ATOM      1  C   UNL     1       3.350   6.713  18.076  0.00  0.00    +0.000 A 
ATOM      2  C   UNL     1       2.830   7.925  17.601  0.00  0.00    +0.000 A 
ATOM      3  C   UNL     1       1.998   8.708  18.404  0.00  0.00    +0.000 A 
ATOM      4  C   UNL     1       1.661   8.279  19.693  0.00  0.00    +0.000 A 
ATOM      5  C   UNL     1       2.168   7.069  20.172  0.00  0.00    +0.000 A 
ATOM      6  C   UNL     1       3.029   6.309  19.382  0.00  0.00    +0.000 A 
ENDROOT
BRANCH   4   7
ATOM      7  C   UNL     1       0.831   9.114  20.565  0.00  0.00    +0.000 A 
ATOM      8  C   UNL     1       0.926   8.968  21.887  0.00  0.00    +0.000 A 
ATOM      9  C   UNL     1       0.159   9.800  22.819  0.00  0.00    +0.000 A 
ATOM     10  O   UNL     1       0.239   9.604  24.026  0.00  0.00    +0.000 OA
ATOM     11  C   UNL     1      -0.671  10.889  22.285  0.00  0.00    +0.000 A 
ATOM     12  C   UNL     1      -0.889  11.175  20.988  0.00  0.00    +0.000 A 
ATOM     13  S   UNL     1      -0.177  10.208  19.711  0.00  0.00    +0.000 S 
BRANCH  12  14
ATOM     14  N   UNL     1      -1.731  12.254  20.666  0.00  0.00    +0.000 N 
ATOM     15  C   UNL     1      -2.456  13.037  21.694  0.00  0.00    +0.000 C 
ATOM     16  C   UNL     1      -3.958  12.731  21.663  0.00  0.00    +0.000 C 
ATOM     17  O   UNL     1      -4.508  12.956  20.355  0.00  0.00    +0.000 OA
ATOM     18  C   UNL     1      -3.856  12.108  19.396  0.00  0.00    +0.000 C 
ATOM     19  C   UNL     1      -2.346  12.387  19.324  0.00  0.00    +0.000 C 
ENDBRANCH  12  14
ENDBRANCH   4   7
BRANCH   1  24
ATOM     20  C   UNL     1       4.119   4.570  16.978  0.00  0.00    +0.000 A 
ATOM     21  S   UNL     1       5.427   3.940  16.067  0.00  0.00    +0.000 S 
ATOM     22  C   UNL     1       6.151   5.473  15.916  0.00  0.00    +0.000 A 
ATOM     23  C   UNL     1       5.444   6.442  16.588  0.00  0.00    +0.000 A 
ATOM     24  C   UNL     1       4.270   5.927  17.237  0.00  0.00    +0.000 A 
BRANCH  20  26
ATOM     25  O   UNL     1       3.013   2.949  18.347  0.00  0.00    +0.000 OA
ATOM     26  C   UNL     1       3.048   3.663  17.345  0.00  0.00    +0.000 C 
ENDBRANCH  20  26
ENDBRANCH   1  24
TORSDOF 4
ENDMDL
MODEL 7
REMARK VINA RESULT:      -7.9      3.207      9.144
REMARK  Name = 
REMARK  4 active torsions:
REMARK  status: ('A' for Active; 'I' for Inactive)
REMARK    1  A    between atoms: C_2  and  C_3
REMARK    2  A    between atoms: C_7  and  C_8
REMARK    3  A    between atoms: C_11  and  C_12
REMARK    4  A    between atoms: C_17  and  N_18
REMARK                            x       y       z     vdW  Elec       q    Type
REMARK                         _______ _______ _______ _____ _____    ______ ____
ROOT
ATOM      1  C   UNL     1       0.953   9.410  20.321  0.00  0.00    +0.000 A 
ATOM      2  C   UNL     1       1.447   9.362  19.011  0.00  0.00    +0.000 A 
ATOM      3  C   UNL     1       2.000   8.186  18.499  0.00  0.00    +0.000 A 
ATOM      4  C   UNL     1       2.080   7.042  19.302  0.00  0.00    +0.000 A 
ATOM      5  C   UNL     1       1.597   7.083  20.611  0.00  0.00    +0.000 A 
ATOM      6  C   UNL     1       1.011   8.247  21.105  0.00  0.00    +0.000 A 
ENDROOT
BRANCH   4   7
ATOM      7  C   UNL     1       2.611   5.788  18.763  0.00  0.00    +0.000 A 
ATOM      8  C   UNL     1       1.845   4.696  18.782  0.00  0.00    +0.000 A 
ATOM      9  C   UNL     1       2.294   3.419  18.220  0.00  0.00    +0.000 A 
ATOM     10  O   UNL     1       1.580   2.427  18.299  0.00  0.00    +0.000 OA
ATOM     11  C   UNL     1       3.591   3.361  17.532  0.00  0.00    +0.000 A 
ATOM     12  C   UNL     1       4.492   4.354  17.423  0.00  0.00    +0.000 A 
ATOM     13  S   UNL     1       4.208   5.923  18.153  0.00  0.00    +0.000 S 
BRANCH  12  14
ATOM     14  N   UNL     1       5.692   4.107  16.735  0.00  0.00    +0.000 N 
ATOM     15  C   UNL     1       7.002   4.620  17.203  0.00  0.00    +0.000 C 
ATOM     16  C   UNL     1       7.506   5.753  16.301  0.00  0.00    +0.000 C 
ATOM     17  O   UNL     1       7.571   5.334  14.928  0.00  0.00    +0.000 OA
ATOM     18  C   UNL     1       6.267   4.940  14.472  0.00  0.00    +0.000 C 
ATOM     19  C   UNL     1       5.708   3.767  15.293  0.00  0.00    +0.000 C 
ENDBRANCH  12  14
ENDBRANCH   4   7
BRANCH   1  24
ATOM     20  C   UNL     1      -0.287  10.750  22.070  0.00  0.00    +0.000 A 
ATOM     21  S   UNL     1      -1.024  12.281  22.294  0.00  0.00    +0.000 S 
ATOM     22  C   UNL     1      -0.454  12.852  20.796  0.00  0.00    +0.000 A 
ATOM     23  C   UNL     1       0.240  11.884  20.109  0.00  0.00    +0.000 A 
ATOM     24  C   UNL     1       0.322  10.642  20.826  0.00  0.00    +0.000 A 
BRANCH  20  26
ATOM     25  O   UNL     1       0.447   9.659  24.069  0.00  0.00    +0.000 OA
ATOM     26  C   UNL     1      -0.368   9.792  23.156  0.00  0.00    +0.000 C 
ENDBRANCH  20  26
ENDBRANCH   1  24
TORSDOF 4
ENDMDL
MODEL 8
REMARK VINA RESULT:      -7.8      1.798      2.345
REMARK  Name = 
REMARK  4 active torsions:
REMARK  status: ('A' for Active; 'I' for Inactive)
REMARK    1  A    between atoms: C_2  and  C_3
REMARK    2  A    between atoms: C_7  and  C_8
REMARK    3  A    between atoms: C_11  and  C_12
REMARK    4  A    between atoms: C_17  and  N_18
REMARK                            x       y       z     vdW  Elec       q    Type
REMARK                         _______ _______ _______ _____ _____    ______ ____
ROOT
ATOM      1  C   UNL     1       3.377   6.689  18.029  0.00  0.00    +0.000 A 
ATOM      2  C   UNL     1       2.863   7.907  17.565  0.00  0.00    +0.000 A 
ATOM      3  C   UNL     1       2.036   8.688  18.374  0.00  0.00    +0.000 A 
ATOM      4  C   UNL     1       1.698   8.250  19.661  0.00  0.00    +0.000 A 
ATOM      5  C   UNL     1       2.200   7.034  20.129  0.00  0.00    +0.000 A 
ATOM      6  C   UNL     1       3.056   6.276  19.332  0.00  0.00    +0.000 A 
ENDROOT
BRANCH   4   7
ATOM      7  C   UNL     1       0.874   9.082  20.540  0.00  0.00    +0.000 A 
ATOM      8  C   UNL     1       0.984   8.940  21.861  0.00  0.00    +0.000 A 
ATOM      9  C   UNL     1       0.223   9.769  22.800  0.00  0.00    +0.000 A 
ATOM     10  O   UNL     1       0.317   9.576  24.006  0.00  0.00    +0.000 OA
ATOM     11  C   UNL     1      -0.618  10.852  22.273  0.00  0.00    +0.000 A 
ATOM     12  C   UNL     1      -0.853  11.135  20.979  0.00  0.00    +0.000 A 
ATOM     13  S   UNL     1      -0.150  10.169  19.696  0.00  0.00    +0.000 S 
BRANCH  12  14
ATOM     14  N   UNL     1      -1.704  12.208  20.664  0.00  0.00    +0.000 N 
ATOM     15  C   UNL     1      -1.433  13.141  19.545  0.00  0.00    +0.000 C 
ATOM     16  C   UNL     1      -1.001  14.517  20.066  0.00  0.00    +0.000 C 
ATOM     17  O   UNL     1      -1.975  15.060  20.971  0.00  0.00    +0.000 OA
ATOM     18  C   UNL     1      -2.141  14.184  22.097  0.00  0.00    +0.000 C 
ATOM     19  C   UNL     1      -2.627  12.791  21.667  0.00  0.00    +0.000 C 
ENDBRANCH  12  14
ENDBRANCH   4   7
BRANCH   1  24
ATOM     20  C   UNL     1       4.176   4.536  16.972  0.00  0.00    +0.000 A 
ATOM     21  S   UNL     1       5.472   3.918  16.035  0.00  0.00    +0.000 S 
ATOM     22  C   UNL     1       6.139   5.467  15.809  0.00  0.00    +0.000 A 
ATOM     23  C   UNL     1       5.426   6.435  16.476  0.00  0.00    +0.000 A 
ATOM     24  C   UNL     1       4.292   5.904  17.183  0.00  0.00    +0.000 A 
BRANCH  20  26
ATOM     25  O   UNL     1       1.960   3.643  17.090  0.00  0.00    +0.000 OA
ATOM     26  C   UNL     1       3.149   3.609  17.406  0.00  0.00    +0.000 C 
ENDBRANCH  20  26
ENDBRANCH   1  24
TORSDOF 4
ENDMDL
MODEL 9
REMARK VINA RESULT:      -7.8      3.287      9.169
REMARK  Name = 
REMARK  4 active torsions:
REMARK  status: ('A' for Active; 'I' for Inactive)
REMARK    1  A    between atoms: C_2  and  C_3
REMARK    2  A    between atoms: C_7  and  C_8
REMARK    3  A    between atoms: C_11  and  C_12
REMARK    4  A    between atoms: C_17  and  N_18
REMARK                            x       y       z     vdW  Elec       q    Type
REMARK                         _______ _______ _______ _____ _____    ______ ____
ROOT
ATOM      1  C   UNL     1       1.078   9.995  19.444  0.00  0.00    +0.000 A 
ATOM      2  C   UNL     1       1.558   9.796  18.142  0.00  0.00    +0.000 A 
ATOM      3  C   UNL     1       2.074   8.558  17.753  0.00  0.00    +0.000 A 
ATOM      4  C   UNL     1       2.131   7.502  18.670  0.00  0.00    +0.000 A 
ATOM      5  C   UNL     1       1.663   7.694  19.971  0.00  0.00    +0.000 A 
ATOM      6  C   UNL     1       1.113   8.919  20.345  0.00  0.00    +0.000 A 
ENDROOT
BRANCH   4   7
ATOM      7  C   UNL     1       2.622   6.184  18.262  0.00  0.00    +0.000 A 
ATOM      8  C   UNL     1       1.791   5.142  18.296  0.00  0.00    +0.000 A 
ATOM      9  C   UNL     1       2.202   3.804  17.860  0.00  0.00    +0.000 A 
ATOM     10  O   UNL     1       1.424   2.862  17.951  0.00  0.00    +0.000 OA
ATOM     11  C   UNL     1       3.540   3.623  17.281  0.00  0.00    +0.000 A 
ATOM     12  C   UNL     1       4.506   4.554  17.175  0.00  0.00    +0.000 A 
ATOM     13  S   UNL     1       4.266   6.185  17.771  0.00  0.00    +0.000 S 
BRANCH  12  14
ATOM     14  N   UNL     1       5.737   4.190  16.602  0.00  0.00    +0.000 N 
ATOM     15  C   UNL     1       7.034   4.693  17.110  0.00  0.00    +0.000 C 
ATOM     16  C   UNL     1       7.651   5.708  16.140  0.00  0.00    +0.000 C 
ATOM     17  O   UNL     1       7.789   5.152  14.823  0.00  0.00    +0.000 OA
ATOM     18  C   UNL     1       6.501   4.768  14.315  0.00  0.00    +0.000 C 
ATOM     19  C   UNL     1       5.832   3.707  15.204  0.00  0.00    +0.000 C 
ENDBRANCH  12  14
ENDBRANCH   4   7
BRANCH   1  24
ATOM     20  C   UNL     1      -0.616  11.854  19.193  0.00  0.00    +0.000 A 
ATOM     21  S   UNL     1      -0.971  13.418  19.798  0.00  0.00    +0.000 S 
ATOM     22  C   UNL     1       0.261  13.320  20.969  0.00  0.00    +0.000 A 
ATOM     23  C   UNL     1       0.968  12.145  20.872  0.00  0.00    +0.000 A 
ATOM     24  C   UNL     1       0.487  11.289  19.821  0.00  0.00    +0.000 A 
BRANCH  20  26
ATOM     25  O   UNL     1      -2.327  10.443  18.295  0.00  0.00    +0.000 OA
ATOM     26  C   UNL     1      -1.473  11.318  18.152  0.00  0.00    +0.000 C 
ENDBRANCH  20  26
ENDBRANCH   1  24
TORSDOF 4
ENDMDL
