MODEL 1
REMARK VINA RESULT:      -7.1      0.000      0.000
REMARK  Name = 
REMARK  5 active torsions:
REMARK  status: ('A' for Active; 'I' for Inactive)
REMARK    1  A    between atoms: N_1  and  C_2
REMARK    2  A    between atoms: N_10  and  C_11
REMARK    3  A    between atoms: C_13  and  C_14
REMARK    4  A    between atoms: C_14  and  O_15
REMARK    5  A    between atoms: C_16  and  O_17
REMARK                            x       y       z     vdW  Elec       q    Type
REMARK                         _______ _______ _______ _____ _____    ______ ____
ROOT
ATOM      1  C   UNL     1       7.090   5.548  15.662  0.00  0.00    +0.000 A 
ATOM      2  N   UNL     1       7.646   6.564  16.357  0.00  0.00    +0.000 NA
ATOM      3  C   UNL     1       7.108   6.897  17.549  0.00  0.00    +0.000 A 
ATOM      4  N   UNL     1       6.051   6.339  18.179  0.00  0.00    +0.000 NA
ATOM      5  C   UNL     1       5.514   5.359  17.432  0.00  0.00    +0.000 A 
ATOM      6  C   UNL     1       5.943   4.923  16.192  0.00  0.00    +0.000 A 
ATOM      7  N   UNL     1       5.133   3.912  15.722  0.00  0.00    +0.000 NA
ATOM      8  C   UNL     1       4.250   3.716  16.680  0.00  0.00    +0.000 A 
ATOM      9  N   UNL     1       4.451   4.552  17.745  0.00  0.00    +0.000 N 
ENDROOT
BRANCH   9  10
ATOM     10  C   UNL     1       3.783   4.520  19.027  0.00  0.00    +0.000 C 
ATOM     11  O   UNL     1       3.569   3.138  19.425  0.00  0.00    +0.000 OA
ATOM     12  C   UNL     1       2.290   3.043  20.095  0.00  0.00    +0.000 C 
ATOM     13  C   UNL     1       1.766   4.471  20.264  0.00  0.00    +0.000 C 
ATOM     14  C   UNL     1       2.426   5.203  19.098  0.00  0.00    +0.000 C 
ATOM     15  F   UNL     1       1.702   4.957  17.973  0.00  0.00    +0.000 F 
ATOM     16 BR   UNL     1       2.532   7.113  19.389  0.00  0.00    +0.000 Br
BRANCH  13  17
ATOM     17  O   UNL     1       2.142   4.957  21.563  0.00  0.00    +0.000 OA
ATOM     18  H   UNL     1       1.357   5.093  22.122  0.00  0.00    +0.000 HD
ENDBRANCH  13  17
BRANCH  12  19
ATOM     19  C   UNL     1       1.335   2.146  19.294  0.00  0.00    +0.000 C 
BRANCH  19  20
ATOM     20  O   UNL     1       2.008   1.466  18.238  0.00  0.00    +0.000 OA
ATOM     21  H   UNL     1       2.104   2.067  17.480  0.00  0.00    +0.000 HD
ENDBRANCH  19  20
ENDBRANCH  12  19
ENDBRANCH   9  10
BRANCH   1  22
ATOM     22  N   UNL     1       7.677   5.167  14.464  0.00  0.00    +0.000 N 
ATOM     23  H   UNL     1       7.002   4.959  13.742  0.00  0.00    +0.000 HD
ATOM     24  H   UNL     1       8.473   4.549  14.571  0.00  0.00    +0.000 HD
ENDBRANCH   1  22
TORSDOF 5
ENDMDL
MODEL 2
REMARK VINA RESULT:      -6.8      3.079      5.905
REMARK  Name = 
REMARK  5 active torsions:
REMARK  status: ('A' for Active; 'I' for Inactive)
REMARK    1  A    between atoms: N_1  and  C_2
REMARK    2  A    between atoms: N_10  and  C_11
REMARK    3  A    between atoms: C_13  and  C_14
REMARK    4  A    between atoms: C_14  and  O_15
REMARK    5  A    between atoms: C_16  and  O_17
REMARK                            x       y       z     vdW  Elec       q    Type
REMARK                         _______ _______ _______ _____ _____    ______ ____
ROOT
ATOM      1  C   UNL     1       1.473   2.994  19.752  0.00  0.00    +0.000 A 
ATOM      2  N   UNL     1       1.333   1.984  18.866  0.00  0.00    +0.000 NA
ATOM      3  C   UNL     1       2.210   1.901  17.843  0.00  0.00    +0.000 A 
ATOM      4  N   UNL     1       3.253   2.712  17.562  0.00  0.00    +0.000 NA
ATOM      5  C   UNL     1       3.326   3.718  18.451  0.00  0.00    +0.000 A 
ATOM      6  C   UNL     1       2.493   3.941  19.532  0.00  0.00    +0.000 A 
ATOM      7  N   UNL     1       2.863   5.085  20.207  0.00  0.00    +0.000 NA
ATOM      8  C   UNL     1       3.925   5.525  19.564  0.00  0.00    +0.000 A 
ATOM      9  N   UNL     1       4.259   4.722  18.507  0.00  0.00    +0.000 N 
ENDROOT
BRANCH   9  10
ATOM     10  C   UNL     1       5.440   4.804  17.678  0.00  0.00    +0.000 C 
ATOM     11  O   UNL     1       6.600   4.382  18.449  0.00  0.00    +0.000 OA
ATOM     12  C   UNL     1       7.729   5.203  18.069  0.00  0.00    +0.000 C 
ATOM     13  C   UNL     1       7.280   6.062  16.884  0.00  0.00    +0.000 C 
ATOM     14  C   UNL     1       5.775   6.174  17.112  0.00  0.00    +0.000 C 
ATOM     15  F   UNL     1       5.553   7.147  18.038  0.00  0.00    +0.000 F 
ATOM     16 BR   UNL     1       4.811   6.601  15.489  0.00  0.00    +0.000 Br
BRANCH  13  17
ATOM     17  O   UNL     1       7.651   5.404  15.662  0.00  0.00    +0.000 OA
ATOM     18  H   UNL     1       8.618   5.403  15.550  0.00  0.00    +0.000 HD
ENDBRANCH  13  17
BRANCH  12  19
ATOM     19  C   UNL     1       8.207   6.037  19.266  0.00  0.00    +0.000 C 
BRANCH  19  20
ATOM     20  O   UNL     1       7.888   5.413  20.506  0.00  0.00    +0.000 OA
ATOM     21  H   UNL     1       8.439   4.620  20.617  0.00  0.00    +0.000 HD
ENDBRANCH  19  20
ENDBRANCH  12  19
ENDBRANCH   9  10
BRANCH   1  22
ATOM     22  N   UNL     1       0.608   3.047  20.836  0.00  0.00    +0.000 N 
ATOM     23  H   UNL     1      -0.293   2.636  20.642  0.00  0.00    +0.000 HD
ATOM     24  H   UNL     1       0.638   3.923  21.345  0.00  0.00    +0.000 HD
ENDBRANCH   1  22
TORSDOF 5
ENDMDL
MODEL 3
REMARK VINA RESULT:      -6.7      3.258      6.091
REMARK  Name = 
REMARK  5 active torsions:
REMARK  status: ('A' for Active; 'I' for Inactive)
REMARK    1  A    between atoms: N_1  and  C_2
REMARK    2  A    between atoms: N_10  and  C_11
REMARK    3  A    between atoms: C_13  and  C_14
REMARK    4  A    between atoms: C_14  and  O_15
REMARK    5  A    between atoms: C_16  and  O_17
REMARK                            x       y       z     vdW  Elec       q    Type
REMARK                         _______ _______ _______ _____ _____    ______ ____
ROOT
ATOM      1  C   UNL     1       1.564   2.977  19.853  0.00  0.00    +0.000 A 
ATOM      2  N   UNL     1       1.412   1.917  19.030  0.00  0.00    +0.000 NA
ATOM      3  C   UNL     1       2.320   1.730  18.050  0.00  0.00    +0.000 A 
ATOM      4  N   UNL     1       3.407   2.477  17.757  0.00  0.00    +0.000 NA
ATOM      5  C   UNL     1       3.493   3.536  18.581  0.00  0.00    +0.000 A 
ATOM      6  C   UNL     1       2.632   3.864  19.613  0.00  0.00    +0.000 A 
ATOM      7  N   UNL     1       3.028   5.033  20.226  0.00  0.00    +0.000 NA
ATOM      8  C   UNL     1       4.131   5.386  19.597  0.00  0.00    +0.000 A 
ATOM      9  N   UNL     1       4.466   4.501  18.608  0.00  0.00    +0.000 N 
ENDROOT
BRANCH   9  10
ATOM     10  C   UNL     1       5.679   4.478  17.822  0.00  0.00    +0.000 C 
ATOM     11  O   UNL     1       6.795   4.919  18.644  0.00  0.00    +0.000 OA
ATOM     12  C   UNL     1       7.692   5.703  17.823  0.00  0.00    +0.000 C 
ATOM     13  C   UNL     1       7.186   5.598  16.382  0.00  0.00    +0.000 C 
ATOM     14  C   UNL     1       5.693   5.349  16.575  0.00  0.00    +0.000 C 
ATOM     15  F   UNL     1       5.086   6.544  16.815  0.00  0.00    +0.000 F 
ATOM     16 BR   UNL     1       4.877   4.512  15.034  0.00  0.00    +0.000 Br
BRANCH  13  17
ATOM     17  O   UNL     1       7.887   4.536  15.716  0.00  0.00    +0.000 OA
ATOM     18  H   UNL     1       7.284   4.028  15.146  0.00  0.00    +0.000 HD
ENDBRANCH  13  17
BRANCH  12  19
ATOM     19  C   UNL     1       7.753   7.149  18.332  0.00  0.00    +0.000 C 
BRANCH  19  20
ATOM     20  O   UNL     1       7.781   8.088  17.260  0.00  0.00    +0.000 OA
ATOM     21  H   UNL     1       8.293   7.716  16.522  0.00  0.00    +0.000 HD
ENDBRANCH  19  20
ENDBRANCH  12  19
ENDBRANCH   9  10
BRANCH   1  22
ATOM     22  N   UNL     1       0.664   3.138  20.897  0.00  0.00    +0.000 N 
ATOM     23  H   UNL     1      -0.149   3.678  20.638  0.00  0.00    +0.000 HD
ATOM     24  H   UNL     1       1.100   3.323  21.793  0.00  0.00    +0.000 HD
ENDBRANCH   1  22
TORSDOF 5
ENDMDL
MODEL 4
REMARK VINA RESULT:      -6.6      1.207      2.207
REMARK  Name = 
REMARK  5 active torsions:
REMARK  status: ('A' for Active; 'I' for Inactive)
REMARK    1  A    between atoms: N_1  and  C_2
REMARK    2  A    between atoms: N_10  and  C_11
REMARK    3  A    between atoms: C_13  and  C_14
REMARK    4  A    between atoms: C_14  and  O_15
REMARK    5  A    between atoms: C_16  and  O_17
REMARK                            x       y       z     vdW  Elec       q    Type
REMARK                         _______ _______ _______ _____ _____    ______ ____
ROOT
ATOM      1  C   UNL     1       6.979   4.943  14.795  0.00  0.00    +0.000 A 
ATOM      2  N   UNL     1       6.383   3.772  14.481  0.00  0.00    +0.000 NA
ATOM      3  C   UNL     1       5.511   3.239  15.361  0.00  0.00    +0.000 A 
ATOM      4  N   UNL     1       5.127   3.724  16.562  0.00  0.00    +0.000 NA
ATOM      5  C   UNL     1       5.774   4.869  16.842  0.00  0.00    +0.000 A 
ATOM      6  C   UNL     1       6.702   5.520  16.051  0.00  0.00    +0.000 A 
ATOM      7  N   UNL     1       7.167   6.656  16.677  0.00  0.00    +0.000 NA
ATOM      8  C   UNL     1       6.504   6.709  17.814  0.00  0.00    +0.000 A 
ATOM      9  N   UNL     1       5.632   5.662  17.952  0.00  0.00    +0.000 N 
ENDROOT
BRANCH   9  10
ATOM     10  C   UNL     1       4.638   5.475  18.985  0.00  0.00    +0.000 C 
ATOM     11  O   UNL     1       4.737   4.121  19.508  0.00  0.00    +0.000 OA
ATOM     12  C   UNL     1       3.403   3.641  19.799  0.00  0.00    +0.000 C 
ATOM     13  C   UNL     1       2.449   4.821  19.600  0.00  0.00    +0.000 C 
ATOM     14  C   UNL     1       3.188   5.672  18.571  0.00  0.00    +0.000 C 
ATOM     15  F   UNL     1       2.962   5.143  17.337  0.00  0.00    +0.000 F 
ATOM     16 BR   UNL     1       2.618   7.520  18.592  0.00  0.00    +0.000 Br
BRANCH  13  17
ATOM     17  O   UNL     1       2.235   5.468  20.866  0.00  0.00    +0.000 OA
ATOM     18  H   UNL     1       2.217   4.816  21.588  0.00  0.00    +0.000 HD
ENDBRANCH  13  17
BRANCH  12  19
ATOM     19  C   UNL     1       3.064   2.440  18.906  0.00  0.00    +0.000 C 
BRANCH  19  20
ATOM     20  O   UNL     1       4.228   1.699  18.550  0.00  0.00    +0.000 OA
ATOM     21  H   UNL     1       4.097   0.765  18.781  0.00  0.00    +0.000 HD
ENDBRANCH  19  20
ENDBRANCH  12  19
ENDBRANCH   9  10
BRANCH   1  22
ATOM     22  N   UNL     1       7.833   5.522  13.866  0.00  0.00    +0.000 N 
ATOM     23  H   UNL     1       8.215   4.855  13.212  0.00  0.00    +0.000 HD
ATOM     24  H   UNL     1       8.452   6.224  14.255  0.00  0.00    +0.000 HD
ENDBRANCH   1  22
TORSDOF 5
ENDMDL
MODEL 5
REMARK VINA RESULT:      -6.6      3.773      5.386
REMARK  Name = 
REMARK  5 active torsions:
REMARK  status: ('A' for Active; 'I' for Inactive)
REMARK    1  A    between atoms: N_1  and  C_2
REMARK    2  A    between atoms: N_10  and  C_11
REMARK    3  A    between atoms: C_13  and  C_14
REMARK    4  A    between atoms: C_14  and  O_15
REMARK    5  A    between atoms: C_16  and  O_17
REMARK                            x       y       z     vdW  Elec       q    Type
REMARK                         _______ _______ _______ _____ _____    ______ ____
ROOT
ATOM      1  C   UNL     1       0.951  10.082  19.521  0.00  0.00    +0.000 A 
ATOM      2  N   UNL     1       0.503   9.847  20.774  0.00  0.00    +0.000 NA
ATOM      3  C   UNL     1       0.797   8.663  21.349  0.00  0.00    +0.000 A 
ATOM      4  N   UNL     1       1.505   7.633  20.838  0.00  0.00    +0.000 NA
ATOM      5  C   UNL     1       1.896   7.902  19.580  0.00  0.00    +0.000 A 
ATOM      6  C   UNL     1       1.656   9.057  18.859  0.00  0.00    +0.000 A 
ATOM      7  N   UNL     1       2.195   8.964  17.593  0.00  0.00    +0.000 NA
ATOM      8  C   UNL     1       2.782   7.786  17.564  0.00  0.00    +0.000 A 
ATOM      9  N   UNL     1       2.650   7.113  18.749  0.00  0.00    +0.000 N 
ENDROOT
BRANCH   9  10
ATOM     10  C   UNL     1       3.287   5.874  19.134  0.00  0.00    +0.000 C 
ATOM     11  O   UNL     1       4.565   5.757  18.450  0.00  0.00    +0.000 OA
ATOM     12  C   UNL     1       4.774   4.369  18.096  0.00  0.00    +0.000 C 
ATOM     13  C   UNL     1       3.642   3.568  18.744  0.00  0.00    +0.000 C 
ATOM     14  C   UNL     1       2.519   4.597  18.833  0.00  0.00    +0.000 C 
ATOM     15  F   UNL     1       1.912   4.674  17.617  0.00  0.00    +0.000 F 
ATOM     16 BR   UNL     1       1.205   4.144  20.179  0.00  0.00    +0.000 Br
BRANCH  13  17
ATOM     17  O   UNL     1       4.092   3.065  20.013  0.00  0.00    +0.000 OA
ATOM     18  H   UNL     1       4.564   3.755  20.511  0.00  0.00    +0.000 HD
ENDBRANCH  13  17
BRANCH  12  19
ATOM     19  C   UNL     1       4.823   4.210  16.570  0.00  0.00    +0.000 C 
BRANCH  19  20
ATOM     20  O   UNL     1       5.854   3.315  16.164  0.00  0.00    +0.000 OA
ATOM     21  H   UNL     1       6.022   2.675  16.876  0.00  0.00    +0.000 HD
ENDBRANCH  19  20
ENDBRANCH  12  19
ENDBRANCH   9  10
BRANCH   1  22
ATOM     22  N   UNL     1       0.699  11.321  18.949  0.00  0.00    +0.000 N 
ATOM     23  H   UNL     1       0.961  12.092  19.546  0.00  0.00    +0.000 HD
ATOM     24  H   UNL     1      -0.183  11.375  18.452  0.00  0.00    +0.000 HD
ENDBRANCH   1  22
TORSDOF 5
ENDMDL
MODEL 6
REMARK VINA RESULT:      -6.6      3.251      5.699
REMARK  Name = 
REMARK  5 active torsions:
REMARK  status: ('A' for Active; 'I' for Inactive)
REMARK    1  A    between atoms: N_1  and  C_2
REMARK    2  A    between atoms: N_10  and  C_11
REMARK    3  A    between atoms: C_13  and  C_14
REMARK    4  A    between atoms: C_14  and  O_15
REMARK    5  A    between atoms: C_16  and  O_17
REMARK                            x       y       z     vdW  Elec       q    Type
REMARK                         _______ _______ _______ _____ _____    ______ ____
ROOT
ATOM      1  C   UNL     1       1.584   3.171  19.552  0.00  0.00    +0.000 A 
ATOM      2  N   UNL     1       1.626   2.207  18.607  0.00  0.00    +0.000 NA
ATOM      3  C   UNL     1       2.479   2.360  17.572  0.00  0.00    +0.000 A 
ATOM      4  N   UNL     1       3.336   3.375  17.331  0.00  0.00    +0.000 NA
ATOM      5  C   UNL     1       3.230   4.322  18.280  0.00  0.00    +0.000 A 
ATOM      6  C   UNL     1       2.393   4.313  19.381  0.00  0.00    +0.000 A 
ATOM      7  N   UNL     1       2.547   5.465  20.122  0.00  0.00    +0.000 NA
ATOM      8  C   UNL     1       3.487   6.143  19.497  0.00  0.00    +0.000 A 
ATOM      9  N   UNL     1       3.949   5.485  18.389  0.00  0.00    +0.000 N 
ENDROOT
BRANCH   9  10
ATOM     10  C   UNL     1       5.072   5.847  17.554  0.00  0.00    +0.000 C 
ATOM     11  O   UNL     1       4.741   5.590  16.162  0.00  0.00    +0.000 OA
ATOM     12  C   UNL     1       5.925   5.102  15.488  0.00  0.00    +0.000 C 
ATOM     13  C   UNL     1       7.085   5.224  16.478  0.00  0.00    +0.000 C 
ATOM     14  C   UNL     1       6.379   5.118  17.827  0.00  0.00    +0.000 C 
ATOM     15  F   UNL     1       6.152   3.803  18.090  0.00  0.00    +0.000 F 
ATOM     16 BR   UNL     1       7.414   5.892  19.267  0.00  0.00    +0.000 Br
BRANCH  13  17
ATOM     17  O   UNL     1       7.762   6.471  16.255  0.00  0.00    +0.000 OA
ATOM     18  H   UNL     1       7.626   6.780  15.342  0.00  0.00    +0.000 HD
ENDBRANCH  13  17
BRANCH  12  19
ATOM     19  C   UNL     1       5.704   3.664  14.998  0.00  0.00    +0.000 C 
BRANCH  19  20
ATOM     20  O   UNL     1       6.303   3.442  13.724  0.00  0.00    +0.000 OA
ATOM     21  H   UNL     1       5.681   3.710  13.026  0.00  0.00    +0.000 HD
ENDBRANCH  19  20
ENDBRANCH  12  19
ENDBRANCH   9  10
BRANCH   1  22
ATOM     22  N   UNL     1       0.750   2.990  20.646  0.00  0.00    +0.000 N 
ATOM     23  H   UNL     1       1.249   2.963  21.523  0.00  0.00    +0.000 HD
ATOM     24  H   UNL     1       0.009   2.315  20.493  0.00  0.00    +0.000 HD
ENDBRANCH   1  22
TORSDOF 5
ENDMDL
MODEL 7
REMARK VINA RESULT:      -6.5      3.070      5.504
REMARK  Name = 
REMARK  5 active torsions:
REMARK  status: ('A' for Active; 'I' for Inactive)
REMARK    1  A    between atoms: N_1  and  C_2
REMARK    2  A    between atoms: N_10  and  C_11
REMARK    3  A    between atoms: C_13  and  C_14
REMARK    4  A    between atoms: C_14  and  O_15
REMARK    5  A    between atoms: C_16  and  O_17
REMARK                            x       y       z     vdW  Elec       q    Type
REMARK                         _______ _______ _______ _____ _____    ______ ____
ROOT
ATOM      1  C   UNL     1       2.424   2.515  21.351  0.00  0.00    +0.000 A 
ATOM      2  N   UNL     1       3.652   1.975  21.511  0.00  0.00    +0.000 NA
ATOM      3  C   UNL     1       4.602   2.258  20.596  0.00  0.00    +0.000 A 
ATOM      4  N   UNL     1       4.505   3.036  19.496  0.00  0.00    +0.000 NA
ATOM      5  C   UNL     1       3.258   3.519  19.363  0.00  0.00    +0.000 A 
ATOM      6  C   UNL     1       2.183   3.301  20.206  0.00  0.00    +0.000 A 
ATOM      7  N   UNL     1       1.057   3.943  19.737  0.00  0.00    +0.000 NA
ATOM      8  C   UNL     1       1.454   4.567  18.647  0.00  0.00    +0.000 A 
ATOM      9  N   UNL     1       2.782   4.360  18.390  0.00  0.00    +0.000 N 
ENDROOT
BRANCH   9  10
ATOM     10  C   UNL     1       3.594   5.002  17.381  0.00  0.00    +0.000 C 
ATOM     11  O   UNL     1       4.677   4.111  16.994  0.00  0.00    +0.000 OA
ATOM     12  C   UNL     1       5.863   4.905  16.752  0.00  0.00    +0.000 C 
ATOM     13  C   UNL     1       5.442   6.374  16.832  0.00  0.00    +0.000 C 
ATOM     14  C   UNL     1       4.241   6.321  17.772  0.00  0.00    +0.000 C 
ATOM     15  F   UNL     1       4.700   6.273  19.052  0.00  0.00    +0.000 F 
ATOM     16 BR   UNL     1       3.073   7.850  17.566  0.00  0.00    +0.000 Br
BRANCH  13  17
ATOM     17  O   UNL     1       5.144   6.847  15.508  0.00  0.00    +0.000 OA
ATOM     18  H   UNL     1       5.721   7.594  15.270  0.00  0.00    +0.000 HD
ENDBRANCH  13  17
BRANCH  12  19
ATOM     19  C   UNL     1       6.962   4.541  17.760  0.00  0.00    +0.000 C 
BRANCH  19  20
ATOM     20  O   UNL     1       8.152   4.102  17.110  0.00  0.00    +0.000 OA
ATOM     21  H   UNL     1       8.809   3.850  17.781  0.00  0.00    +0.000 HD
ENDBRANCH  19  20
ENDBRANCH  12  19
ENDBRANCH   9  10
BRANCH   1  22
ATOM     22  N   UNL     1       1.462   2.272  22.321  0.00  0.00    +0.000 N 
ATOM     23  H   UNL     1       1.122   3.115  22.760  0.00  0.00    +0.000 HD
ATOM     24  H   UNL     1       1.660   1.469  22.907  0.00  0.00    +0.000 HD
ENDBRANCH   1  22
TORSDOF 5
ENDMDL
MODEL 8
REMARK VINA RESULT:      -6.4      3.676      5.353
REMARK  Name = 
REMARK  5 active torsions:
REMARK  status: ('A' for Active; 'I' for Inactive)
REMARK    1  A    between atoms: N_1  and  C_2
REMARK    2  A    between atoms: N_10  and  C_11
REMARK    3  A    between atoms: C_13  and  C_14
REMARK    4  A    between atoms: C_14  and  O_15
REMARK    5  A    between atoms: C_16  and  O_17
REMARK                            x       y       z     vdW  Elec       q    Type
REMARK                         _______ _______ _______ _____ _____    ______ ____
ROOT
ATOM      1  C   UNL     1       0.984   9.570  19.928  0.00  0.00    +0.000 A 
ATOM      2  N   UNL     1       1.261  10.309  18.832  0.00  0.00    +0.000 NA
ATOM      3  C   UNL     1       1.965   9.738  17.833  0.00  0.00    +0.000 A 
ATOM      4  N   UNL     1       2.454   8.481  17.762  0.00  0.00    +0.000 NA
ATOM      5  C   UNL     1       2.183   7.800  18.889  0.00  0.00    +0.000 A 
ATOM      6  C   UNL     1       1.492   8.257  19.996  0.00  0.00    +0.000 A 
ATOM      7  N   UNL     1       1.428   7.282  20.969  0.00  0.00    +0.000 NA
ATOM      8  C   UNL     1       2.040   6.241  20.443  0.00  0.00    +0.000 A 
ATOM      9  N   UNL     1       2.496   6.496  19.177  0.00  0.00    +0.000 N 
ENDROOT
BRANCH   9  10
ATOM     10  C   UNL     1       3.071   5.555  18.243  0.00  0.00    +0.000 C 
ATOM     11  O   UNL     1       2.498   4.237  18.472  0.00  0.00    +0.000 OA
ATOM     12  C   UNL     1       3.532   3.244  18.272  0.00  0.00    +0.000 C 
ATOM     13  C   UNL     1       4.760   3.979  17.730  0.00  0.00    +0.000 C 
ATOM     14  C   UNL     1       4.581   5.384  18.300  0.00  0.00    +0.000 C 
ATOM     15  F   UNL     1       5.018   5.382  19.589  0.00  0.00    +0.000 F 
ATOM     16 BR   UNL     1       5.553   6.720  17.294  0.00  0.00    +0.000 Br
BRANCH  13  17
ATOM     17  O   UNL     1       4.750   3.912  16.294  0.00  0.00    +0.000 OA
ATOM     18  H   UNL     1       3.846   4.022  15.949  0.00  0.00    +0.000 HD
ENDBRANCH  13  17
BRANCH  12  19
ATOM     19  C   UNL     1       3.811   2.496  19.582  0.00  0.00    +0.000 C 
BRANCH  19  20
ATOM     20  O   UNL     1       5.199   2.218  19.748  0.00  0.00    +0.000 OA
ATOM     21  H   UNL     1       5.306   1.477  20.366  0.00  0.00    +0.000 HD
ENDBRANCH  19  20
ENDBRANCH  12  19
ENDBRANCH   9  10
BRANCH   1  22
ATOM     22  N   UNL     1       0.211  10.137  20.931  0.00  0.00    +0.000 N 
ATOM     23  H   UNL     1      -0.052   9.477  21.648  0.00  0.00    +0.000 HD
ATOM     24  H   UNL     1      -0.489  10.788  20.595  0.00  0.00    +0.000 HD
ENDBRANCH   1  22
TORSDOF 5
ENDMDL
MODEL 9
REMARK VINA RESULT:      -6.4      1.304      1.401
REMARK  Name = 
REMARK  5 active torsions:
REMARK  status: ('A' for Active; 'I' for Inactive)
REMARK    1  A    between atoms: N_1  and  C_2
REMARK    2  A    between atoms: N_10  and  C_11
REMARK    3  A    between atoms: C_13  and  C_14
REMARK    4  A    between atoms: C_14  and  O_15
REMARK    5  A    between atoms: C_16  and  O_17
REMARK                            x       y       z     vdW  Elec       q    Type
REMARK                         _______ _______ _______ _____ _____    ______ ____
ROOT
ATOM      1  C   UNL     1       7.038   5.215  15.876  0.00  0.00    +0.000 A 
ATOM      2  N   UNL     1       7.654   6.377  16.183  0.00  0.00    +0.000 NA
ATOM      3  C   UNL     1       7.114   7.157  17.142  0.00  0.00    +0.000 A 
ATOM      4  N   UNL     1       6.000   6.939  17.874  0.00  0.00    +0.000 NA
ATOM      5  C   UNL     1       5.406   5.790  17.506  0.00  0.00    +0.000 A 
ATOM      6  C   UNL     1       5.832   4.903  16.534  0.00  0.00    +0.000 A 
ATOM      7  N   UNL     1       4.956   3.844  16.421  0.00  0.00    +0.000 NA
ATOM      8  C   UNL     1       4.035   4.071  17.336  0.00  0.00    +0.000 A 
ATOM      9  N   UNL     1       4.275   5.223  18.034  0.00  0.00    +0.000 N 
ENDROOT
BRANCH   9  10
ATOM     10  C   UNL     1       3.572   5.707  19.202  0.00  0.00    +0.000 C 
ATOM     11  O   UNL     1       3.361   4.605  20.127  0.00  0.00    +0.000 OA
ATOM     12  C   UNL     1       2.065   4.768  20.750  0.00  0.00    +0.000 C 
ATOM     13  C   UNL     1       1.524   6.130  20.308  0.00  0.00    +0.000 C 
ATOM     14  C   UNL     1       2.208   6.333  18.959  0.00  0.00    +0.000 C 
ATOM     15  F   UNL     1       1.517   5.634  18.019  0.00  0.00    +0.000 F 
ATOM     16 BR   UNL     1       2.289   8.196  18.444  0.00  0.00    +0.000 Br
BRANCH  13  17
ATOM     17  O   UNL     1       1.861   7.112  21.302  0.00  0.00    +0.000 OA
ATOM     18  H   UNL     1       1.371   6.951  22.127  0.00  0.00    +0.000 HD
ENDBRANCH  13  17
BRANCH  12  19
ATOM     19  C   UNL     1       1.140   3.604  20.369  0.00  0.00    +0.000 C 
BRANCH  19  20
ATOM     20  O   UNL     1       0.949   2.702  21.455  0.00  0.00    +0.000 OA
ATOM     21  H   UNL     1       0.186   2.130  21.266  0.00  0.00    +0.000 HD
ENDBRANCH  19  20
ENDBRANCH  12  19
ENDBRANCH   9  10
BRANCH   1  22
ATOM     22  N   UNL     1       7.624   4.385  14.930  0.00  0.00    +0.000 N 
ATOM     23  H   UNL     1       7.761   3.442  15.264  0.00  0.00    +0.000 HD
ATOM     24  H   UNL     1       8.370   4.822  14.402  0.00  0.00    +0.000 HD
ENDBRANCH   1  22
TORSDOF 5
ENDMDL
