MODEL 1
REMARK VINA RESULT:      -6.6      0.000      0.000
REMARK  Name = 
REMARK  3 active torsions:
REMARK  status: ('A' for Active; 'I' for Inactive)
REMARK    1  A    between atoms: C_6  and  N_7
REMARK    2  A    between atoms: N_7  and  C_8
REMARK    3  A    between atoms: C_8  and  C_9
REMARK                            x       y       z     vdW  Elec       q    Type
REMARK                         _______ _______ _______ _____ _____    ______ ____
ROOT
ATOM      1  N   UNL     1       5.452   3.576  19.194  0.00  0.00    +0.000 N 
ATOM      2  H   UNL     1       6.269   3.751  19.766  0.00  0.00    +0.000 HD
ENDROOT
BRANCH   1   8
ATOM      3 CL   UNL     1       5.981   4.057  14.387  0.00  0.00    +0.000 Cl
ATOM      4  C   UNL     1       5.523   4.765  15.882  0.00  0.00    +0.000 A 
ATOM      5  C   UNL     1       5.102   6.082  15.935  0.00  0.00    +0.000 A 
ATOM      6  C   UNL     1       4.762   6.588  17.180  0.00  0.00    +0.000 A 
ATOM      7  C   UNL     1       4.869   5.760  18.300  0.00  0.00    +0.000 A 
ATOM      8  C   UNL     1       5.303   4.445  18.153  0.00  0.00    +0.000 A 
ATOM      9  N   UNL     1       5.624   3.944  16.948  0.00  0.00    +0.000 NA
ENDBRANCH   1   8
BRANCH   1  10
ATOM     10  C   UNL     1       4.628   2.428  19.491  0.00  0.00    +0.000 C 
BRANCH  10  11
ATOM     11  C   UNL     1       3.156   2.748  19.631  0.00  0.00    +0.000 A 
ATOM     12  C   UNL     1       2.632   3.553  20.654  0.00  0.00    +0.000 A 
ATOM     13  C   UNL     1       1.260   3.802  20.736  0.00  0.00    +0.000 A 
ATOM     14  C   UNL     1       0.393   3.256  19.793  0.00  0.00    +0.000 A 
ATOM     15  C   UNL     1       0.896   2.467  18.763  0.00  0.00    +0.000 A 
ATOM     16  C   UNL     1       2.267   2.214  18.682  0.00  0.00    +0.000 A 
ENDBRANCH  10  11
ENDBRANCH   1  10
TORSDOF 3
ENDMDL
MODEL 2
REMARK VINA RESULT:      -6.6      0.360      1.288
REMARK  Name = 
REMARK  3 active torsions:
REMARK  status: ('A' for Active; 'I' for Inactive)
REMARK    1  A    between atoms: C_6  and  N_7
REMARK    2  A    between atoms: N_7  and  C_8
REMARK    3  A    between atoms: C_8  and  C_9
REMARK                            x       y       z     vdW  Elec       q    Type
REMARK                         _______ _______ _______ _____ _____    ______ ____
ROOT
ATOM      1  N   UNL     1       5.444   3.297  19.329  0.00  0.00    +0.000 N 
ATOM      2  H   UNL     1       6.344   3.374  19.787  0.00  0.00    +0.000 HD
ENDROOT
BRANCH   1   8
ATOM      3 CL   UNL     1       5.555   4.260  14.567  0.00  0.00    +0.000 Cl
ATOM      4  C   UNL     1       5.230   4.812  16.160  0.00  0.00    +0.000 A 
ATOM      5  C   UNL     1       4.819   6.114  16.381  0.00  0.00    +0.000 A 
ATOM      6  C   UNL     1       4.590   6.491  17.696  0.00  0.00    +0.000 A 
ATOM      7  C   UNL     1       4.792   5.556  18.713  0.00  0.00    +0.000 A 
ATOM      8  C   UNL     1       5.207   4.265  18.398  0.00  0.00    +0.000 A 
ATOM      9  N   UNL     1       5.421   3.889  17.125  0.00  0.00    +0.000 NA
ENDBRANCH   1   8
BRANCH   1  10
ATOM     10  C   UNL     1       4.595   2.173  19.648  0.00  0.00    +0.000 C 
BRANCH  10  11
ATOM     11  C   UNL     1       3.120   2.508  19.687  0.00  0.00    +0.000 A 
ATOM     12  C   UNL     1       2.224   2.183  18.657  0.00  0.00    +0.000 A 
ATOM     13  C   UNL     1       0.875   2.532  18.747  0.00  0.00    +0.000 A 
ATOM     14  C   UNL     1       0.400   3.203  19.870  0.00  0.00    +0.000 A 
ATOM     15  C   UNL     1       1.271   3.523  20.907  0.00  0.00    +0.000 A 
ATOM     16  C   UNL     1       2.621   3.178  20.817  0.00  0.00    +0.000 A 
ENDBRANCH  10  11
ENDBRANCH   1  10
TORSDOF 3
ENDMDL
MODEL 3
REMARK VINA RESULT:      -6.6      1.661      2.459
REMARK  Name = 
REMARK  3 active torsions:
REMARK  status: ('A' for Active; 'I' for Inactive)
REMARK    1  A    between atoms: C_6  and  N_7
REMARK    2  A    between atoms: N_7  and  C_8
REMARK    3  A    between atoms: C_8  and  C_9
REMARK                            x       y       z     vdW  Elec       q    Type
REMARK                         _______ _______ _______ _____ _____    ______ ____
ROOT
ATOM      1  N   UNL     1       4.143   6.298  18.461  0.00  0.00    +0.000 N 
ATOM      2  H   UNL     1       4.410   6.833  19.279  0.00  0.00    +0.000 HD
ENDROOT
BRANCH   1   8
ATOM      3 CL   UNL     1       5.524   4.293  14.256  0.00  0.00    +0.000 Cl
ATOM      4  C   UNL     1       5.931   4.735  15.863  0.00  0.00    +0.000 A 
ATOM      5  C   UNL     1       7.184   4.448  16.375  0.00  0.00    +0.000 A 
ATOM      6  C   UNL     1       7.434   4.824  17.686  0.00  0.00    +0.000 A 
ATOM      7  C   UNL     1       6.422   5.454  18.415  0.00  0.00    +0.000 A 
ATOM      8  C   UNL     1       5.189   5.704  17.819  0.00  0.00    +0.000 A 
ATOM      9  N   UNL     1       4.943   5.352  16.544  0.00  0.00    +0.000 NA
ENDBRANCH   1   8
BRANCH   1  10
ATOM     10  C   UNL     1       2.741   6.171  18.139  0.00  0.00    +0.000 C 
BRANCH  10  11
ATOM     11  C   UNL     1       2.082   4.947  18.736  0.00  0.00    +0.000 A 
ATOM     12  C   UNL     1       1.683   3.836  17.978  0.00  0.00    +0.000 A 
ATOM     13  C   UNL     1       1.067   2.739  18.586  0.00  0.00    +0.000 A 
ATOM     14  C   UNL     1       0.850   2.734  19.961  0.00  0.00    +0.000 A 
ATOM     15  C   UNL     1       1.251   3.821  20.731  0.00  0.00    +0.000 A 
ATOM     16  C   UNL     1       1.863   4.920  20.124  0.00  0.00    +0.000 A 
ENDBRANCH  10  11
ENDBRANCH   1  10
TORSDOF 3
ENDMDL
MODEL 4
REMARK VINA RESULT:      -6.6      1.669      2.147
REMARK  Name = 
REMARK  3 active torsions:
REMARK  status: ('A' for Active; 'I' for Inactive)
REMARK    1  A    between atoms: C_6  and  N_7
REMARK    2  A    between atoms: N_7  and  C_8
REMARK    3  A    between atoms: C_8  and  C_9
REMARK                            x       y       z     vdW  Elec       q    Type
REMARK                         _______ _______ _______ _____ _____    ______ ____
ROOT
ATOM      1  N   UNL     1       4.165   6.340  18.417  0.00  0.00    +0.000 N 
ATOM      2  H   UNL     1       4.439   6.903  19.213  0.00  0.00    +0.000 HD
ENDROOT
BRANCH   1   8
ATOM      3 CL   UNL     1       5.543   4.277  14.238  0.00  0.00    +0.000 Cl
ATOM      4  C   UNL     1       5.945   4.725  15.845  0.00  0.00    +0.000 A 
ATOM      5  C   UNL     1       7.188   4.419  16.370  0.00  0.00    +0.000 A 
ATOM      6  C   UNL     1       7.435   4.800  17.680  0.00  0.00    +0.000 A 
ATOM      7  C   UNL     1       6.429   5.454  18.395  0.00  0.00    +0.000 A 
ATOM      8  C   UNL     1       5.205   5.722  17.787  0.00  0.00    +0.000 A 
ATOM      9  N   UNL     1       4.963   5.365  16.513  0.00  0.00    +0.000 NA
ENDBRANCH   1   8
BRANCH   1  10
ATOM     10  C   UNL     1       2.761   6.204  18.111  0.00  0.00    +0.000 C 
BRANCH  10  11
ATOM     11  C   UNL     1       2.098   5.020  18.781  0.00  0.00    +0.000 A 
ATOM     12  C   UNL     1       1.842   4.953  20.159  0.00  0.00    +0.000 A 
ATOM     13  C   UNL     1       1.237   3.826  20.720  0.00  0.00    +0.000 A 
ATOM     14  C   UNL     1       0.873   2.753  19.910  0.00  0.00    +0.000 A 
ATOM     15  C   UNL     1       1.107   2.806  18.540  0.00  0.00    +0.000 A 
ATOM     16  C   UNL     1       1.715   3.931  17.979  0.00  0.00    +0.000 A 
ENDBRANCH  10  11
ENDBRANCH   1  10
TORSDOF 3
ENDMDL
MODEL 5
REMARK VINA RESULT:      -6.6      2.580      5.569
REMARK  Name = 
REMARK  3 active torsions:
REMARK  status: ('A' for Active; 'I' for Inactive)
REMARK    1  A    between atoms: C_6  and  N_7
REMARK    2  A    between atoms: N_7  and  C_8
REMARK    3  A    between atoms: C_8  and  C_9
REMARK                            x       y       z     vdW  Elec       q    Type
REMARK                         _______ _______ _______ _____ _____    ______ ____
ROOT
ATOM      1  N   UNL     1       5.453   3.555  19.360  0.00  0.00    +0.000 N 
ATOM      2  H   UNL     1       6.059   2.930  19.878  0.00  0.00    +0.000 HD
ENDROOT
BRANCH   1   8
ATOM      3 CL   UNL     1       1.247   2.669  21.626  0.00  0.00    +0.000 Cl
ATOM      4  C   UNL     1       2.156   2.627  20.171  0.00  0.00    +0.000 A 
ATOM      5  C   UNL     1       1.601   2.119  19.010  0.00  0.00    +0.000 A 
ATOM      6  C   UNL     1       2.402   2.105  17.879  0.00  0.00    +0.000 A 
ATOM      7  C   UNL     1       3.710   2.587  17.969  0.00  0.00    +0.000 A 
ATOM      8  C   UNL     1       4.187   3.081  19.180  0.00  0.00    +0.000 A 
ATOM      9  N   UNL     1       3.412   3.108  20.279  0.00  0.00    +0.000 NA
ENDBRANCH   1   8
BRANCH   1  10
ATOM     10  C   UNL     1       5.962   4.847  18.963  0.00  0.00    +0.000 C 
BRANCH  10  11
ATOM     11  C   UNL     1       6.057   5.036  17.465  0.00  0.00    +0.000 A 
ATOM     12  C   UNL     1       6.990   4.368  16.658  0.00  0.00    +0.000 A 
ATOM     13  C   UNL     1       7.037   4.595  15.280  0.00  0.00    +0.000 A 
ATOM     14  C   UNL     1       6.146   5.486  14.689  0.00  0.00    +0.000 A 
ATOM     15  C   UNL     1       5.205   6.148  15.471  0.00  0.00    +0.000 A 
ATOM     16  C   UNL     1       5.160   5.925  16.849  0.00  0.00    +0.000 A 
ENDBRANCH  10  11
ENDBRANCH   1  10
TORSDOF 3
ENDMDL
MODEL 6
REMARK VINA RESULT:      -6.6      1.878      2.344
REMARK  Name = 
REMARK  3 active torsions:
REMARK  status: ('A' for Active; 'I' for Inactive)
REMARK    1  A    between atoms: C_6  and  N_7
REMARK    2  A    between atoms: N_7  and  C_8
REMARK    3  A    between atoms: C_8  and  C_9
REMARK                            x       y       z     vdW  Elec       q    Type
REMARK                         _______ _______ _______ _____ _____    ______ ____
ROOT
ATOM      1  N   UNL     1       4.787   2.957  17.604  0.00  0.00    +0.000 N 
ATOM      2  H   UNL     1       5.500   2.241  17.660  0.00  0.00    +0.000 HD
ENDROOT
BRANCH   1   8
ATOM      3 CL   UNL     1       8.128   6.076  19.256  0.00  0.00    +0.000 Cl
ATOM      4  C   UNL     1       6.827   5.767  18.179  0.00  0.00    +0.000 A 
ATOM      5  C   UNL     1       6.371   6.756  17.326  0.00  0.00    +0.000 A 
ATOM      6  C   UNL     1       5.308   6.436  16.495  0.00  0.00    +0.000 A 
ATOM      7  C   UNL     1       4.754   5.156  16.568  0.00  0.00    +0.000 A 
ATOM      8  C   UNL     1       5.277   4.222  17.457  0.00  0.00    +0.000 A 
ATOM      9  N   UNL     1       6.315   4.521  18.258  0.00  0.00    +0.000 NA
ENDBRANCH   1   8
BRANCH   1  10
ATOM     10  C   UNL     1       3.399   2.559  17.604  0.00  0.00    +0.000 C 
BRANCH  10  11
ATOM     11  C   UNL     1       2.679   2.839  18.905  0.00  0.00    +0.000 A 
ATOM     12  C   UNL     1       1.418   3.448  18.977  0.00  0.00    +0.000 A 
ATOM     13  C   UNL     1       0.810   3.692  20.211  0.00  0.00    +0.000 A 
ATOM     14  C   UNL     1       1.452   3.322  21.390  0.00  0.00    +0.000 A 
ATOM     15  C   UNL     1       2.698   2.705  21.339  0.00  0.00    +0.000 A 
ATOM     16  C   UNL     1       3.308   2.465  20.105  0.00  0.00    +0.000 A 
ENDBRANCH  10  11
ENDBRANCH   1  10
TORSDOF 3
ENDMDL
MODEL 7
REMARK VINA RESULT:      -6.6      2.879      5.675
REMARK  Name = 
REMARK  3 active torsions:
REMARK  status: ('A' for Active; 'I' for Inactive)
REMARK    1  A    between atoms: C_6  and  N_7
REMARK    2  A    between atoms: N_7  and  C_8
REMARK    3  A    between atoms: C_8  and  C_9
REMARK                            x       y       z     vdW  Elec       q    Type
REMARK                         _______ _______ _______ _____ _____    ______ ____
ROOT
ATOM      1  N   UNL     1       4.935   3.293  17.577  0.00  0.00    +0.000 N 
ATOM      2  H   UNL     1       5.477   2.512  17.927  0.00  0.00    +0.000 HD
ENDROOT
BRANCH   1   8
ATOM      3 CL   UNL     1       2.428   2.667  21.693  0.00  0.00    +0.000 Cl
ATOM      4  C   UNL     1       2.427   3.140  20.043  0.00  0.00    +0.000 A 
ATOM      5  C   UNL     1       1.255   3.538  19.426  0.00  0.00    +0.000 A 
ATOM      6  C   UNL     1       1.331   3.892  18.088  0.00  0.00    +0.000 A 
ATOM      7  C   UNL     1       2.566   3.819  17.438  0.00  0.00    +0.000 A 
ATOM      8  C   UNL     1       3.696   3.407  18.137  0.00  0.00    +0.000 A 
ATOM      9  N   UNL     1       3.632   3.073  19.438  0.00  0.00    +0.000 NA
ENDBRANCH   1   8
BRANCH   1  10
ATOM     10  C   UNL     1       5.545   4.194  16.628  0.00  0.00    +0.000 C 
BRANCH  10  11
ATOM     11  C   UNL     1       6.417   5.255  17.264  0.00  0.00    +0.000 A 
ATOM     12  C   UNL     1       6.543   6.558  16.759  0.00  0.00    +0.000 A 
ATOM     13  C   UNL     1       7.375   7.490  17.384  0.00  0.00    +0.000 A 
ATOM     14  C   UNL     1       8.086   7.135  18.527  0.00  0.00    +0.000 A 
ATOM     15  C   UNL     1       7.965   5.852  19.050  0.00  0.00    +0.000 A 
ATOM     16  C   UNL     1       7.136   4.918  18.423  0.00  0.00    +0.000 A 
ENDBRANCH  10  11
ENDBRANCH   1  10
TORSDOF 3
ENDMDL
MODEL 8
REMARK VINA RESULT:      -6.5      1.566      2.130
REMARK  Name = 
REMARK  3 active torsions:
REMARK  status: ('A' for Active; 'I' for Inactive)
REMARK    1  A    between atoms: C_6  and  N_7
REMARK    2  A    between atoms: N_7  and  C_8
REMARK    3  A    between atoms: C_8  and  C_9
REMARK                            x       y       z     vdW  Elec       q    Type
REMARK                         _______ _______ _______ _____ _____    ______ ____
ROOT
ATOM      1  N   UNL     1       5.415   3.436  19.339  0.00  0.00    +0.000 N 
ATOM      2  H   UNL     1       5.995   3.700  20.126  0.00  0.00    +0.000 HD
ENDROOT
BRANCH   1   8
ATOM      3 CL   UNL     1       7.651   7.414  17.668  0.00  0.00    +0.000 Cl
ATOM      4  C   UNL     1       6.593   6.098  17.360  0.00  0.00    +0.000 A 
ATOM      5  C   UNL     1       5.989   5.956  16.124  0.00  0.00    +0.000 A 
ATOM      6  C   UNL     1       5.136   4.876  15.955  0.00  0.00    +0.000 A 
ATOM      7  C   UNL     1       4.926   4.006  17.027  0.00  0.00    +0.000 A 
ATOM      8  C   UNL     1       5.576   4.225  18.238  0.00  0.00    +0.000 A 
ATOM      9  N   UNL     1       6.413   5.264  18.406  0.00  0.00    +0.000 NA
ENDBRANCH   1   8
BRANCH   1  10
ATOM     10  C   UNL     1       4.588   2.258  19.449  0.00  0.00    +0.000 C 
BRANCH  10  11
ATOM     11  C   UNL     1       3.112   2.556  19.604  0.00  0.00    +0.000 A 
ATOM     12  C   UNL     1       2.144   2.186  18.658  0.00  0.00    +0.000 A 
ATOM     13  C   UNL     1       0.797   2.502  18.853  0.00  0.00    +0.000 A 
ATOM     14  C   UNL     1       0.398   3.184  19.999  0.00  0.00    +0.000 A 
ATOM     15  C   UNL     1       1.342   3.548  20.954  0.00  0.00    +0.000 A 
ATOM     16  C   UNL     1       2.689   3.236  20.759  0.00  0.00    +0.000 A 
ENDBRANCH  10  11
ENDBRANCH   1  10
TORSDOF 3
ENDMDL
MODEL 9
REMARK VINA RESULT:      -6.5      2.178      2.737
REMARK  Name = 
REMARK  3 active torsions:
REMARK  status: ('A' for Active; 'I' for Inactive)
REMARK    1  A    between atoms: C_6  and  N_7
REMARK    2  A    between atoms: N_7  and  C_8
REMARK    3  A    between atoms: C_8  and  C_9
REMARK                            x       y       z     vdW  Elec       q    Type
REMARK                         _______ _______ _______ _____ _____    ______ ____
ROOT
ATOM      1  N   UNL     1       3.428   5.604  17.399  0.00  0.00    +0.000 N 
ATOM      2  H   UNL     1       2.870   5.623  16.554  0.00  0.00    +0.000 HD
ENDROOT
BRANCH   1   8
ATOM      3 CL   UNL     1       7.883   5.784  19.334  0.00  0.00    +0.000 Cl
ATOM      4  C   UNL     1       6.874   5.277  18.041  0.00  0.00    +0.000 A 
ATOM      5  C   UNL     1       7.408   4.616  16.950  0.00  0.00    +0.000 A 
ATOM      6  C   UNL     1       6.533   4.251  15.939  0.00  0.00    +0.000 A 
ATOM      7  C   UNL     1       5.179   4.571  16.067  0.00  0.00    +0.000 A 
ATOM      8  C   UNL     1       4.727   5.239  17.202  0.00  0.00    +0.000 A 
ATOM      9  N   UNL     1       5.569   5.587  18.192  0.00  0.00    +0.000 NA
ENDBRANCH   1   8
BRANCH   1  10
ATOM     10  C   UNL     1       2.824   6.026  18.641  0.00  0.00    +0.000 C 
BRANCH  10  11
ATOM     11  C   UNL     1       2.274   4.890  19.474  0.00  0.00    +0.000 A 
ATOM     12  C   UNL     1       2.579   4.706  20.831  0.00  0.00    +0.000 A 
ATOM     13  C   UNL     1       2.048   3.628  21.544  0.00  0.00    +0.000 A 
ATOM     14  C   UNL     1       1.199   2.723  20.912  0.00  0.00    +0.000 A 
ATOM     15  C   UNL     1       0.875   2.896  19.571  0.00  0.00    +0.000 A 
ATOM     16  C   UNL     1       1.408   3.971  18.856  0.00  0.00    +0.000 A 
ENDBRANCH  10  11
ENDBRANCH   1  10
TORSDOF 3
ENDMDL
