MODEL 1
REMARK VINA RESULT:      -7.1      0.000      0.000
REMARK  Name = 
REMARK  9 active torsions:
REMARK  status: ('A' for Active; 'I' for Inactive)
REMARK    1  A    between atoms: C_1  and  C_2
REMARK    2  A    between atoms: C_5  and  N_6
REMARK    3  A    between atoms: C_7  and  C_9
REMARK    4  A    between atoms: C_9  and  C_10
REMARK    5  A    between atoms: C_10  and  C_11
REMARK    6  A    between atoms: C_11  and  O_13
REMARK    7  A    between atoms: O_13  and  C_14
REMARK    8  A    between atoms: C_14  and  C_15
REMARK    9  A    between atoms: C_15  and  C_18
REMARK                            x       y       z     vdW  Elec       q    Type
REMARK                         _______ _______ _______ _____ _____    ______ ____
ROOT
ATOM      1  C   UNL     1       3.675   1.677  18.699  0.00  0.00    +0.000 C 
ENDROOT
BRANCH   1   3
ATOM      2  N   UNL     1       4.802   3.641  17.818  0.00  0.00    +0.000 N 
ATOM      3  C   UNL     1       4.547   2.887  18.949  0.00  0.00    +0.000 C 
ATOM      4  O   UNL     1       4.920   3.136  20.094  0.00  0.00    +0.000 OA
ATOM      5  H   UNL     1       4.321   3.388  16.965  0.00  0.00    +0.000 HD
BRANCH   2  10
ATOM      6  C   UNL     1       8.117   8.321  17.633  0.00  0.00    +0.000 C 
ATOM      7  C   UNL     1       7.234   7.109  17.688  0.00  0.00    +0.000 A 
ATOM      8  C   UNL     1       5.986   7.112  17.070  0.00  0.00    +0.000 A 
ATOM      9  C   UNL     1       5.167   5.980  17.106  0.00  0.00    +0.000 A 
ATOM     10  C   UNL     1       5.581   4.818  17.764  0.00  0.00    +0.000 A 
ATOM     11  C   UNL     1       6.824   4.822  18.408  0.00  0.00    +0.000 A 
ATOM     12  C   UNL     1       7.650   5.955  18.363  0.00  0.00    +0.000 A 
ENDBRANCH   2  10
ENDBRANCH   1   3
BRANCH   1  13
ATOM     13  C   UNL     1       2.469   2.109  17.877  0.00  0.00    +0.000 C 
BRANCH  13  14
ATOM     14  C   UNL     1       1.245   2.280  18.731  0.00  0.00    +0.000 C 
ATOM     15  O   UNL     1       0.111   1.932  18.436  0.00  0.00    +0.000 OA
BRANCH  14  16
ATOM     16  O   UNL     1       1.577   2.976  19.855  0.00  0.00    +0.000 OA
BRANCH  16  17
ATOM     17  C   UNL     1       0.814   4.181  20.069  0.00  0.00    +0.000 C 
BRANCH  17  18
ATOM     18  C   UNL     1       1.748   5.295  20.541  0.00  0.00    +0.000 C 
ATOM     19  F   UNL     1       1.011   6.237  21.194  0.00  0.00    +0.000 F 
ATOM     20  F   UNL     1       2.631   4.808  21.456  0.00  0.00    +0.000 F 
BRANCH  18  21
ATOM     21  C   UNL     1       2.501   5.918  19.381  0.00  0.00    +0.000 C 
ATOM     22  F   UNL     1       1.947   5.558  18.194  0.00  0.00    +0.000 F 
ATOM     23  F   UNL     1       2.446   7.274  19.440  0.00  0.00    +0.000 F 
ENDBRANCH  18  21
ENDBRANCH  17  18
ENDBRANCH  16  17
ENDBRANCH  14  16
ENDBRANCH  13  14
ENDBRANCH   1  13
TORSDOF 8
ENDMDL
MODEL 2
REMARK VINA RESULT:      -7.0      4.283      6.900
REMARK  Name = 
REMARK  9 active torsions:
REMARK  status: ('A' for Active; 'I' for Inactive)
REMARK    1  A    between atoms: C_1  and  C_2
REMARK    2  A    between atoms: C_5  and  N_6
REMARK    3  A    between atoms: C_7  and  C_9
REMARK    4  A    between atoms: C_9  and  C_10
REMARK    5  A    between atoms: C_10  and  C_11
REMARK    6  A    between atoms: C_11  and  O_13
REMARK    7  A    between atoms: O_13  and  C_14
REMARK    8  A    between atoms: C_14  and  C_15
REMARK    9  A    between atoms: C_15  and  C_18
REMARK                            x       y       z     vdW  Elec       q    Type
REMARK                         _______ _______ _______ _____ _____    ______ ____
ROOT
ATOM      1  C   UNL     1       7.203   6.351  17.685  0.00  0.00    +0.000 C 
ENDROOT
BRANCH   1   3
ATOM      2  N   UNL     1       5.171   5.255  18.440  0.00  0.00    +0.000 N 
ATOM      3  C   UNL     1       6.456   5.630  18.784  0.00  0.00    +0.000 C 
ATOM      4  O   UNL     1       7.026   5.397  19.849  0.00  0.00    +0.000 OA
ATOM      5  H   UNL     1       4.879   5.398  17.482  0.00  0.00    +0.000 HD
BRANCH   2  10
ATOM      6  C   UNL     1       1.337   2.608  21.790  0.00  0.00    +0.000 C 
ATOM      7  C   UNL     1       2.355   3.291  20.925  0.00  0.00    +0.000 A 
ATOM      8  C   UNL     1       3.372   2.560  20.315  0.00  0.00    +0.000 A 
ATOM      9  C   UNL     1       4.313   3.191  19.497  0.00  0.00    +0.000 A 
ATOM     10  C   UNL     1       4.256   4.569  19.271  0.00  0.00    +0.000 A 
ATOM     11  C   UNL     1       3.250   5.308  19.903  0.00  0.00    +0.000 A 
ATOM     12  C   UNL     1       2.299   4.674  20.717  0.00  0.00    +0.000 A 
ENDBRANCH   2  10
ENDBRANCH   1   3
BRANCH   1  13
ATOM     13  C   UNL     1       7.071   5.547  16.400  0.00  0.00    +0.000 C 
BRANCH  13  14
ATOM     14  C   UNL     1       5.770   5.821  15.701  0.00  0.00    +0.000 C 
ATOM     15  O   UNL     1       5.197   6.900  15.651  0.00  0.00    +0.000 OA
BRANCH  14  16
ATOM     16  O   UNL     1       5.272   4.653  15.207  0.00  0.00    +0.000 OA
BRANCH  16  17
ATOM     17  C   UNL     1       6.257   3.769  14.634  0.00  0.00    +0.000 C 
BRANCH  17  18
ATOM     18  C   UNL     1       6.124   3.778  13.112  0.00  0.00    +0.000 C 
ATOM     19  F   UNL     1       6.504   2.561  12.631  0.00  0.00    +0.000 F 
ATOM     20  F   UNL     1       4.817   3.930  12.759  0.00  0.00    +0.000 F 
BRANCH  18  21
ATOM     21  C   UNL     1       6.956   4.882  12.487  0.00  0.00    +0.000 C 
ATOM     22  F   UNL     1       7.972   5.249  13.311  0.00  0.00    +0.000 F 
ATOM     23  F   UNL     1       7.528   4.460  11.329  0.00  0.00    +0.000 F 
ENDBRANCH  18  21
ENDBRANCH  17  18
ENDBRANCH  16  17
ENDBRANCH  14  16
ENDBRANCH  13  14
ENDBRANCH   1  13
TORSDOF 8
ENDMDL
MODEL 3
REMARK VINA RESULT:      -6.9      4.572      7.207
REMARK  Name = 
REMARK  9 active torsions:
REMARK  status: ('A' for Active; 'I' for Inactive)
REMARK    1  A    between atoms: C_1  and  C_2
REMARK    2  A    between atoms: C_5  and  N_6
REMARK    3  A    between atoms: C_7  and  C_9
REMARK    4  A    between atoms: C_9  and  C_10
REMARK    5  A    between atoms: C_10  and  C_11
REMARK    6  A    between atoms: C_11  and  O_13
REMARK    7  A    between atoms: O_13  and  C_14
REMARK    8  A    between atoms: C_14  and  C_15
REMARK    9  A    between atoms: C_15  and  C_18
REMARK                            x       y       z     vdW  Elec       q    Type
REMARK                         _______ _______ _______ _____ _____    ______ ____
ROOT
ATOM      1  C   UNL     1       6.826   6.419  17.497  0.00  0.00    +0.000 C 
ENDROOT
BRANCH   1   3
ATOM      2  N   UNL     1       4.837   5.329  18.365  0.00  0.00    +0.000 N 
ATOM      3  C   UNL     1       6.160   5.646  18.612  0.00  0.00    +0.000 C 
ATOM      4  O   UNL     1       6.816   5.328  19.602  0.00  0.00    +0.000 OA
ATOM      5  H   UNL     1       4.464   5.544  17.450  0.00  0.00    +0.000 HD
BRANCH   2  10
ATOM      6  C   UNL     1       1.241   2.571  21.885  0.00  0.00    +0.000 C 
ATOM      7  C   UNL     1       2.197   3.282  20.973  0.00  0.00    +0.000 A 
ATOM      8  C   UNL     1       3.103   2.563  20.196  0.00  0.00    +0.000 A 
ATOM      9  C   UNL     1       3.986   3.221  19.335  0.00  0.00    +0.000 A 
ATOM     10  C   UNL     1       3.979   4.614  19.232  0.00  0.00    +0.000 A 
ATOM     11  C   UNL     1       3.087   5.339  20.031  0.00  0.00    +0.000 A 
ATOM     12  C   UNL     1       2.195   4.679  20.888  0.00  0.00    +0.000 A 
ENDBRANCH   2  10
ENDBRANCH   1   3
BRANCH   1  13
ATOM     13  C   UNL     1       7.309   5.432  16.443  0.00  0.00    +0.000 C 
BRANCH  13  14
ATOM     14  C   UNL     1       6.392   5.394  15.253  0.00  0.00    +0.000 C 
ATOM     15  O   UNL     1       5.219   5.736  15.242  0.00  0.00    +0.000 OA
BRANCH  14  16
ATOM     16  O   UNL     1       7.047   4.824  14.202  0.00  0.00    +0.000 OA
BRANCH  16  17
ATOM     17  C   UNL     1       6.474   3.587  13.731  0.00  0.00    +0.000 C 
BRANCH  17  18
ATOM     18  C   UNL     1       6.547   3.543  12.205  0.00  0.00    +0.000 C 
ATOM     19  F   UNL     1       7.086   4.712  11.758  0.00  0.00    +0.000 F 
ATOM     20  F   UNL     1       7.400   2.559  11.807  0.00  0.00    +0.000 F 
BRANCH  18  21
ATOM     21  C   UNL     1       5.179   3.317  11.589  0.00  0.00    +0.000 C 
ATOM     22  F   UNL     1       4.947   1.992  11.395  0.00  0.00    +0.000 F 
ATOM     23  F   UNL     1       4.197   3.766  12.415  0.00  0.00    +0.000 F 
ENDBRANCH  18  21
ENDBRANCH  17  18
ENDBRANCH  16  17
ENDBRANCH  14  16
ENDBRANCH  13  14
ENDBRANCH   1  13
TORSDOF 8
ENDMDL
MODEL 4
REMARK VINA RESULT:      -6.9      2.960      4.855
REMARK  Name = 
REMARK  9 active torsions:
REMARK  status: ('A' for Active; 'I' for Inactive)
REMARK    1  A    between atoms: C_1  and  C_2
REMARK    2  A    between atoms: C_5  and  N_6
REMARK    3  A    between atoms: C_7  and  C_9
REMARK    4  A    between atoms: C_9  and  C_10
REMARK    5  A    between atoms: C_10  and  C_11
REMARK    6  A    between atoms: C_11  and  O_13
REMARK    7  A    between atoms: O_13  and  C_14
REMARK    8  A    between atoms: C_14  and  C_15
REMARK    9  A    between atoms: C_15  and  C_18
REMARK                            x       y       z     vdW  Elec       q    Type
REMARK                         _______ _______ _______ _____ _____    ______ ____
ROOT
ATOM      1  C   UNL     1       2.475   2.944  21.248  0.00  0.00    +0.000 C 
ENDROOT
BRANCH   1   3
ATOM      2  N   UNL     1       2.632   5.260  20.535  0.00  0.00    +0.000 N 
ATOM      3  C   UNL     1       1.826   4.138  20.587  0.00  0.00    +0.000 C 
ATOM      4  O   UNL     1       0.693   4.028  20.122  0.00  0.00    +0.000 OA
ATOM      5  H   UNL     1       3.591   5.166  20.841  0.00  0.00    +0.000 HD
BRANCH   2  10
ATOM      6  C   UNL     1       1.195  10.398  18.423  0.00  0.00    +0.000 C 
ATOM      7  C   UNL     1       1.562   9.046  18.959  0.00  0.00    +0.000 A 
ATOM      8  C   UNL     1       2.221   8.119  18.154  0.00  0.00    +0.000 A 
ATOM      9  C   UNL     1       2.577   6.864  18.654  0.00  0.00    +0.000 A 
ATOM     10  C   UNL     1       2.281   6.508  19.973  0.00  0.00    +0.000 A 
ATOM     11  C   UNL     1       1.595   7.428  20.775  0.00  0.00    +0.000 A 
ATOM     12  C   UNL     1       1.247   8.692  20.276  0.00  0.00    +0.000 A 
ENDBRANCH   2  10
ENDBRANCH   1   3
BRANCH   1  13
ATOM     13  C   UNL     1       3.784   2.643  20.532  0.00  0.00    +0.000 C 
BRANCH  13  14
ATOM     14  C   UNL     1       3.574   2.404  19.063  0.00  0.00    +0.000 C 
ATOM     15  O   UNL     1       3.176   1.366  18.556  0.00  0.00    +0.000 OA
BRANCH  14  16
ATOM     16  O   UNL     1       3.989   3.500  18.368  0.00  0.00    +0.000 OA
BRANCH  16  17
ATOM     17  C   UNL     1       5.282   4.010  18.757  0.00  0.00    +0.000 C 
BRANCH  17  18
ATOM     18  C   UNL     1       5.962   4.646  17.545  0.00  0.00    +0.000 C 
ATOM     19  F   UNL     1       5.924   6.001  17.682  0.00  0.00    +0.000 F 
ATOM     20  F   UNL     1       7.280   4.306  17.518  0.00  0.00    +0.000 F 
BRANCH  18  21
ATOM     21  C   UNL     1       5.297   4.222  16.248  0.00  0.00    +0.000 C 
ATOM     22  F   UNL     1       5.051   5.297  15.455  0.00  0.00    +0.000 F 
ATOM     23  F   UNL     1       6.106   3.392  15.539  0.00  0.00    +0.000 F 
ENDBRANCH  18  21
ENDBRANCH  17  18
ENDBRANCH  16  17
ENDBRANCH  14  16
ENDBRANCH  13  14
ENDBRANCH   1  13
TORSDOF 8
ENDMDL
MODEL 5
REMARK VINA RESULT:      -6.8      3.537      5.559
REMARK  Name = 
REMARK  9 active torsions:
REMARK  status: ('A' for Active; 'I' for Inactive)
REMARK    1  A    between atoms: C_1  and  C_2
REMARK    2  A    between atoms: C_5  and  N_6
REMARK    3  A    between atoms: C_7  and  C_9
REMARK    4  A    between atoms: C_9  and  C_10
REMARK    5  A    between atoms: C_10  and  C_11
REMARK    6  A    between atoms: C_11  and  O_13
REMARK    7  A    between atoms: O_13  and  C_14
REMARK    8  A    between atoms: C_14  and  C_15
REMARK    9  A    between atoms: C_15  and  C_18
REMARK                            x       y       z     vdW  Elec       q    Type
REMARK                         _______ _______ _______ _____ _____    ______ ____
ROOT
ATOM      1  C   UNL     1       3.275   3.687  20.326  0.00  0.00    +0.000 C 
ENDROOT
BRANCH   1   3
ATOM      2  N   UNL     1       2.910   6.040  19.847  0.00  0.00    +0.000 N 
ATOM      3  C   UNL     1       2.308   4.838  20.168  0.00  0.00    +0.000 C 
ATOM      4  O   UNL     1       1.101   4.633  20.287  0.00  0.00    +0.000 OA
ATOM      5  H   UNL     1       3.903   6.033  19.652  0.00  0.00    +0.000 HD
BRANCH   2  10
ATOM      6  C   UNL     1       0.210  10.999  18.826  0.00  0.00    +0.000 C 
ATOM      7  C   UNL     1       0.926   9.711  19.109  0.00  0.00    +0.000 A 
ATOM      8  C   UNL     1       0.912   9.159  20.388  0.00  0.00    +0.000 A 
ATOM      9  C   UNL     1       1.566   7.952  20.652  0.00  0.00    +0.000 A 
ATOM     10  C   UNL     1       2.247   7.271  19.640  0.00  0.00    +0.000 A 
ATOM     11  C   UNL     1       2.284   7.838  18.360  0.00  0.00    +0.000 A 
ATOM     12  C   UNL     1       1.619   9.044  18.093  0.00  0.00    +0.000 A 
ENDBRANCH   2  10
ENDBRANCH   1   3
BRANCH   1  13
ATOM     13  C   UNL     1       3.661   3.183  18.943  0.00  0.00    +0.000 C 
BRANCH  13  14
ATOM     14  C   UNL     1       4.602   4.125  18.248  0.00  0.00    +0.000 C 
ATOM     15  O   UNL     1       4.356   4.769  17.239  0.00  0.00    +0.000 OA
BRANCH  14  16
ATOM     16  O   UNL     1       5.816   4.082  18.865  0.00  0.00    +0.000 OA
BRANCH  16  17
ATOM     17  C   UNL     1       6.334   5.365  19.274  0.00  0.00    +0.000 C 
BRANCH  17  18
ATOM     18  C   UNL     1       7.565   5.706  18.434  0.00  0.00    +0.000 C 
ATOM     19  F   UNL     1       8.475   6.338  19.226  0.00  0.00    +0.000 F 
ATOM     20  F   UNL     1       8.168   4.563  18.005  0.00  0.00    +0.000 F 
BRANCH  18  21
ATOM     21  C   UNL     1       7.201   6.573  17.242  0.00  0.00    +0.000 C 
ATOM     22  F   UNL     1       8.037   7.638  17.144  0.00  0.00    +0.000 F 
ATOM     23  F   UNL     1       7.323   5.875  16.082  0.00  0.00    +0.000 F 
ENDBRANCH  18  21
ENDBRANCH  17  18
ENDBRANCH  16  17
ENDBRANCH  14  16
ENDBRANCH  13  14
ENDBRANCH   1  13
TORSDOF 8
ENDMDL
MODEL 6
REMARK VINA RESULT:      -6.8      3.183      5.059
REMARK  Name = 
REMARK  9 active torsions:
REMARK  status: ('A' for Active; 'I' for Inactive)
REMARK    1  A    between atoms: C_1  and  C_2
REMARK    2  A    between atoms: C_5  and  N_6
REMARK    3  A    between atoms: C_7  and  C_9
REMARK    4  A    between atoms: C_9  and  C_10
REMARK    5  A    between atoms: C_10  and  C_11
REMARK    6  A    between atoms: C_11  and  O_13
REMARK    7  A    between atoms: O_13  and  C_14
REMARK    8  A    between atoms: C_14  and  C_15
REMARK    9  A    between atoms: C_15  and  C_18
REMARK                            x       y       z     vdW  Elec       q    Type
REMARK                         _______ _______ _______ _____ _____    ______ ____
ROOT
ATOM      1  C   UNL     1       2.994   3.353  20.445  0.00  0.00    +0.000 C 
ENDROOT
BRANCH   1   3
ATOM      2  N   UNL     1       2.840   5.721  19.926  0.00  0.00    +0.000 N 
ATOM      3  C   UNL     1       2.128   4.571  20.212  0.00  0.00    +0.000 C 
ATOM      4  O   UNL     1       0.905   4.458  20.249  0.00  0.00    +0.000 OA
ATOM      5  H   UNL     1       3.840   5.638  19.801  0.00  0.00    +0.000 HD
BRANCH   2  10
ATOM      6  C   UNL     1       0.587  10.852  18.691  0.00  0.00    +0.000 C 
ATOM      7  C   UNL     1       1.187   9.519  19.030  0.00  0.00    +0.000 A 
ATOM      8  C   UNL     1       1.105   9.013  20.325  0.00  0.00    +0.000 A 
ATOM      9  C   UNL     1       1.649   7.766  20.642  0.00  0.00    +0.000 A 
ATOM     10  C   UNL     1       2.288   6.996  19.666  0.00  0.00    +0.000 A 
ATOM     11  C   UNL     1       2.394   7.514  18.370  0.00  0.00    +0.000 A 
ATOM     12  C   UNL     1       1.838   8.761  18.050  0.00  0.00    +0.000 A 
ENDBRANCH   2  10
ENDBRANCH   1   3
BRANCH   1  13
ATOM     13  C   UNL     1       3.965   3.218  19.281  0.00  0.00    +0.000 C 
BRANCH  13  14
ATOM     14  C   UNL     1       3.247   3.080  17.968  0.00  0.00    +0.000 C 
ATOM     15  O   UNL     1       2.562   2.129  17.623  0.00  0.00    +0.000 OA
BRANCH  14  16
ATOM     16  O   UNL     1       3.555   4.145  17.176  0.00  0.00    +0.000 OA
BRANCH  16  17
ATOM     17  C   UNL     1       4.878   4.109  16.601  0.00  0.00    +0.000 C 
BRANCH  17  18
ATOM     18  C   UNL     1       5.508   5.499  16.689  0.00  0.00    +0.000 C 
ATOM     19  F   UNL     1       4.903   6.313  15.780  0.00  0.00    +0.000 F 
ATOM     20  F   UNL     1       5.257   6.048  17.910  0.00  0.00    +0.000 F 
BRANCH  18  21
ATOM     21  C   UNL     1       7.005   5.447  16.447  0.00  0.00    +0.000 C 
ATOM     22  F   UNL     1       7.277   5.284  15.126  0.00  0.00    +0.000 F 
ATOM     23  F   UNL     1       7.596   6.611  16.825  0.00  0.00    +0.000 F 
ENDBRANCH  18  21
ENDBRANCH  17  18
ENDBRANCH  16  17
ENDBRANCH  14  16
ENDBRANCH  13  14
ENDBRANCH   1  13
TORSDOF 8
ENDMDL
MODEL 7
REMARK VINA RESULT:      -6.8      3.091      4.957
REMARK  Name = 
REMARK  9 active torsions:
REMARK  status: ('A' for Active; 'I' for Inactive)
REMARK    1  A    between atoms: C_1  and  C_2
REMARK    2  A    between atoms: C_5  and  N_6
REMARK    3  A    between atoms: C_7  and  C_9
REMARK    4  A    between atoms: C_9  and  C_10
REMARK    5  A    between atoms: C_10  and  C_11
REMARK    6  A    between atoms: C_11  and  O_13
REMARK    7  A    between atoms: O_13  and  C_14
REMARK    8  A    between atoms: C_14  and  C_15
REMARK    9  A    between atoms: C_15  and  C_18
REMARK                            x       y       z     vdW  Elec       q    Type
REMARK                         _______ _______ _______ _____ _____    ______ ____
ROOT
ATOM      1  C   UNL     1       2.592   3.026  21.077  0.00  0.00    +0.000 C 
ENDROOT
BRANCH   1   3
ATOM      2  N   UNL     1       2.668   5.367  20.434  0.00  0.00    +0.000 N 
ATOM      3  C   UNL     1       1.880   4.233  20.511  0.00  0.00    +0.000 C 
ATOM      4  O   UNL     1       0.715   4.125  20.133  0.00  0.00    +0.000 OA
ATOM      5  H   UNL     1       3.649   5.275  20.661  0.00  0.00    +0.000 HD
BRANCH   2  10
ATOM      6  C   UNL     1       1.000  10.550  18.623  0.00  0.00    +0.000 C 
ATOM      7  C   UNL     1       1.427   9.186  19.080  0.00  0.00    +0.000 A 
ATOM      8  C   UNL     1       2.124   8.338  18.223  0.00  0.00    +0.000 A 
ATOM      9  C   UNL     1       2.537   7.073  18.649  0.00  0.00    +0.000 A 
ATOM     10  C   UNL     1       2.260   6.629  19.946  0.00  0.00    +0.000 A 
ATOM     11  C   UNL     1       1.537   7.470  20.799  0.00  0.00    +0.000 A 
ATOM     12  C   UNL     1       1.132   8.744  20.375  0.00  0.00    +0.000 A 
ENDBRANCH   2  10
ENDBRANCH   1   3
BRANCH   1  13
ATOM     13  C   UNL     1       3.884   2.815  20.301  0.00  0.00    +0.000 C 
BRANCH  13  14
ATOM     14  C   UNL     1       3.628   2.624  18.833  0.00  0.00    +0.000 C 
ATOM     15  O   UNL     1       3.015   1.694  18.328  0.00  0.00    +0.000 OA
BRANCH  14  16
ATOM     16  O   UNL     1       4.270   3.602  18.135  0.00  0.00    +0.000 OA
BRANCH  16  17
ATOM     17  C   UNL     1       5.360   4.232  18.840  0.00  0.00    +0.000 C 
BRANCH  17  18
ATOM     18  C   UNL     1       6.070   5.211  17.905  0.00  0.00    +0.000 C 
ATOM     19  F   UNL     1       5.132   5.938  17.236  0.00  0.00    +0.000 F 
ATOM     20  F   UNL     1       6.794   6.107  18.631  0.00  0.00    +0.000 F 
BRANCH  18  21
ATOM     21  C   UNL     1       6.979   4.487  16.929  0.00  0.00    +0.000 C 
ATOM     22  F   UNL     1       7.259   5.270  15.855  0.00  0.00    +0.000 F 
ATOM     23  F   UNL     1       8.170   4.185  17.510  0.00  0.00    +0.000 F 
ENDBRANCH  18  21
ENDBRANCH  17  18
ENDBRANCH  16  17
ENDBRANCH  14  16
ENDBRANCH  13  14
ENDBRANCH   1  13
TORSDOF 8
ENDMDL
MODEL 8
REMARK VINA RESULT:      -6.8      0.797      1.775
REMARK  Name = 
REMARK  9 active torsions:
REMARK  status: ('A' for Active; 'I' for Inactive)
REMARK    1  A    between atoms: C_1  and  C_2
REMARK    2  A    between atoms: C_5  and  N_6
REMARK    3  A    between atoms: C_7  and  C_9
REMARK    4  A    between atoms: C_9  and  C_10
REMARK    5  A    between atoms: C_10  and  C_11
REMARK    6  A    between atoms: C_11  and  O_13
REMARK    7  A    between atoms: O_13  and  C_14
REMARK    8  A    between atoms: C_14  and  C_15
REMARK    9  A    between atoms: C_15  and  C_18
REMARK                            x       y       z     vdW  Elec       q    Type
REMARK                         _______ _______ _______ _____ _____    ______ ____
ROOT
ATOM      1  C   UNL     1       3.357   1.759  18.601  0.00  0.00    +0.000 C 
ENDROOT
BRANCH   1   3
ATOM      2  N   UNL     1       4.563   3.704  17.788  0.00  0.00    +0.000 N 
ATOM      3  C   UNL     1       4.402   2.824  18.842  0.00  0.00    +0.000 C 
ATOM      4  O   UNL     1       4.986   2.865  19.924  0.00  0.00    +0.000 OA
ATOM      5  H   UNL     1       3.921   3.629  17.009  0.00  0.00    +0.000 HD
BRANCH   2  10
ATOM      6  C   UNL     1       8.081   8.233  17.592  0.00  0.00    +0.000 C 
ATOM      7  C   UNL     1       7.176   7.037  17.635  0.00  0.00    +0.000 A 
ATOM      8  C   UNL     1       7.603   5.845  18.217  0.00  0.00    +0.000 A 
ATOM      9  C   UNL     1       6.758   4.734  18.271  0.00  0.00    +0.000 A 
ATOM     10  C   UNL     1       5.465   4.792  17.744  0.00  0.00    +0.000 A 
ATOM     11  C   UNL     1       5.044   5.980  17.136  0.00  0.00    +0.000 A 
ATOM     12  C   UNL     1       5.889   7.099  17.090  0.00  0.00    +0.000 A 
ENDBRANCH   2  10
ENDBRANCH   1   3
BRANCH   1  13
ATOM     13  C   UNL     1       2.205   1.981  19.570  0.00  0.00    +0.000 C 
BRANCH  13  14
ATOM     14  C   UNL     1       1.003   2.566  18.884  0.00  0.00    +0.000 C 
ATOM     15  O   UNL     1       0.124   1.934  18.317  0.00  0.00    +0.000 OA
BRANCH  14  16
ATOM     16  O   UNL     1       1.093   3.925  18.906  0.00  0.00    +0.000 OA
BRANCH  16  17
ATOM     17  C   UNL     1       1.496   4.485  20.173  0.00  0.00    +0.000 C 
BRANCH  17  18
ATOM     18  C   UNL     1       2.263   5.785  19.933  0.00  0.00    +0.000 C 
ATOM     19  F   UNL     1       3.585   5.566  20.179  0.00  0.00    +0.000 F 
ATOM     20  F   UNL     1       2.177   6.141  18.622  0.00  0.00    +0.000 F 
BRANCH  18  21
ATOM     21  C   UNL     1       1.737   6.909  20.806  0.00  0.00    +0.000 C 
ATOM     22  F   UNL     1       1.932   8.116  20.213  0.00  0.00    +0.000 F 
ATOM     23  F   UNL     1       0.397   6.784  21.001  0.00  0.00    +0.000 F 
ENDBRANCH  18  21
ENDBRANCH  17  18
ENDBRANCH  16  17
ENDBRANCH  14  16
ENDBRANCH  13  14
ENDBRANCH   1  13
TORSDOF 8
ENDMDL
MODEL 9
REMARK VINA RESULT:      -6.8      3.305      5.325
REMARK  Name = 
REMARK  9 active torsions:
REMARK  status: ('A' for Active; 'I' for Inactive)
REMARK    1  A    between atoms: C_1  and  C_2
REMARK    2  A    between atoms: C_5  and  N_6
REMARK    3  A    between atoms: C_7  and  C_9
REMARK    4  A    between atoms: C_9  and  C_10
REMARK    5  A    between atoms: C_10  and  C_11
REMARK    6  A    between atoms: C_11  and  O_13
REMARK    7  A    between atoms: O_13  and  C_14
REMARK    8  A    between atoms: C_14  and  C_15
REMARK    9  A    between atoms: C_15  and  C_18
REMARK                            x       y       z     vdW  Elec       q    Type
REMARK                         _______ _______ _______ _____ _____    ______ ____
ROOT
ATOM      1  C   UNL     1       3.336   3.744  17.063  0.00  0.00    +0.000 C 
ENDROOT
BRANCH   1   3
ATOM      2  N   UNL     1       3.019   5.975  17.967  0.00  0.00    +0.000 N 
ATOM      3  C   UNL     1       2.428   4.747  17.737  0.00  0.00    +0.000 C 
ATOM      4  O   UNL     1       1.266   4.435  17.989  0.00  0.00    +0.000 OA
ATOM      5  H   UNL     1       3.944   6.132  17.589  0.00  0.00    +0.000 HD
BRANCH   2  10
ATOM      6  C   UNL     1       0.578  10.447  20.608  0.00  0.00    +0.000 C 
ATOM      7  C   UNL     1       1.201   9.278  19.903  0.00  0.00    +0.000 A 
ATOM      8  C   UNL     1       1.470   9.335  18.537  0.00  0.00    +0.000 A 
ATOM      9  C   UNL     1       2.064   8.254  17.880  0.00  0.00    +0.000 A 
ATOM     10  C   UNL     1       2.402   7.091  18.577  0.00  0.00    +0.000 A 
ATOM     11  C   UNL     1       2.108   7.022  19.944  0.00  0.00    +0.000 A 
ATOM     12  C   UNL     1       1.522   8.111  20.606  0.00  0.00    +0.000 A 
ENDBRANCH   2  10
ENDBRANCH   1   3
BRANCH   1  13
ATOM     13  C   UNL     1       3.736   2.687  18.083  0.00  0.00    +0.000 C 
BRANCH  13  14
ATOM     14  C   UNL     1       4.833   3.171  18.988  0.00  0.00    +0.000 C 
ATOM     15  O   UNL     1       5.044   2.785  20.128  0.00  0.00    +0.000 OA
BRANCH  14  16
ATOM     16  O   UNL     1       5.504   4.185  18.374  0.00  0.00    +0.000 OA
BRANCH  16  17
ATOM     17  C   UNL     1       6.238   5.052  19.263  0.00  0.00    +0.000 C 
BRANCH  17  18
ATOM     18  C   UNL     1       7.462   5.607  18.536  0.00  0.00    +0.000 C 
ATOM     19  F   UNL     1       8.375   6.015  19.462  0.00  0.00    +0.000 F 
ATOM     20  F   UNL     1       8.067   4.619  17.821  0.00  0.00    +0.000 F 
BRANCH  18  21
ATOM     21  C   UNL     1       7.089   6.753  17.614  0.00  0.00    +0.000 C 
ATOM     22  F   UNL     1       8.122   7.624  17.480  0.00  0.00    +0.000 F 
ATOM     23  F   UNL     1       6.801   6.296  16.367  0.00  0.00    +0.000 F 
ENDBRANCH  18  21
ENDBRANCH  17  18
ENDBRANCH  16  17
ENDBRANCH  14  16
ENDBRANCH  13  14
ENDBRANCH   1  13
TORSDOF 8
ENDMDL
