MODEL 1
REMARK VINA RESULT:      -7.0      0.000      0.000
REMARK  Name = 
REMARK  6 active torsions:
REMARK  status: ('A' for Active; 'I' for Inactive)
REMARK    1  A    between atoms: C_1  and  C_2
REMARK    2  A    between atoms: C_2  and  C_5
REMARK    3  A    between atoms: N_3  and  O_4
REMARK    4  A    between atoms: C_5  and  C_6
REMARK    5  A    between atoms: C_5  and  N_7
REMARK    6  A    between atoms: C_8  and  C_10
REMARK                            x       y       z     vdW  Elec       q    Type
REMARK                         _______ _______ _______ _____ _____    ______ ____
ROOT
ATOM      1  N   UNL     1       5.088   4.781  18.087  0.00  0.00    +0.000 N 
ATOM      2  C   UNL     1       3.888   5.420  18.302  0.00  0.00    +0.000 C 
ATOM      3  O   UNL     1       3.704   6.607  18.062  0.00  0.00    +0.000 OA
ATOM      4  H   UNL     1       5.157   3.773  18.155  0.00  0.00    +0.000 HD
ENDROOT
BRANCH   2   5
ATOM      5  C   UNL     1       2.780   4.568  18.814  0.00  0.00    +0.000 A 
ATOM      6  C   UNL     1       2.182   3.581  18.019  0.00  0.00    +0.000 A 
ATOM      7  C   UNL     1       1.119   2.829  18.523  0.00  0.00    +0.000 A 
ATOM      8  C   UNL     1       0.658   3.051  19.821  0.00  0.00    +0.000 A 
ATOM      9  C   UNL     1       1.271   4.011  20.626  0.00  0.00    +0.000 A 
ATOM     10  C   UNL     1       2.335   4.766  20.127  0.00  0.00    +0.000 A 
ENDBRANCH   2   5
BRANCH   1  11
ATOM     11  C   UNL     1       6.244   5.460  17.529  0.00  0.00    +0.000 C 
ATOM     12  C   UNL     1       6.984   4.571  16.539  0.00  0.00    +0.000 C 
BRANCH  11  14
ATOM     13  C   UNL     1       8.066   7.050  18.452  0.00  0.00    +0.000 C 
ATOM     14  C   UNL     1       7.178   5.847  18.686  0.00  0.00    +0.000 C 
ATOM     15  N   UNL     1       7.184   5.108  19.761  0.00  0.00    +0.000 NA
BRANCH  15  16
ATOM     16  O   UNL     1       8.101   5.571  20.708  0.00  0.00    +0.000 OA
ATOM     17  H   UNL     1       8.292   4.773  21.235  0.00  0.00    +0.000 HD
ENDBRANCH  15  16
ENDBRANCH  11  14
ENDBRANCH   1  11
TORSDOF 4
ENDMDL
MODEL 2
REMARK VINA RESULT:      -6.8      0.497      1.339
REMARK  Name = 
REMARK  6 active torsions:
REMARK  status: ('A' for Active; 'I' for Inactive)
REMARK    1  A    between atoms: C_1  and  C_2
REMARK    2  A    between atoms: C_2  and  C_5
REMARK    3  A    between atoms: N_3  and  O_4
REMARK    4  A    between atoms: C_5  and  C_6
REMARK    5  A    between atoms: C_5  and  N_7
REMARK    6  A    between atoms: C_8  and  C_10
REMARK                            x       y       z     vdW  Elec       q    Type
REMARK                         _______ _______ _______ _____ _____    ______ ____
ROOT
ATOM      1  N   UNL     1       4.929   4.793  17.679  0.00  0.00    +0.000 N 
ATOM      2  C   UNL     1       3.782   5.487  17.993  0.00  0.00    +0.000 C 
ATOM      3  O   UNL     1       3.626   6.677  17.745  0.00  0.00    +0.000 OA
ATOM      4  H   UNL     1       4.962   3.784  17.763  0.00  0.00    +0.000 HD
ENDROOT
BRANCH   2   5
ATOM      5  C   UNL     1       2.694   4.693  18.625  0.00  0.00    +0.000 A 
ATOM      6  C   UNL     1       2.170   5.029  19.881  0.00  0.00    +0.000 A 
ATOM      7  C   UNL     1       1.177   4.235  20.458  0.00  0.00    +0.000 A 
ATOM      8  C   UNL     1       0.696   3.114  19.780  0.00  0.00    +0.000 A 
ATOM      9  C   UNL     1       1.193   2.794  18.517  0.00  0.00    +0.000 A 
ATOM     10  C   UNL     1       2.187   3.585  17.936  0.00  0.00    +0.000 A 
ENDBRANCH   2   5
BRANCH   1  11
ATOM     11  C   UNL     1       6.054   5.411  16.999  0.00  0.00    +0.000 C 
ATOM     12  C   UNL     1       6.696   4.451  16.006  0.00  0.00    +0.000 C 
BRANCH  11  14
ATOM     13  C   UNL     1       7.700   7.204  17.881  0.00  0.00    +0.000 C 
ATOM     14  C   UNL     1       7.081   5.834  18.061  0.00  0.00    +0.000 C 
ATOM     15  N   UNL     1       7.389   4.991  19.007  0.00  0.00    +0.000 NA
BRANCH  15  16
ATOM     16  O   UNL     1       8.353   5.509  19.875  0.00  0.00    +0.000 OA
ATOM     17  H   UNL     1       8.684   4.714  20.332  0.00  0.00    +0.000 HD
ENDBRANCH  15  16
ENDBRANCH  11  14
ENDBRANCH   1  11
TORSDOF 4
ENDMDL
MODEL 3
REMARK VINA RESULT:      -6.7      2.453      3.312
REMARK  Name = 
REMARK  6 active torsions:
REMARK  status: ('A' for Active; 'I' for Inactive)
REMARK    1  A    between atoms: C_1  and  C_2
REMARK    2  A    between atoms: C_2  and  C_5
REMARK    3  A    between atoms: N_3  and  O_4
REMARK    4  A    between atoms: C_5  and  C_6
REMARK    5  A    between atoms: C_5  and  N_7
REMARK    6  A    between atoms: C_8  and  C_10
REMARK                            x       y       z     vdW  Elec       q    Type
REMARK                         _______ _______ _______ _____ _____    ______ ____
ROOT
ATOM      1  N   UNL     1       5.238   4.756  17.278  0.00  0.00    +0.000 N 
ATOM      2  C   UNL     1       5.030   4.152  18.497  0.00  0.00    +0.000 C 
ATOM      3  O   UNL     1       5.918   3.978  19.324  0.00  0.00    +0.000 OA
ATOM      4  H   UNL     1       4.457   5.015  16.689  0.00  0.00    +0.000 HD
ENDROOT
BRANCH   2   5
ATOM      5  C   UNL     1       3.629   3.746  18.790  0.00  0.00    +0.000 A 
ATOM      6  C   UNL     1       3.300   3.001  19.930  0.00  0.00    +0.000 A 
ATOM      7  C   UNL     1       1.979   2.606  20.149  0.00  0.00    +0.000 A 
ATOM      8  C   UNL     1       0.982   2.963  19.239  0.00  0.00    +0.000 A 
ATOM      9  C   UNL     1       1.300   3.730  18.119  0.00  0.00    +0.000 A 
ATOM     10  C   UNL     1       2.620   4.128  17.896  0.00  0.00    +0.000 A 
ENDBRANCH   2   5
BRANCH   1  11
ATOM     11  C   UNL     1       6.536   5.267  16.872  0.00  0.00    +0.000 C 
ATOM     12  C   UNL     1       6.706   6.727  17.273  0.00  0.00    +0.000 C 
BRANCH  11  14
ATOM     13  C   UNL     1       5.502   4.427  14.654  0.00  0.00    +0.000 C 
ATOM     14  C   UNL     1       6.652   5.124  15.347  0.00  0.00    +0.000 C 
ATOM     15  N   UNL     1       7.730   5.560  14.757  0.00  0.00    +0.000 NA
BRANCH  15  16
ATOM     16  O   UNL     1       7.698   5.334  13.378  0.00  0.00    +0.000 OA
ATOM     17  H   UNL     1       7.868   4.376  13.310  0.00  0.00    +0.000 HD
ENDBRANCH  15  16
ENDBRANCH  11  14
ENDBRANCH   1  11
TORSDOF 4
ENDMDL
MODEL 4
REMARK VINA RESULT:      -6.7      1.367      1.922
REMARK  Name = 
REMARK  6 active torsions:
REMARK  status: ('A' for Active; 'I' for Inactive)
REMARK    1  A    between atoms: C_1  and  C_2
REMARK    2  A    between atoms: C_2  and  C_5
REMARK    3  A    between atoms: N_3  and  O_4
REMARK    4  A    between atoms: C_5  and  C_6
REMARK    5  A    between atoms: C_5  and  N_7
REMARK    6  A    between atoms: C_8  and  C_10
REMARK                            x       y       z     vdW  Elec       q    Type
REMARK                         _______ _______ _______ _____ _____    ______ ____
ROOT
ATOM      1  N   UNL     1       4.392   5.174  17.295  0.00  0.00    +0.000 N 
ATOM      2  C   UNL     1       3.437   5.750  18.102  0.00  0.00    +0.000 C 
ATOM      3  O   UNL     1       3.372   6.955  18.314  0.00  0.00    +0.000 OA
ATOM      4  H   UNL     1       4.323   4.201  17.025  0.00  0.00    +0.000 HD
ENDROOT
BRANCH   2   5
ATOM      5  C   UNL     1       2.435   4.819  18.688  0.00  0.00    +0.000 A 
ATOM      6  C   UNL     1       1.895   5.026  19.964  0.00  0.00    +0.000 A 
ATOM      7  C   UNL     1       0.986   4.108  20.494  0.00  0.00    +0.000 A 
ATOM      8  C   UNL     1       0.605   2.991  19.750  0.00  0.00    +0.000 A 
ATOM      9  C   UNL     1       1.117   2.798  18.467  0.00  0.00    +0.000 A 
ATOM     10  C   UNL     1       2.026   3.713  17.932  0.00  0.00    +0.000 A 
ENDBRANCH   2   5
BRANCH   1  11
ATOM     11  C   UNL     1       5.399   5.956  16.598  0.00  0.00    +0.000 C 
ATOM     12  C   UNL     1       5.373   5.683  15.099  0.00  0.00    +0.000 C 
BRANCH  11  14
ATOM     13  C   UNL     1       7.623   6.744  17.661  0.00  0.00    +0.000 C 
ATOM     14  C   UNL     1       6.774   5.589  17.174  0.00  0.00    +0.000 C 
ATOM     15  N   UNL     1       7.143   4.337  17.170  0.00  0.00    +0.000 NA
BRANCH  15  16
ATOM     16  O   UNL     1       8.424   4.168  17.700  0.00  0.00    +0.000 OA
ATOM     17  H   UNL     1       8.421   3.236  17.985  0.00  0.00    +0.000 HD
ENDBRANCH  15  16
ENDBRANCH  11  14
ENDBRANCH   1  11
TORSDOF 4
ENDMDL
MODEL 5
REMARK VINA RESULT:      -6.7      2.394      3.157
REMARK  Name = 
REMARK  6 active torsions:
REMARK  status: ('A' for Active; 'I' for Inactive)
REMARK    1  A    between atoms: C_1  and  C_2
REMARK    2  A    between atoms: C_2  and  C_5
REMARK    3  A    between atoms: N_3  and  O_4
REMARK    4  A    between atoms: C_5  and  C_6
REMARK    5  A    between atoms: C_5  and  N_7
REMARK    6  A    between atoms: C_8  and  C_10
REMARK                            x       y       z     vdW  Elec       q    Type
REMARK                         _______ _______ _______ _____ _____    ______ ____
ROOT
ATOM      1  N   UNL     1       5.405   4.817  17.263  0.00  0.00    +0.000 N 
ATOM      2  C   UNL     1       5.131   4.333  18.522  0.00  0.00    +0.000 C 
ATOM      3  O   UNL     1       5.997   4.099  19.357  0.00  0.00    +0.000 OA
ATOM      4  H   UNL     1       4.659   5.139  16.659  0.00  0.00    +0.000 HD
ENDROOT
BRANCH   2   5
ATOM      5  C   UNL     1       3.691   4.144  18.847  0.00  0.00    +0.000 A 
ATOM      6  C   UNL     1       2.804   3.545  17.942  0.00  0.00    +0.000 A 
ATOM      7  C   UNL     1       1.452   3.422  18.269  0.00  0.00    +0.000 A 
ATOM      8  C   UNL     1       0.985   3.884  19.500  0.00  0.00    +0.000 A 
ATOM      9  C   UNL     1       1.869   4.453  20.415  0.00  0.00    +0.000 A 
ATOM     10  C   UNL     1       3.223   4.578  20.093  0.00  0.00    +0.000 A 
ENDBRANCH   2   5
BRANCH   1  11
ATOM     11  C   UNL     1       6.755   5.117  16.819  0.00  0.00    +0.000 C 
ATOM     12  C   UNL     1       7.175   6.521  17.232  0.00  0.00    +0.000 C 
BRANCH  11  14
ATOM     13  C   UNL     1       5.702   4.149  14.662  0.00  0.00    +0.000 C 
ATOM     14  C   UNL     1       6.797   4.985  15.289  0.00  0.00    +0.000 C 
ATOM     15  N   UNL     1       7.777   5.548  14.638  0.00  0.00    +0.000 NA
BRANCH  15  16
ATOM     16  O   UNL     1       7.691   5.316  13.263  0.00  0.00    +0.000 OA
ATOM     17  H   UNL     1       8.194   4.488  13.149  0.00  0.00    +0.000 HD
ENDBRANCH  15  16
ENDBRANCH  11  14
ENDBRANCH   1  11
TORSDOF 4
ENDMDL
MODEL 6
REMARK VINA RESULT:      -6.7      1.308      1.397
REMARK  Name = 
REMARK  6 active torsions:
REMARK  status: ('A' for Active; 'I' for Inactive)
REMARK    1  A    between atoms: C_1  and  C_2
REMARK    2  A    between atoms: C_2  and  C_5
REMARK    3  A    between atoms: N_3  and  O_4
REMARK    4  A    between atoms: C_5  and  C_6
REMARK    5  A    between atoms: C_5  and  N_7
REMARK    6  A    between atoms: C_8  and  C_10
REMARK                            x       y       z     vdW  Elec       q    Type
REMARK                         _______ _______ _______ _____ _____    ______ ____
ROOT
ATOM      1  N   UNL     1       4.464   5.308  17.793  0.00  0.00    +0.000 N 
ATOM      2  C   UNL     1       3.240   5.775  18.216  0.00  0.00    +0.000 C 
ATOM      3  O   UNL     1       2.889   6.944  18.102  0.00  0.00    +0.000 OA
ATOM      4  H   UNL     1       4.657   4.314  17.768  0.00  0.00    +0.000 HD
ENDROOT
BRANCH   2   5
ATOM      5  C   UNL     1       2.321   4.759  18.797  0.00  0.00    +0.000 A 
ATOM      6  C   UNL     1       1.775   3.729  18.019  0.00  0.00    +0.000 A 
ATOM      7  C   UNL     1       0.885   2.819  18.592  0.00  0.00    +0.000 A 
ATOM      8  C   UNL     1       0.548   2.925  19.942  0.00  0.00    +0.000 A 
ATOM      9  C   UNL     1       1.113   3.929  20.727  0.00  0.00    +0.000 A 
ATOM     10  C   UNL     1       2.004   4.843  20.158  0.00  0.00    +0.000 A 
ENDBRANCH   2   5
BRANCH   1  11
ATOM     11  C   UNL     1       5.444   6.162  17.146  0.00  0.00    +0.000 C 
ATOM     12  C   UNL     1       5.290   6.134  15.631  0.00  0.00    +0.000 C 
BRANCH  11  14
ATOM     13  C   UNL     1       7.798   6.719  18.069  0.00  0.00    +0.000 C 
ATOM     14  C   UNL     1       6.845   5.669  17.540  0.00  0.00    +0.000 C 
ATOM     15  N   UNL     1       7.141   4.411  17.359  0.00  0.00    +0.000 NA
BRANCH  15  16
ATOM     16  O   UNL     1       8.454   4.124  17.738  0.00  0.00    +0.000 OA
ATOM     17  H   UNL     1       8.540   4.586  18.592  0.00  0.00    +0.000 HD
ENDBRANCH  15  16
ENDBRANCH  11  14
ENDBRANCH   1  11
TORSDOF 4
ENDMDL
MODEL 7
REMARK VINA RESULT:      -6.7      1.570      2.120
REMARK  Name = 
REMARK  6 active torsions:
REMARK  status: ('A' for Active; 'I' for Inactive)
REMARK    1  A    between atoms: C_1  and  C_2
REMARK    2  A    between atoms: C_2  and  C_5
REMARK    3  A    between atoms: N_3  and  O_4
REMARK    4  A    between atoms: C_5  and  C_6
REMARK    5  A    between atoms: C_5  and  N_7
REMARK    6  A    between atoms: C_8  and  C_10
REMARK                            x       y       z     vdW  Elec       q    Type
REMARK                         _______ _______ _______ _____ _____    ______ ____
ROOT
ATOM      1  N   UNL     1       4.357   5.126  17.006  0.00  0.00    +0.000 N 
ATOM      2  C   UNL     1       3.408   5.774  17.764  0.00  0.00    +0.000 C 
ATOM      3  O   UNL     1       3.283   6.993  17.789  0.00  0.00    +0.000 OA
ATOM      4  H   UNL     1       4.332   4.120  16.894  0.00  0.00    +0.000 HD
ENDROOT
BRANCH   2   5
ATOM      5  C   UNL     1       2.487   4.900  18.538  0.00  0.00    +0.000 A 
ATOM      6  C   UNL     1       2.154   5.175  19.871  0.00  0.00    +0.000 A 
ATOM      7  C   UNL     1       1.317   4.308  20.576  0.00  0.00    +0.000 A 
ATOM      8  C   UNL     1       0.801   3.172  19.951  0.00  0.00    +0.000 A 
ATOM      9  C   UNL     1       1.104   2.910  18.615  0.00  0.00    +0.000 A 
ATOM     10  C   UNL     1       1.941   3.775  17.906  0.00  0.00    +0.000 A 
ENDBRANCH   2   5
BRANCH   1  11
ATOM     11  C   UNL     1       5.286   5.837  16.145  0.00  0.00    +0.000 C 
ATOM     12  C   UNL     1       5.660   5.004  14.926  0.00  0.00    +0.000 C 
BRANCH  11  14
ATOM     13  C   UNL     1       7.303   4.979  17.521  0.00  0.00    +0.000 C 
ATOM     14  C   UNL     1       6.544   6.164  16.963  0.00  0.00    +0.000 C 
ATOM     15  N   UNL     1       6.853   7.415  17.165  0.00  0.00    +0.000 NA
BRANCH  15  16
ATOM     16  O   UNL     1       8.003   7.549  17.947  0.00  0.00    +0.000 OA
ATOM     17  H   UNL     1       8.131   6.650  18.304  0.00  0.00    +0.000 HD
ENDBRANCH  15  16
ENDBRANCH  11  14
ENDBRANCH   1  11
TORSDOF 4
ENDMDL
MODEL 8
REMARK VINA RESULT:      -6.6      2.172      2.880
REMARK  Name = 
REMARK  6 active torsions:
REMARK  status: ('A' for Active; 'I' for Inactive)
REMARK    1  A    between atoms: C_1  and  C_2
REMARK    2  A    between atoms: C_2  and  C_5
REMARK    3  A    between atoms: N_3  and  O_4
REMARK    4  A    between atoms: C_5  and  C_6
REMARK    5  A    between atoms: C_5  and  N_7
REMARK    6  A    between atoms: C_8  and  C_10
REMARK                            x       y       z     vdW  Elec       q    Type
REMARK                         _______ _______ _______ _____ _____    ______ ____
ROOT
ATOM      1  N   UNL     1       5.009   4.380  17.968  0.00  0.00    +0.000 N 
ATOM      2  C   UNL     1       4.632   3.590  19.030  0.00  0.00    +0.000 C 
ATOM      3  O   UNL     1       5.431   3.068  19.799  0.00  0.00    +0.000 OA
ATOM      4  H   UNL     1       4.322   4.913  17.450  0.00  0.00    +0.000 HD
ENDROOT
BRANCH   2   5
ATOM      5  C   UNL     1       3.167   3.429  19.232  0.00  0.00    +0.000 A 
ATOM      6  C   UNL     1       2.404   2.561  18.440  0.00  0.00    +0.000 A 
ATOM      7  C   UNL     1       1.024   2.469  18.636  0.00  0.00    +0.000 A 
ATOM      8  C   UNL     1       0.406   3.231  19.628  0.00  0.00    +0.000 A 
ATOM      9  C   UNL     1       1.166   4.072  20.439  0.00  0.00    +0.000 A 
ATOM     10  C   UNL     1       2.546   4.169  20.247  0.00  0.00    +0.000 A 
ENDBRANCH   2   5
BRANCH   1  11
ATOM     11  C   UNL     1       6.399   4.687  17.679  0.00  0.00    +0.000 C 
ATOM     12  C   UNL     1       6.828   5.992  18.337  0.00  0.00    +0.000 C 
BRANCH  11  14
ATOM     13  C   UNL     1       5.544   4.035  15.324  0.00  0.00    +0.000 C 
ATOM     14  C   UNL     1       6.560   4.790  16.154  0.00  0.00    +0.000 C 
ATOM     15  N   UNL     1       7.565   5.469  15.674  0.00  0.00    +0.000 NA
BRANCH  15  16
ATOM     16  O   UNL     1       7.590   5.448  14.277  0.00  0.00    +0.000 OA
ATOM     17  H   UNL     1       7.361   4.523  14.069  0.00  0.00    +0.000 HD
ENDBRANCH  15  16
ENDBRANCH  11  14
ENDBRANCH   1  11
TORSDOF 4
ENDMDL
MODEL 9
REMARK VINA RESULT:      -6.6      1.593      1.734
REMARK  Name = 
REMARK  6 active torsions:
REMARK  status: ('A' for Active; 'I' for Inactive)
REMARK    1  A    between atoms: C_1  and  C_2
REMARK    2  A    between atoms: C_2  and  C_5
REMARK    3  A    between atoms: N_3  and  O_4
REMARK    4  A    between atoms: C_5  and  C_6
REMARK    5  A    between atoms: C_5  and  N_7
REMARK    6  A    between atoms: C_8  and  C_10
REMARK                            x       y       z     vdW  Elec       q    Type
REMARK                         _______ _______ _______ _____ _____    ______ ____
ROOT
ATOM      1  N   UNL     1       4.377   4.797  16.954  0.00  0.00    +0.000 N 
ATOM      2  C   UNL     1       3.463   5.498  17.707  0.00  0.00    +0.000 C 
ATOM      3  O   UNL     1       3.368   6.720  17.687  0.00  0.00    +0.000 OA
ATOM      4  H   UNL     1       4.325   3.788  16.883  0.00  0.00    +0.000 HD
ENDROOT
BRANCH   2   5
ATOM      5  C   UNL     1       2.539   4.678  18.537  0.00  0.00    +0.000 A 
ATOM      6  C   UNL     1       1.970   3.491  18.054  0.00  0.00    +0.000 A 
ATOM      7  C   UNL     1       1.077   2.771  18.849  0.00  0.00    +0.000 A 
ATOM      8  C   UNL     1       0.759   3.224  20.130  0.00  0.00    +0.000 A 
ATOM      9  C   UNL     1       1.347   4.387  20.627  0.00  0.00    +0.000 A 
ATOM     10  C   UNL     1       2.241   5.112  19.834  0.00  0.00    +0.000 A 
ENDBRANCH   2   5
BRANCH   1  11
ATOM     11  C   UNL     1       5.302   5.450  16.044  0.00  0.00    +0.000 C 
ATOM     12  C   UNL     1       5.725   4.515  14.919  0.00  0.00    +0.000 C 
BRANCH  11  14
ATOM     13  C   UNL     1       7.379   4.784  17.438  0.00  0.00    +0.000 C 
ATOM     14  C   UNL     1       6.534   5.893  16.849  0.00  0.00    +0.000 C 
ATOM     15  N   UNL     1       6.750   7.169  17.013  0.00  0.00    +0.000 NA
BRANCH  15  16
ATOM     16  O   UNL     1       7.888   7.410  17.787  0.00  0.00    +0.000 OA
ATOM     17  H   UNL     1       7.517   7.773  18.612  0.00  0.00    +0.000 HD
ENDBRANCH  15  16
ENDBRANCH  11  14
ENDBRANCH   1  11
TORSDOF 4
ENDMDL
