MODEL 1
REMARK VINA RESULT:      -7.6      0.000      0.000
REMARK  Name = 
REMARK  8 active torsions:
REMARK  status: ('A' for Active; 'I' for Inactive)
REMARK    1  A    between atoms: C_1  and  C_2
REMARK    2  A    between atoms: C_2  and  C_3
REMARK    3  A    between atoms: C_3  and  N_4
REMARK    4  A    between atoms: N_7  and  S_8
REMARK    5  A    between atoms: S_8  and  C_11
REMARK    6  A    between atoms: C_14  and  O_15
REMARK    7  A    between atoms: O_15  and  C_16
REMARK    8  A    between atoms: C_18  and  C_19
REMARK                            x       y       z     vdW  Elec       q    Type
REMARK                         _______ _______ _______ _____ _____    ______ ____
ROOT
ATOM      1  S   UNL     1       6.768   4.978  17.491  0.00  0.00    +0.000 S 
ATOM      2  O   UNL     1       7.695   4.335  18.403  0.00  0.00    +0.000 OA
ATOM      3  O   UNL     1       7.089   6.277  16.941  0.00  0.00    +0.000 OA
ENDROOT
BRANCH   1   4
ATOM      4  C   UNL     1       5.177   5.053  18.310  0.00  0.00    +0.000 A 
ATOM      5  C   UNL     1       4.888   4.037  19.236  0.00  0.00    +0.000 A 
ATOM      6  C   UNL     1       3.642   3.983  19.864  0.00  0.00    +0.000 A 
ATOM      7  C   UNL     1       2.668   4.940  19.585  0.00  0.00    +0.000 A 
ATOM      8  C   UNL     1       2.957   5.958  18.675  0.00  0.00    +0.000 A 
ATOM      9  C   UNL     1       4.206   6.030  18.017  0.00  0.00    +0.000 A 
ATOM     10  C   UNL     1       4.410   7.135  17.021  0.00  0.00    +0.000 C 
BRANCH   7  11
ATOM     11  O   UNL     1       1.484   4.767  20.249  0.00  0.00    +0.000 OA
ATOM     12  C   UNL     1       0.884   3.479  20.171  0.00  0.00    +0.000 C 
ENDBRANCH   7  11
ENDBRANCH   1   4
BRANCH   1  16
ATOM     13  N   UNL     1       6.359   3.359  13.978  0.00  0.00    +0.000 N 
ATOM     14  C   UNL     1       6.552   4.346  14.904  0.00  0.00    +0.000 C 
ATOM     15  O   UNL     1       6.661   5.526  14.596  0.00  0.00    +0.000 OA
ATOM     16  N   UNL     1       6.573   3.915  16.218  0.00  0.00    +0.000 N 
ATOM     17  H   UNL     1       6.354   2.388  14.255  0.00  0.00    +0.000 HD
ATOM     18  H   UNL     1       6.471   2.953  16.493  0.00  0.00    +0.000 HD
BRANCH  13  19
ATOM     19  C   UNL     1       6.279   3.703  12.569  0.00  0.00    +0.000 C 
BRANCH  19  21
ATOM     20  C   UNL     1       4.157   3.209  11.281  0.00  0.00    +0.000 C 
ATOM     21  C   UNL     1       5.505   2.678  11.741  0.00  0.00    +0.000 C 
ENDBRANCH  19  21
ENDBRANCH  13  19
ENDBRANCH   1  16
TORSDOF 5
ENDMDL
MODEL 2
REMARK VINA RESULT:      -7.5      1.650      1.774
REMARK  Name = 
REMARK  8 active torsions:
REMARK  status: ('A' for Active; 'I' for Inactive)
REMARK    1  A    between atoms: C_1  and  C_2
REMARK    2  A    between atoms: C_2  and  C_3
REMARK    3  A    between atoms: C_3  and  N_4
REMARK    4  A    between atoms: N_7  and  S_8
REMARK    5  A    between atoms: S_8  and  C_11
REMARK    6  A    between atoms: C_14  and  O_15
REMARK    7  A    between atoms: O_15  and  C_16
REMARK    8  A    between atoms: C_18  and  C_19
REMARK                            x       y       z     vdW  Elec       q    Type
REMARK                         _______ _______ _______ _____ _____    ______ ____
ROOT
ATOM      1  S   UNL     1       5.511   5.480  15.940  0.00  0.00    +0.000 S 
ATOM      2  O   UNL     1       6.754   5.333  16.673  0.00  0.00    +0.000 OA
ATOM      3  O   UNL     1       5.204   6.737  15.294  0.00  0.00    +0.000 OA
ENDROOT
BRANCH   1   4
ATOM      4  C   UNL     1       4.178   5.039  17.054  0.00  0.00    +0.000 A 
ATOM      5  C   UNL     1       3.849   3.677  17.146  0.00  0.00    +0.000 A 
ATOM      6  C   UNL     1       2.777   3.259  17.938  0.00  0.00    +0.000 A 
ATOM      7  C   UNL     1       2.021   4.186  18.651  0.00  0.00    +0.000 A 
ATOM      8  C   UNL     1       2.354   5.540  18.571  0.00  0.00    +0.000 A 
ATOM      9  C   UNL     1       3.428   5.992  17.770  0.00  0.00    +0.000 A 
ATOM     10  C   UNL     1       3.683   7.470  17.711  0.00  0.00    +0.000 C 
BRANCH   7  11
ATOM     11  O   UNL     1       0.987   3.654  19.372  0.00  0.00    +0.000 OA
ATOM     12  C   UNL     1       0.632   2.305  19.091  0.00  0.00    +0.000 C 
ENDBRANCH   7  11
ENDBRANCH   1   4
BRANCH   1  16
ATOM     13  N   UNL     1       6.321   3.280  12.837  0.00  0.00    +0.000 N 
ATOM     14  C   UNL     1       6.447   4.308  13.729  0.00  0.00    +0.000 C 
ATOM     15  O   UNL     1       7.281   5.195  13.600  0.00  0.00    +0.000 OA
ATOM     16  N   UNL     1       5.533   4.291  14.767  0.00  0.00    +0.000 N 
ATOM     17  H   UNL     1       5.679   2.521  13.013  0.00  0.00    +0.000 HD
ATOM     18  H   UNL     1       4.831   3.581  14.884  0.00  0.00    +0.000 HD
BRANCH  13  19
ATOM     19  C   UNL     1       7.203   3.219  11.684  0.00  0.00    +0.000 C 
BRANCH  19  21
ATOM     20  C   UNL     1       6.015   1.047  11.161  0.00  0.00    +0.000 C 
ATOM     21  C   UNL     1       7.323   1.817  11.090  0.00  0.00    +0.000 C 
ENDBRANCH  19  21
ENDBRANCH  13  19
ENDBRANCH   1  16
TORSDOF 5
ENDMDL
MODEL 3
REMARK VINA RESULT:      -7.5      1.443      2.506
REMARK  Name = 
REMARK  8 active torsions:
REMARK  status: ('A' for Active; 'I' for Inactive)
REMARK    1  A    between atoms: C_1  and  C_2
REMARK    2  A    between atoms: C_2  and  C_3
REMARK    3  A    between atoms: C_3  and  N_4
REMARK    4  A    between atoms: N_7  and  S_8
REMARK    5  A    between atoms: S_8  and  C_11
REMARK    6  A    between atoms: C_14  and  O_15
REMARK    7  A    between atoms: O_15  and  C_16
REMARK    8  A    between atoms: C_18  and  C_19
REMARK                            x       y       z     vdW  Elec       q    Type
REMARK                         _______ _______ _______ _____ _____    ______ ____
ROOT
ATOM      1  S   UNL     1       6.500   4.952  17.437  0.00  0.00    +0.000 S 
ATOM      2  O   UNL     1       6.676   4.145  18.630  0.00  0.00    +0.000 OA
ATOM      3  O   UNL     1       7.513   5.917  17.070  0.00  0.00    +0.000 OA
ENDROOT
BRANCH   1   4
ATOM      4  C   UNL     1       4.914   5.773  17.575  0.00  0.00    +0.000 A 
ATOM      5  C   UNL     1       4.869   7.135  17.234  0.00  0.00    +0.000 A 
ATOM      6  C   UNL     1       3.687   7.864  17.382  0.00  0.00    +0.000 A 
ATOM      7  C   UNL     1       2.533   7.251  17.865  0.00  0.00    +0.000 A 
ATOM      8  C   UNL     1       2.572   5.894  18.194  0.00  0.00    +0.000 A 
ATOM      9  C   UNL     1       3.758   5.134  18.063  0.00  0.00    +0.000 A 
ATOM     10  C   UNL     1       3.715   3.694  18.483  0.00  0.00    +0.000 C 
BRANCH   7  11
ATOM     11  O   UNL     1       1.448   8.075  17.983  0.00  0.00    +0.000 OA
ATOM     12  C   UNL     1       1.699   9.476  17.974  0.00  0.00    +0.000 C 
ENDBRANCH   7  11
ENDBRANCH   1   4
BRANCH   1  16
ATOM     13  N   UNL     1       6.258   3.269  13.939  0.00  0.00    +0.000 N 
ATOM     14  C   UNL     1       6.436   4.268  14.855  0.00  0.00    +0.000 C 
ATOM     15  O   UNL     1       6.630   5.433  14.531  0.00  0.00    +0.000 OA
ATOM     16  N   UNL     1       6.341   3.869  16.176  0.00  0.00    +0.000 N 
ATOM     17  H   UNL     1       6.182   2.307  14.235  0.00  0.00    +0.000 HD
ATOM     18  H   UNL     1       6.168   2.921  16.463  0.00  0.00    +0.000 HD
BRANCH  13  19
ATOM     19  C   UNL     1       6.298   3.581  12.520  0.00  0.00    +0.000 C 
BRANCH  19  21
ATOM     20  C   UNL     1       4.103   3.250  11.303  0.00  0.00    +0.000 C 
ATOM     21  C   UNL     1       5.445   2.639  11.672  0.00  0.00    +0.000 C 
ENDBRANCH  19  21
ENDBRANCH  13  19
ENDBRANCH   1  16
TORSDOF 5
ENDMDL
MODEL 4
REMARK VINA RESULT:      -7.5      1.088      1.109
REMARK  Name = 
REMARK  8 active torsions:
REMARK  status: ('A' for Active; 'I' for Inactive)
REMARK    1  A    between atoms: C_1  and  C_2
REMARK    2  A    between atoms: C_2  and  C_3
REMARK    3  A    between atoms: C_3  and  N_4
REMARK    4  A    between atoms: N_7  and  S_8
REMARK    5  A    between atoms: S_8  and  C_11
REMARK    6  A    between atoms: C_14  and  O_15
REMARK    7  A    between atoms: O_15  and  C_16
REMARK    8  A    between atoms: C_18  and  C_19
REMARK                            x       y       z     vdW  Elec       q    Type
REMARK                         _______ _______ _______ _____ _____    ______ ____
ROOT
ATOM      1  S   UNL     1       7.210   5.555  17.752  0.00  0.00    +0.000 S 
ATOM      2  O   UNL     1       7.981   4.367  18.066  0.00  0.00    +0.000 OA
ATOM      3  O   UNL     1       7.604   6.831  18.307  0.00  0.00    +0.000 OA
ENDROOT
BRANCH   1   4
ATOM      4  C   UNL     1       5.504   5.216  18.182  0.00  0.00    +0.000 A 
ATOM      5  C   UNL     1       5.259   4.076  18.963  0.00  0.00    +0.000 A 
ATOM      6  C   UNL     1       3.951   3.703  19.282  0.00  0.00    +0.000 A 
ATOM      7  C   UNL     1       2.871   4.460  18.834  0.00  0.00    +0.000 A 
ATOM      8  C   UNL     1       3.113   5.602  18.068  0.00  0.00    +0.000 A 
ATOM      9  C   UNL     1       4.426   5.997  17.722  0.00  0.00    +0.000 A 
ATOM     10  C   UNL     1       4.586   7.214  16.858  0.00  0.00    +0.000 C 
BRANCH   7  11
ATOM     11  O   UNL     1       1.642   3.981  19.196  0.00  0.00    +0.000 OA
ATOM     12  C   UNL     1       1.605   2.697  19.810  0.00  0.00    +0.000 C 
ENDBRANCH   7  11
ENDBRANCH   1   4
BRANCH   1  16
ATOM     13  N   UNL     1       6.920   4.911  13.927  0.00  0.00    +0.000 N 
ATOM     14  C   UNL     1       6.810   4.660  15.266  0.00  0.00    +0.000 C 
ATOM     15  O   UNL     1       6.396   3.595  15.706  0.00  0.00    +0.000 OA
ATOM     16  N   UNL     1       7.240   5.687  16.087  0.00  0.00    +0.000 N 
ATOM     17  H   UNL     1       7.186   5.826  13.595  0.00  0.00    +0.000 HD
ATOM     18  H   UNL     1       7.596   6.563  15.747  0.00  0.00    +0.000 HD
BRANCH  13  19
ATOM     19  C   UNL     1       6.535   3.886  12.972  0.00  0.00    +0.000 C 
BRANCH  19  21
ATOM     20  C   UNL     1       4.606   3.238  11.467  0.00  0.00    +0.000 C 
ATOM     21  C   UNL     1       5.022   3.715  12.849  0.00  0.00    +0.000 C 
ENDBRANCH  19  21
ENDBRANCH  13  19
ENDBRANCH   1  16
TORSDOF 5
ENDMDL
MODEL 5
REMARK VINA RESULT:      -7.4      1.392      1.503
REMARK  Name = 
REMARK  8 active torsions:
REMARK  status: ('A' for Active; 'I' for Inactive)
REMARK    1  A    between atoms: C_1  and  C_2
REMARK    2  A    between atoms: C_2  and  C_3
REMARK    3  A    between atoms: C_3  and  N_4
REMARK    4  A    between atoms: N_7  and  S_8
REMARK    5  A    between atoms: S_8  and  C_11
REMARK    6  A    between atoms: C_14  and  O_15
REMARK    7  A    between atoms: O_15  and  C_16
REMARK    8  A    between atoms: C_18  and  C_19
REMARK                            x       y       z     vdW  Elec       q    Type
REMARK                         _______ _______ _______ _____ _____    ______ ____
ROOT
ATOM      1  S   UNL     1       6.548   5.001  16.912  0.00  0.00    +0.000 S 
ATOM      2  O   UNL     1       7.398   4.505  17.977  0.00  0.00    +0.000 OA
ATOM      3  O   UNL     1       6.620   6.394  16.528  0.00  0.00    +0.000 OA
ENDROOT
BRANCH   1   4
ATOM      4  C   UNL     1       4.858   4.586  17.338  0.00  0.00    +0.000 A 
ATOM      5  C   UNL     1       4.528   3.221  17.379  0.00  0.00    +0.000 A 
ATOM      6  C   UNL     1       3.216   2.816  17.634  0.00  0.00    +0.000 A 
ATOM      7  C   UNL     1       2.215   3.760  17.857  0.00  0.00    +0.000 A 
ATOM      8  C   UNL     1       2.543   5.117  17.829  0.00  0.00    +0.000 A 
ATOM      9  C   UNL     1       3.861   5.555  17.564  0.00  0.00    +0.000 A 
ATOM     10  C   UNL     1       4.110   7.034  17.511  0.00  0.00    +0.000 C 
BRANCH   7  11
ATOM     11  O   UNL     1       0.970   3.239  18.075  0.00  0.00    +0.000 OA
ATOM     12  C   UNL     1       0.704   2.725  19.376  0.00  0.00    +0.000 C 
ENDBRANCH   7  11
ENDBRANCH   1   4
BRANCH   1  16
ATOM     13  N   UNL     1       6.651   3.394  13.372  0.00  0.00    +0.000 N 
ATOM     14  C   UNL     1       6.252   4.241  14.367  0.00  0.00    +0.000 C 
ATOM     15  O   UNL     1       5.353   5.059  14.217  0.00  0.00    +0.000 OA
ATOM     16  N   UNL     1       6.916   4.078  15.570  0.00  0.00    +0.000 N 
ATOM     17  H   UNL     1       7.449   2.789  13.499  0.00  0.00    +0.000 HD
ATOM     18  H   UNL     1       7.647   3.404  15.719  0.00  0.00    +0.000 HD
BRANCH  13  19
ATOM     19  C   UNL     1       5.994   3.450  12.077  0.00  0.00    +0.000 C 
BRANCH  19  21
ATOM     20  C   UNL     1       6.616   1.255  10.981  0.00  0.00    +0.000 C 
ATOM     21  C   UNL     1       5.501   2.088  11.591  0.00  0.00    +0.000 C 
ENDBRANCH  19  21
ENDBRANCH  13  19
ENDBRANCH   1  16
TORSDOF 5
ENDMDL
MODEL 6
REMARK VINA RESULT:      -7.4      1.045      1.140
REMARK  Name = 
REMARK  8 active torsions:
REMARK  status: ('A' for Active; 'I' for Inactive)
REMARK    1  A    between atoms: C_1  and  C_2
REMARK    2  A    between atoms: C_2  and  C_3
REMARK    3  A    between atoms: C_3  and  N_4
REMARK    4  A    between atoms: N_7  and  S_8
REMARK    5  A    between atoms: S_8  and  C_11
REMARK    6  A    between atoms: C_14  and  O_15
REMARK    7  A    between atoms: O_15  and  C_16
REMARK    8  A    between atoms: C_18  and  C_19
REMARK                            x       y       z     vdW  Elec       q    Type
REMARK                         _______ _______ _______ _____ _____    ______ ____
ROOT
ATOM      1  S   UNL     1       5.770   5.188  17.621  0.00  0.00    +0.000 S 
ATOM      2  O   UNL     1       6.848   4.313  18.039  0.00  0.00    +0.000 OA
ATOM      3  O   UNL     1       5.998   6.613  17.530  0.00  0.00    +0.000 OA
ENDROOT
BRANCH   1   4
ATOM      4  C   UNL     1       4.376   4.874  18.702  0.00  0.00    +0.000 A 
ATOM      5  C   UNL     1       4.389   3.671  19.426  0.00  0.00    +0.000 A 
ATOM      6  C   UNL     1       3.307   3.319  20.236  0.00  0.00    +0.000 A 
ATOM      7  C   UNL     1       2.201   4.159  20.342  0.00  0.00    +0.000 A 
ATOM      8  C   UNL     1       2.191   5.362  19.633  0.00  0.00    +0.000 A 
ATOM      9  C   UNL     1       3.268   5.738  18.799  0.00  0.00    +0.000 A 
ATOM     10  C   UNL     1       3.148   7.029  18.042  0.00  0.00    +0.000 C 
BRANCH   7  11
ATOM     11  O   UNL     1       1.200   3.693  21.150  0.00  0.00    +0.000 OA
ATOM     12  C   UNL     1       1.461   2.497  21.876  0.00  0.00    +0.000 C 
ENDBRANCH   7  11
ENDBRANCH   1   4
BRANCH   1  16
ATOM     13  N   UNL     1       5.680   4.015  13.914  0.00  0.00    +0.000 N 
ATOM     14  C   UNL     1       6.220   4.436  15.097  0.00  0.00    +0.000 C 
ATOM     15  O   UNL     1       7.418   4.647  15.237  0.00  0.00    +0.000 OA
ATOM     16  N   UNL     1       5.304   4.645  16.112  0.00  0.00    +0.000 N 
ATOM     17  H   UNL     1       4.703   3.771  13.852  0.00  0.00    +0.000 HD
ATOM     18  H   UNL     1       4.315   4.492  16.013  0.00  0.00    +0.000 HD
BRANCH  13  19
ATOM     19  C   UNL     1       6.546   3.802  12.766  0.00  0.00    +0.000 C 
BRANCH  19  21
ATOM     20  C   UNL     1       4.460   3.170  11.479  0.00  0.00    +0.000 C 
ATOM     21  C   UNL     1       5.934   2.881  11.712  0.00  0.00    +0.000 C 
ENDBRANCH  19  21
ENDBRANCH  13  19
ENDBRANCH   1  16
TORSDOF 5
ENDMDL
MODEL 7
REMARK VINA RESULT:      -7.4      1.299      1.494
REMARK  Name = 
REMARK  8 active torsions:
REMARK  status: ('A' for Active; 'I' for Inactive)
REMARK    1  A    between atoms: C_1  and  C_2
REMARK    2  A    between atoms: C_2  and  C_3
REMARK    3  A    between atoms: C_3  and  N_4
REMARK    4  A    between atoms: N_7  and  S_8
REMARK    5  A    between atoms: S_8  and  C_11
REMARK    6  A    between atoms: C_14  and  O_15
REMARK    7  A    between atoms: O_15  and  C_16
REMARK    8  A    between atoms: C_18  and  C_19
REMARK                            x       y       z     vdW  Elec       q    Type
REMARK                         _______ _______ _______ _____ _____    ______ ____
ROOT
ATOM      1  S   UNL     1       7.051   5.067  17.029  0.00  0.00    +0.000 S 
ATOM      2  O   UNL     1       7.836   4.314  17.990  0.00  0.00    +0.000 OA
ATOM      3  O   UNL     1       7.635   6.212  16.367  0.00  0.00    +0.000 OA
ENDROOT
BRANCH   1   4
ATOM      4  C   UNL     1       5.533   5.558  17.846  0.00  0.00    +0.000 A 
ATOM      5  C   UNL     1       5.278   4.997  19.108  0.00  0.00    +0.000 A 
ATOM      6  C   UNL     1       4.085   5.273  19.779  0.00  0.00    +0.000 A 
ATOM      7  C   UNL     1       3.132   6.115  19.208  0.00  0.00    +0.000 A 
ATOM      8  C   UNL     1       3.389   6.684  17.959  0.00  0.00    +0.000 A 
ATOM      9  C   UNL     1       4.584   6.413  17.254  0.00  0.00    +0.000 A 
ATOM     10  C   UNL     1       4.753   7.036  15.899  0.00  0.00    +0.000 C 
BRANCH   7  11
ATOM     11  O   UNL     1       1.999   6.291  19.954  0.00  0.00    +0.000 OA
ATOM     12  C   UNL     1       1.743   7.605  20.438  0.00  0.00    +0.000 C 
ENDBRANCH   7  11
ENDBRANCH   1   4
BRANCH   1  16
ATOM     13  N   UNL     1       6.274   3.266  13.671  0.00  0.00    +0.000 N 
ATOM     14  C   UNL     1       6.710   4.256  14.506  0.00  0.00    +0.000 C 
ATOM     15  O   UNL     1       7.134   5.328  14.094  0.00  0.00    +0.000 OA
ATOM     16  N   UNL     1       6.598   3.969  15.855  0.00  0.00    +0.000 N 
ATOM     17  H   UNL     1       6.008   2.363  14.036  0.00  0.00    +0.000 HD
ATOM     18  H   UNL     1       6.239   3.101  16.215  0.00  0.00    +0.000 HD
BRANCH  13  19
ATOM     19  C   UNL     1       6.309   3.474  12.233  0.00  0.00    +0.000 C 
BRANCH  19  21
ATOM     20  C   UNL     1       6.205   1.197  11.133  0.00  0.00    +0.000 C 
ATOM     21  C   UNL     1       7.081   2.389  11.485  0.00  0.00    +0.000 C 
ENDBRANCH  19  21
ENDBRANCH  13  19
ENDBRANCH   1  16
TORSDOF 5
ENDMDL
MODEL 8
REMARK VINA RESULT:      -7.4      3.090      5.009
REMARK  Name = 
REMARK  8 active torsions:
REMARK  status: ('A' for Active; 'I' for Inactive)
REMARK    1  A    between atoms: C_1  and  C_2
REMARK    2  A    between atoms: C_2  and  C_3
REMARK    3  A    between atoms: C_3  and  N_4
REMARK    4  A    between atoms: N_7  and  S_8
REMARK    5  A    between atoms: S_8  and  C_11
REMARK    6  A    between atoms: C_14  and  O_15
REMARK    7  A    between atoms: O_15  and  C_16
REMARK    8  A    between atoms: C_18  and  C_19
REMARK                            x       y       z     vdW  Elec       q    Type
REMARK                         _______ _______ _______ _____ _____    ______ ____
ROOT
ATOM      1  S   UNL     1       6.339   5.391  16.472  0.00  0.00    +0.000 S 
ATOM      2  O   UNL     1       5.612   5.273  15.222  0.00  0.00    +0.000 OA
ATOM      3  O   UNL     1       7.486   4.544  16.716  0.00  0.00    +0.000 OA
ENDROOT
BRANCH   1   4
ATOM      4  C   UNL     1       5.154   5.189  17.801  0.00  0.00    +0.000 A 
ATOM      5  C   UNL     1       5.254   4.020  18.572  0.00  0.00    +0.000 A 
ATOM      6  C   UNL     1       4.325   3.754  19.581  0.00  0.00    +0.000 A 
ATOM      7  C   UNL     1       3.288   4.648  19.841  0.00  0.00    +0.000 A 
ATOM      8  C   UNL     1       3.194   5.817  19.083  0.00  0.00    +0.000 A 
ATOM      9  C   UNL     1       4.115   6.106  18.050  0.00  0.00    +0.000 A 
ATOM     10  C   UNL     1       3.907   7.366  17.261  0.00  0.00    +0.000 C 
BRANCH   7  11
ATOM     11  O   UNL     1       2.434   4.266  20.838  0.00  0.00    +0.000 OA
ATOM     12  C   UNL     1       1.141   3.818  20.444  0.00  0.00    +0.000 C 
ENDBRANCH   7  11
ENDBRANCH   1   4
BRANCH   1  16
ATOM     13  N   UNL     1       7.926   8.776  17.542  0.00  0.00    +0.000 N 
ATOM     14  C   UNL     1       7.613   7.447  17.606  0.00  0.00    +0.000 C 
ATOM     15  O   UNL     1       7.956   6.733  18.540  0.00  0.00    +0.000 OA
ATOM     16  N   UNL     1       6.846   6.980  16.555  0.00  0.00    +0.000 N 
ATOM     17  H   UNL     1       7.701   9.320  16.722  0.00  0.00    +0.000 HD
ATOM     18  H   UNL     1       6.541   7.552  15.786  0.00  0.00    +0.000 HD
BRANCH  13  19
ATOM     19  C   UNL     1       8.696   9.384  18.615  0.00  0.00    +0.000 C 
BRANCH  19  21
ATOM     20  C   UNL     1      10.341  11.227  19.166  0.00  0.00    +0.000 C 
ATOM     21  C   UNL     1       9.181  10.795  18.284  0.00  0.00    +0.000 C 
ENDBRANCH  19  21
ENDBRANCH  13  19
ENDBRANCH   1  16
TORSDOF 5
ENDMDL
MODEL 9
REMARK VINA RESULT:      -7.3      3.541      4.817
REMARK  Name = 
REMARK  8 active torsions:
REMARK  status: ('A' for Active; 'I' for Inactive)
REMARK    1  A    between atoms: C_1  and  C_2
REMARK    2  A    between atoms: C_2  and  C_3
REMARK    3  A    between atoms: C_3  and  N_4
REMARK    4  A    between atoms: N_7  and  S_8
REMARK    5  A    between atoms: S_8  and  C_11
REMARK    6  A    between atoms: C_14  and  O_15
REMARK    7  A    between atoms: O_15  and  C_16
REMARK    8  A    between atoms: C_18  and  C_19
REMARK                            x       y       z     vdW  Elec       q    Type
REMARK                         _______ _______ _______ _____ _____    ______ ____
ROOT
ATOM      1  S   UNL     1       3.033   3.265  18.076  0.00  0.00    +0.000 S 
ATOM      2  O   UNL     1       2.127   3.019  16.969  0.00  0.00    +0.000 OA
ATOM      3  O   UNL     1       3.256   2.230  19.062  0.00  0.00    +0.000 OA
ENDROOT
BRANCH   1   4
ATOM      4  C   UNL     1       2.485   4.762  18.893  0.00  0.00    +0.000 A 
ATOM      5  C   UNL     1       2.818   5.981  18.280  0.00  0.00    +0.000 A 
ATOM      6  C   UNL     1       2.490   7.194  18.890  0.00  0.00    +0.000 A 
ATOM      7  C   UNL     1       1.822   7.213  20.112  0.00  0.00    +0.000 A 
ATOM      8  C   UNL     1       1.479   6.002  20.718  0.00  0.00    +0.000 A 
ATOM      9  C   UNL     1       1.808   4.760  20.128  0.00  0.00    +0.000 A 
ATOM     10  C   UNL     1       1.437   3.512  20.874  0.00  0.00    +0.000 C 
BRANCH   7  11
ATOM     11  O   UNL     1       1.576   8.461  20.615  0.00  0.00    +0.000 OA
ATOM     12  C   UNL     1       0.479   8.589  21.514  0.00  0.00    +0.000 C 
ENDBRANCH   7  11
ENDBRANCH   1   4
BRANCH   1  16
ATOM     13  N   UNL     1       6.725   4.303  17.431  0.00  0.00    +0.000 N 
ATOM     14  C   UNL     1       5.600   4.001  18.147  0.00  0.00    +0.000 C 
ATOM     15  O   UNL     1       5.555   4.079  19.368  0.00  0.00    +0.000 OA
ATOM     16  N   UNL     1       4.505   3.640  17.382  0.00  0.00    +0.000 N 
ATOM     17  H   UNL     1       6.757   4.150  16.433  0.00  0.00    +0.000 HD
ATOM     18  H   UNL     1       4.517   3.584  16.379  0.00  0.00    +0.000 HD
BRANCH  13  19
ATOM     19  C   UNL     1       7.925   4.733  18.129  0.00  0.00    +0.000 C 
BRANCH  19  21
ATOM     20  C   UNL     1       7.442   7.139  17.510  0.00  0.00    +0.000 C 
ATOM     21  C   UNL     1       7.854   6.180  18.614  0.00  0.00    +0.000 C 
ENDBRANCH  19  21
ENDBRANCH  13  19
ENDBRANCH   1  16
TORSDOF 5
ENDMDL
