MODEL 1
REMARK VINA RESULT:      -6.2      0.000      0.000
REMARK  Name = 
REMARK  9 active torsions:
REMARK  status: ('A' for Active; 'I' for Inactive)
REMARK    1  A    between atoms: C_1  and  C_2
REMARK    2  A    between atoms: C_2  and  O_3
REMARK    3  A    between atoms: O_3  and  C_4
REMARK    4  A    between atoms: C_4  and  C_6
REMARK    5  A    between atoms: C_7  and  N_8
REMARK    6  A    between atoms: C_7  and  C_28
REMARK    7  A    between atoms: P_9  and  C_10
REMARK    8  A    between atoms: P_9  and  C_16
REMARK    9  A    between atoms: P_9  and  C_22
REMARK                            x       y       z     vdW  Elec       q    Type
REMARK                         _______ _______ _______ _____ _____    ______ ____
ROOT
ATOM      1  N   UNL     1      -0.055  12.025  18.810  0.00  0.00    +0.000 NA
ATOM      2  P   UNL     1      -1.218  11.304  19.475  0.00  0.00    +0.000 P 
ENDROOT
BRANCH   2   3
ATOM      3  C   UNL     1      -1.581  12.301  20.859  0.00  0.00    +0.000 A 
ATOM      4  C   UNL     1      -2.825  12.926  21.003  0.00  0.00    +0.000 A 
ATOM      5  C   UNL     1      -3.130  13.629  22.170  0.00  0.00    +0.000 A 
ATOM      6  C   UNL     1      -2.214  13.689  23.219  0.00  0.00    +0.000 A 
ATOM      7  C   UNL     1      -0.976  13.068  23.102  0.00  0.00    +0.000 A 
ATOM      8  C   UNL     1      -0.670  12.382  21.933  0.00  0.00    +0.000 A 
ENDBRANCH   2   3
BRANCH   2   9
ATOM      9  C   UNL     1      -2.214  10.994  18.062  0.00  0.00    +0.000 A 
ATOM     10  C   UNL     1      -3.457  11.664  17.960  0.00  0.00    +0.000 A 
ATOM     11  C   UNL     1      -4.285  11.569  16.840  0.00  0.00    +0.000 A 
ATOM     12  C   UNL     1      -3.875  10.806  15.759  0.00  0.00    +0.000 A 
ATOM     13  C   UNL     1      -2.653  10.137  15.821  0.00  0.00    +0.000 A 
ATOM     14  C   UNL     1      -1.836  10.226  16.964  0.00  0.00    +0.000 A 
ENDBRANCH   2   9
BRANCH   2  15
ATOM     15  C   UNL     1      -0.336   9.841  19.973  0.00  0.00    +0.000 A 
ATOM     16  C   UNL     1       0.798   9.525  19.197  0.00  0.00    +0.000 A 
ATOM     17  C   UNL     1       1.758   8.608  19.620  0.00  0.00    +0.000 A 
ATOM     18  C   UNL     1       1.615   7.997  20.861  0.00  0.00    +0.000 A 
ATOM     19  C   UNL     1       0.485   8.267  21.635  0.00  0.00    +0.000 A 
ATOM     20  C   UNL     1      -0.493   9.164  21.192  0.00  0.00    +0.000 A 
ENDBRANCH   2  15
BRANCH   1  22
ATOM     21  C   UNL     1      -0.525  14.470  18.560  0.00  0.00    +0.000 C 
ATOM     22  C   UNL     1       0.223  13.383  18.891  0.00  0.00    +0.000 C 
BRANCH  22  23
ATOM     23  C   UNL     1       1.628  13.669  19.466  0.00  0.00    +0.000 C 
ATOM     24  F   UNL     1       2.321  12.558  19.848  0.00  0.00    +0.000 F 
ATOM     25  F   UNL     1       2.441  14.283  18.551  0.00  0.00    +0.000 F 
ATOM     26  F   UNL     1       1.595  14.479  20.564  0.00  0.00    +0.000 F 
ENDBRANCH  22  23
BRANCH  21  27
ATOM     27  C   UNL     1      -0.410  15.911  18.933  0.00  0.00    +0.000 C 
ATOM     28  O   UNL     1      -0.945  16.371  19.936  0.00  0.00    +0.000 OA
BRANCH  27  29
ATOM     29  O   UNL     1       0.443  16.585  18.130  0.00  0.00    +0.000 OA
BRANCH  29  31
ATOM     30  C   UNL     1       0.034  18.437  16.625  0.00  0.00    +0.000 C 
ATOM     31  C   UNL     1       0.299  18.009  18.058  0.00  0.00    +0.000 C 
ENDBRANCH  29  31
ENDBRANCH  27  29
ENDBRANCH  21  27
ENDBRANCH   1  22
TORSDOF 8
ENDMDL
MODEL 2
REMARK VINA RESULT:      -6.2      7.797     10.471
REMARK  Name = 
REMARK  9 active torsions:
REMARK  status: ('A' for Active; 'I' for Inactive)
REMARK    1  A    between atoms: C_1  and  C_2
REMARK    2  A    between atoms: C_2  and  O_3
REMARK    3  A    between atoms: O_3  and  C_4
REMARK    4  A    between atoms: C_4  and  C_6
REMARK    5  A    between atoms: C_7  and  N_8
REMARK    6  A    between atoms: C_7  and  C_28
REMARK    7  A    between atoms: P_9  and  C_10
REMARK    8  A    between atoms: P_9  and  C_16
REMARK    9  A    between atoms: P_9  and  C_22
REMARK                            x       y       z     vdW  Elec       q    Type
REMARK                         _______ _______ _______ _____ _____    ______ ____
ROOT
ATOM      1  N   UNL     1       7.922  13.829  19.918  0.00  0.00    +0.000 NA
ATOM      2  P   UNL     1       9.209  14.080  20.688  0.00  0.00    +0.000 P 
ENDROOT
BRANCH   2   3
ATOM      3  C   UNL     1       9.705  15.664  20.154  0.00  0.00    +0.000 A 
ATOM      4  C   UNL     1      10.391  15.847  18.947  0.00  0.00    +0.000 A 
ATOM      5  C   UNL     1      10.681  17.134  18.490  0.00  0.00    +0.000 A 
ATOM      6  C   UNL     1      10.262  18.252  19.209  0.00  0.00    +0.000 A 
ATOM      7  C   UNL     1       9.571  18.094  20.406  0.00  0.00    +0.000 A 
ATOM      8  C   UNL     1       9.298  16.811  20.866  0.00  0.00    +0.000 A 
ENDBRANCH   2   3
BRANCH   2   9
ATOM      9  C   UNL     1       8.691  13.582  22.291  0.00  0.00    +0.000 A 
ATOM     10  C   UNL     1       8.377  12.217  22.498  0.00  0.00    +0.000 A 
ATOM     11  C   UNL     1       8.049  11.692  23.750  0.00  0.00    +0.000 A 
ATOM     12  C   UNL     1       8.049  12.527  24.854  0.00  0.00    +0.000 A 
ATOM     13  C   UNL     1       8.359  13.876  24.690  0.00  0.00    +0.000 A 
ATOM     14  C   UNL     1       8.671  14.398  23.419  0.00  0.00    +0.000 A 
ENDBRANCH   2   9
BRANCH   2  15
ATOM     15  C   UNL     1      10.198  12.820  19.913  0.00  0.00    +0.000 A 
ATOM     16  C   UNL     1       9.704  12.332  18.686  0.00  0.00    +0.000 A 
ATOM     17  C   UNL     1      10.488  11.581  17.813  0.00  0.00    +0.000 A 
ATOM     18  C   UNL     1      11.814  11.320  18.141  0.00  0.00    +0.000 A 
ATOM     19  C   UNL     1      12.320  11.764  19.364  0.00  0.00    +0.000 A 
ATOM     20  C   UNL     1      11.519  12.490  20.253  0.00  0.00    +0.000 A 
ENDBRANCH   2  15
BRANCH   1  22
ATOM     21  C   UNL     1       6.292  15.722  20.077  0.00  0.00    +0.000 C 
ATOM     22  C   UNL     1       7.055  14.799  19.431  0.00  0.00    +0.000 C 
BRANCH  22  23
ATOM     23  C   UNL     1       6.972  14.802  17.889  0.00  0.00    +0.000 C 
ATOM     24  F   UNL     1       7.367  13.638  17.297  0.00  0.00    +0.000 F 
ATOM     25  F   UNL     1       5.691  14.997  17.444  0.00  0.00    +0.000 F 
ATOM     26  F   UNL     1       7.734  15.781  17.321  0.00  0.00    +0.000 F 
ENDBRANCH  22  23
BRANCH  21  27
ATOM     27  C   UNL     1       5.626  16.971  19.605  0.00  0.00    +0.000 C 
ATOM     28  O   UNL     1       6.197  17.787  18.891  0.00  0.00    +0.000 OA
BRANCH  27  29
ATOM     29  O   UNL     1       4.317  17.015  19.939  0.00  0.00    +0.000 OA
BRANCH  29  31
ATOM     30  C   UNL     1       2.901  16.655  18.008  0.00  0.00    +0.000 C 
ATOM     31  C   UNL     1       3.439  16.076  19.305  0.00  0.00    +0.000 C 
ENDBRANCH  29  31
ENDBRANCH  27  29
ENDBRANCH  21  27
ENDBRANCH   1  22
TORSDOF 8
ENDMDL
MODEL 3
REMARK VINA RESULT:      -6.2      0.831      1.512
REMARK  Name = 
REMARK  9 active torsions:
REMARK  status: ('A' for Active; 'I' for Inactive)
REMARK    1  A    between atoms: C_1  and  C_2
REMARK    2  A    between atoms: C_2  and  O_3
REMARK    3  A    between atoms: O_3  and  C_4
REMARK    4  A    between atoms: C_4  and  C_6
REMARK    5  A    between atoms: C_7  and  N_8
REMARK    6  A    between atoms: C_7  and  C_28
REMARK    7  A    between atoms: P_9  and  C_10
REMARK    8  A    between atoms: P_9  and  C_16
REMARK    9  A    between atoms: P_9  and  C_22
REMARK                            x       y       z     vdW  Elec       q    Type
REMARK                         _______ _______ _______ _____ _____    ______ ____
ROOT
ATOM      1  N   UNL     1      -0.044  11.986  18.682  0.00  0.00    +0.000 NA
ATOM      2  P   UNL     1      -1.176  11.258  19.389  0.00  0.00    +0.000 P 
ENDROOT
BRANCH   2   3
ATOM      3  C   UNL     1      -1.498  12.255  20.782  0.00  0.00    +0.000 A 
ATOM      4  C   UNL     1      -2.768  12.796  21.017  0.00  0.00    +0.000 A 
ATOM      5  C   UNL     1      -3.029  13.500  22.194  0.00  0.00    +0.000 A 
ATOM      6  C   UNL     1      -2.040  13.643  23.166  0.00  0.00    +0.000 A 
ATOM      7  C   UNL     1      -0.774  13.106  22.960  0.00  0.00    +0.000 A 
ATOM      8  C   UNL     1      -0.514  12.420  21.779  0.00  0.00    +0.000 A 
ENDBRANCH   2   3
BRANCH   2   9
ATOM      9  C   UNL     1      -2.219  10.936  18.013  0.00  0.00    +0.000 A 
ATOM     10  C   UNL     1      -3.445  11.638  17.925  0.00  0.00    +0.000 A 
ATOM     11  C   UNL     1      -4.305  11.535  16.830  0.00  0.00    +0.000 A 
ATOM     12  C   UNL     1      -3.946  10.731  15.761  0.00  0.00    +0.000 A 
ATOM     13  C   UNL     1      -2.743  10.029  15.810  0.00  0.00    +0.000 A 
ATOM     14  C   UNL     1      -1.892  10.127  16.927  0.00  0.00    +0.000 A 
ENDBRANCH   2   9
BRANCH   2  15
ATOM     15  C   UNL     1      -0.266   9.803  19.858  0.00  0.00    +0.000 A 
ATOM     16  C   UNL     1       0.822   9.474  19.024  0.00  0.00    +0.000 A 
ATOM     17  C   UNL     1       1.806   8.565  19.405  0.00  0.00    +0.000 A 
ATOM     18  C   UNL     1       1.736   7.974  20.662  0.00  0.00    +0.000 A 
ATOM     19  C   UNL     1       0.653   8.256  21.496  0.00  0.00    +0.000 A 
ATOM     20  C   UNL     1      -0.350   9.145  21.095  0.00  0.00    +0.000 A 
ENDBRANCH   2  15
BRANCH   1  22
ATOM     21  C   UNL     1      -0.582  14.428  18.584  0.00  0.00    +0.000 C 
ATOM     22  C   UNL     1       0.226  13.347  18.751  0.00  0.00    +0.000 C 
BRANCH  22  23
ATOM     23  C   UNL     1       1.706  13.644  19.079  0.00  0.00    +0.000 C 
ATOM     24  F   UNL     1       1.909  14.255  20.282  0.00  0.00    +0.000 F 
ATOM     25  F   UNL     1       2.456  12.499  19.145  0.00  0.00    +0.000 F 
ATOM     26  F   UNL     1       2.303  14.447  18.152  0.00  0.00    +0.000 F 
ENDBRANCH  22  23
BRANCH  21  27
ATOM     27  C   UNL     1      -0.424  15.861  18.971  0.00  0.00    +0.000 C 
ATOM     28  O   UNL     1      -0.183  16.738  18.149  0.00  0.00    +0.000 OA
BRANCH  27  29
ATOM     29  O   UNL     1      -0.708  16.077  20.275  0.00  0.00    +0.000 OA
BRANCH  29  31
ATOM     30  C   UNL     1       0.128  16.665  22.469  0.00  0.00    +0.000 C 
ATOM     31  C   UNL     1       0.118  17.004  20.990  0.00  0.00    +0.000 C 
ENDBRANCH  29  31
ENDBRANCH  27  29
ENDBRANCH  21  27
ENDBRANCH   1  22
TORSDOF 8
ENDMDL
MODEL 4
REMARK VINA RESULT:      -6.1      0.542      1.028
REMARK  Name = 
REMARK  9 active torsions:
REMARK  status: ('A' for Active; 'I' for Inactive)
REMARK    1  A    between atoms: C_1  and  C_2
REMARK    2  A    between atoms: C_2  and  O_3
REMARK    3  A    between atoms: O_3  and  C_4
REMARK    4  A    between atoms: C_4  and  C_6
REMARK    5  A    between atoms: C_7  and  N_8
REMARK    6  A    between atoms: C_7  and  C_28
REMARK    7  A    between atoms: P_9  and  C_10
REMARK    8  A    between atoms: P_9  and  C_16
REMARK    9  A    between atoms: P_9  and  C_22
REMARK                            x       y       z     vdW  Elec       q    Type
REMARK                         _______ _______ _______ _____ _____    ______ ____
ROOT
ATOM      1  N   UNL     1      -0.108  12.252  18.772  0.00  0.00    +0.000 NA
ATOM      2  P   UNL     1      -1.272  11.555  19.458  0.00  0.00    +0.000 P 
ENDROOT
BRANCH   2   3
ATOM      3  C   UNL     1      -1.563  12.534  20.871  0.00  0.00    +0.000 A 
ATOM      4  C   UNL     1      -2.754  13.253  21.030  0.00  0.00    +0.000 A 
ATOM      5  C   UNL     1      -3.008  13.942  22.217  0.00  0.00    +0.000 A 
ATOM      6  C   UNL     1      -2.097  13.895  23.271  0.00  0.00    +0.000 A 
ATOM      7  C   UNL     1      -0.912  13.180  23.140  0.00  0.00    +0.000 A 
ATOM      8  C   UNL     1      -0.655  12.508  21.950  0.00  0.00    +0.000 A 
ENDBRANCH   2   3
BRANCH   2   9
ATOM      9  C   UNL     1      -2.319  11.304  18.070  0.00  0.00    +0.000 A 
ATOM     10  C   UNL     1      -1.820  10.546  16.984  0.00  0.00    +0.000 A 
ATOM     11  C   UNL     1      -2.595  10.203  15.874  0.00  0.00    +0.000 A 
ATOM     12  C   UNL     1      -3.922  10.594  15.829  0.00  0.00    +0.000 A 
ATOM     13  C   UNL     1      -4.451  11.337  16.884  0.00  0.00    +0.000 A 
ATOM     14  C   UNL     1      -3.655  11.692  17.989  0.00  0.00    +0.000 A 
ENDBRANCH   2   9
BRANCH   2  15
ATOM     15  C   UNL     1      -0.423  10.055  19.901  0.00  0.00    +0.000 A 
ATOM     16  C   UNL     1       0.709   9.747  19.119  0.00  0.00    +0.000 A 
ATOM     17  C   UNL     1       1.648   8.795  19.510  0.00  0.00    +0.000 A 
ATOM     18  C   UNL     1       1.485   8.138  20.724  0.00  0.00    +0.000 A 
ATOM     19  C   UNL     1       0.357   8.399  21.503  0.00  0.00    +0.000 A 
ATOM     20  C   UNL     1      -0.601   9.332  21.091  0.00  0.00    +0.000 A 
ENDBRANCH   2  15
BRANCH   1  22
ATOM     21  C   UNL     1      -0.504  14.716  18.577  0.00  0.00    +0.000 C 
ATOM     22  C   UNL     1       0.216  13.599  18.871  0.00  0.00    +0.000 C 
BRANCH  22  23
ATOM     23  C   UNL     1       1.642  13.829  19.417  0.00  0.00    +0.000 C 
ATOM     24  F   UNL     1       2.328  12.688  19.713  0.00  0.00    +0.000 F 
ATOM     25  F   UNL     1       2.438  14.483  18.513  0.00  0.00    +0.000 F 
ATOM     26  F   UNL     1       1.658  14.575  20.558  0.00  0.00    +0.000 F 
ENDBRANCH  22  23
BRANCH  21  27
ATOM     27  C   UNL     1      -0.335  16.144  18.974  0.00  0.00    +0.000 C 
ATOM     28  O   UNL     1      -0.544  16.535  20.118  0.00  0.00    +0.000 OA
BRANCH  27  29
ATOM     29  O   UNL     1       0.195  16.895  17.983  0.00  0.00    +0.000 OA
BRANCH  29  31
ATOM     30  C   UNL     1       2.371  17.411  17.057  0.00  0.00    +0.000 C 
ATOM     31  C   UNL     1       1.437  17.559  18.245  0.00  0.00    +0.000 C 
ENDBRANCH  29  31
ENDBRANCH  27  29
ENDBRANCH  21  27
ENDBRANCH   1  22
TORSDOF 8
ENDMDL
MODEL 5
REMARK VINA RESULT:      -6.1      3.146      5.468
REMARK  Name = 
REMARK  9 active torsions:
REMARK  status: ('A' for Active; 'I' for Inactive)
REMARK    1  A    between atoms: C_1  and  C_2
REMARK    2  A    between atoms: C_2  and  O_3
REMARK    3  A    between atoms: O_3  and  C_4
REMARK    4  A    between atoms: C_4  and  C_6
REMARK    5  A    between atoms: C_7  and  N_8
REMARK    6  A    between atoms: C_7  and  C_28
REMARK    7  A    between atoms: P_9  and  C_10
REMARK    8  A    between atoms: P_9  and  C_16
REMARK    9  A    between atoms: P_9  and  C_22
REMARK                            x       y       z     vdW  Elec       q    Type
REMARK                         _______ _______ _______ _____ _____    ______ ____
ROOT
ATOM      1  N   UNL     1       0.837  11.058  21.072  0.00  0.00    +0.000 NA
ATOM      2  P   UNL     1       0.876  11.270  19.566  0.00  0.00    +0.000 P 
ENDROOT
BRANCH   2   3
ATOM      3  C   UNL     1      -0.799  11.169  19.093  0.00  0.00    +0.000 A 
ATOM      4  C   UNL     1      -1.589  12.316  18.952  0.00  0.00    +0.000 A 
ATOM      5  C   UNL     1      -2.895  12.217  18.468  0.00  0.00    +0.000 A 
ATOM      6  C   UNL     1      -3.416  10.982  18.087  0.00  0.00    +0.000 A 
ATOM      7  C   UNL     1      -2.647   9.830  18.210  0.00  0.00    +0.000 A 
ATOM      8  C   UNL     1      -1.353   9.930  18.707  0.00  0.00    +0.000 A 
ENDBRANCH   2   3
BRANCH   2   9
ATOM      9  C   UNL     1       1.948  12.660  19.497  0.00  0.00    +0.000 A 
ATOM     10  C   UNL     1       2.276  13.188  18.225  0.00  0.00    +0.000 A 
ATOM     11  C   UNL     1       3.038  14.345  18.054  0.00  0.00    +0.000 A 
ATOM     12  C   UNL     1       3.482  15.034  19.170  0.00  0.00    +0.000 A 
ATOM     13  C   UNL     1       3.173  14.547  20.440  0.00  0.00    +0.000 A 
ATOM     14  C   UNL     1       2.418  13.369  20.599  0.00  0.00    +0.000 A 
ENDBRANCH   2   9
BRANCH   2  15
ATOM     15  C   UNL     1       1.738   9.773  19.139  0.00  0.00    +0.000 A 
ATOM     16  C   UNL     1       1.708   8.757  20.116  0.00  0.00    +0.000 A 
ATOM     17  C   UNL     1       2.062   7.440  19.832  0.00  0.00    +0.000 A 
ATOM     18  C   UNL     1       2.435   7.099  18.537  0.00  0.00    +0.000 A 
ATOM     19  C   UNL     1       2.505   8.091  17.557  0.00  0.00    +0.000 A 
ATOM     20  C   UNL     1       2.180   9.419  17.854  0.00  0.00    +0.000 A 
ENDBRANCH   2  15
BRANCH   1  22
ATOM     21  C   UNL     1      -0.941  12.484  22.105  0.00  0.00    +0.000 C 
ATOM     22  C   UNL     1      -0.233  11.339  21.912  0.00  0.00    +0.000 C 
BRANCH  22  23
ATOM     23  C   UNL     1      -0.666  10.117  22.752  0.00  0.00    +0.000 C 
ATOM     24  F   UNL     1      -1.779  10.318  23.515  0.00  0.00    +0.000 F 
ATOM     25  F   UNL     1      -0.979   9.039  21.966  0.00  0.00    +0.000 F 
ATOM     26  F   UNL     1       0.303   9.699  23.616  0.00  0.00    +0.000 F 
ENDBRANCH  22  23
BRANCH  21  27
ATOM     27  C   UNL     1      -2.275  12.739  22.725  0.00  0.00    +0.000 C 
ATOM     28  O   UNL     1      -2.396  13.312  23.803  0.00  0.00    +0.000 OA
BRANCH  27  29
ATOM     29  O   UNL     1      -3.296  12.396  21.910  0.00  0.00    +0.000 OA
BRANCH  29  31
ATOM     30  C   UNL     1      -5.674  12.683  21.553  0.00  0.00    +0.000 C 
ATOM     31  C   UNL     1      -4.326  13.368  21.691  0.00  0.00    +0.000 C 
ENDBRANCH  29  31
ENDBRANCH  27  29
ENDBRANCH  21  27
ENDBRANCH   1  22
TORSDOF 8
ENDMDL
MODEL 6
REMARK VINA RESULT:      -6.1      3.012      5.870
REMARK  Name = 
REMARK  9 active torsions:
REMARK  status: ('A' for Active; 'I' for Inactive)
REMARK    1  A    between atoms: C_1  and  C_2
REMARK    2  A    between atoms: C_2  and  O_3
REMARK    3  A    between atoms: O_3  and  C_4
REMARK    4  A    between atoms: C_4  and  C_6
REMARK    5  A    between atoms: C_7  and  N_8
REMARK    6  A    between atoms: C_7  and  C_28
REMARK    7  A    between atoms: P_9  and  C_10
REMARK    8  A    between atoms: P_9  and  C_16
REMARK    9  A    between atoms: P_9  and  C_22
REMARK                            x       y       z     vdW  Elec       q    Type
REMARK                         _______ _______ _______ _____ _____    ______ ____
ROOT
ATOM      1  N   UNL     1      -1.148  10.663  20.360  0.00  0.00    +0.000 NA
ATOM      2  P   UNL     1      -1.346  12.106  19.925  0.00  0.00    +0.000 P 
ENDROOT
BRANCH   2   3
ATOM      3  C   UNL     1       0.280  12.697  19.709  0.00  0.00    +0.000 A 
ATOM      4  C   UNL     1       0.786  12.999  18.439  0.00  0.00    +0.000 A 
ATOM      5  C   UNL     1       2.052  13.573  18.303  0.00  0.00    +0.000 A 
ATOM      6  C   UNL     1       2.813  13.884  19.428  0.00  0.00    +0.000 A 
ATOM      7  C   UNL     1       2.327  13.602  20.700  0.00  0.00    +0.000 A 
ATOM      8  C   UNL     1       1.073  13.016  20.832  0.00  0.00    +0.000 A 
ENDBRANCH   2   3
BRANCH   2   9
ATOM      9  C   UNL     1      -2.593  11.875  18.709  0.00  0.00    +0.000 A 
ATOM     10  C   UNL     1      -2.198  11.449  17.418  0.00  0.00    +0.000 A 
ATOM     11  C   UNL     1      -3.108  11.141  16.405  0.00  0.00    +0.000 A 
ATOM     12  C   UNL     1      -4.465  11.228  16.666  0.00  0.00    +0.000 A 
ATOM     13  C   UNL     1      -4.892  11.639  17.929  0.00  0.00    +0.000 A 
ATOM     14  C   UNL     1      -3.964  11.964  18.937  0.00  0.00    +0.000 A 
ENDBRANCH   2   9
BRANCH   2  15
ATOM     15  C   UNL     1      -2.038  12.719  21.445  0.00  0.00    +0.000 A 
ATOM     16  C   UNL     1      -2.603  14.009  21.377  0.00  0.00    +0.000 A 
ATOM     17  C   UNL     1      -3.440  14.510  22.371  0.00  0.00    +0.000 A 
ATOM     18  C   UNL     1      -3.757  13.708  23.461  0.00  0.00    +0.000 A 
ATOM     19  C   UNL     1      -3.186  12.439  23.571  0.00  0.00    +0.000 A 
ATOM     20  C   UNL     1      -2.319  11.952  22.587  0.00  0.00    +0.000 A 
ENDBRANCH   2  15
BRANCH   1  22
ATOM     21  C   UNL     1       0.472   9.473  18.868  0.00  0.00    +0.000 C 
ATOM     22  C   UNL     1      -0.055   9.858  20.061  0.00  0.00    +0.000 C 
BRANCH  22  23
ATOM     23  C   UNL     1       0.661   9.336  21.326  0.00  0.00    +0.000 C 
ATOM     24  F   UNL     1       1.975   9.692  21.423  0.00  0.00    +0.000 F 
ATOM     25  F   UNL     1       0.090   9.817  22.475  0.00  0.00    +0.000 F 
ATOM     26  F   UNL     1       0.640   7.975  21.422  0.00  0.00    +0.000 F 
ENDBRANCH  22  23
BRANCH  21  27
ATOM     27  C   UNL     1       1.804   8.907  18.503  0.00  0.00    +0.000 C 
ATOM     28  O   UNL     1       2.686   9.589  17.992  0.00  0.00    +0.000 OA
BRANCH  27  29
ATOM     29  O   UNL     1       1.954   7.630  18.920  0.00  0.00    +0.000 OA
BRANCH  29  31
ATOM     30  C   UNL     1       2.372   5.377  18.140  0.00  0.00    +0.000 C 
ATOM     31  C   UNL     1       2.884   6.805  18.209  0.00  0.00    +0.000 C 
ENDBRANCH  29  31
ENDBRANCH  27  29
ENDBRANCH  21  27
ENDBRANCH   1  22
TORSDOF 8
ENDMDL
MODEL 7
REMARK VINA RESULT:      -6.1      0.768      1.605
REMARK  Name = 
REMARK  9 active torsions:
REMARK  status: ('A' for Active; 'I' for Inactive)
REMARK    1  A    between atoms: C_1  and  C_2
REMARK    2  A    between atoms: C_2  and  O_3
REMARK    3  A    between atoms: O_3  and  C_4
REMARK    4  A    between atoms: C_4  and  C_6
REMARK    5  A    between atoms: C_7  and  N_8
REMARK    6  A    between atoms: C_7  and  C_28
REMARK    7  A    between atoms: P_9  and  C_10
REMARK    8  A    between atoms: P_9  and  C_16
REMARK    9  A    between atoms: P_9  and  C_22
REMARK                            x       y       z     vdW  Elec       q    Type
REMARK                         _______ _______ _______ _____ _____    ______ ____
ROOT
ATOM      1  N   UNL     1      -0.069  12.151  18.739  0.00  0.00    +0.000 NA
ATOM      2  P   UNL     1      -1.239  11.460  19.423  0.00  0.00    +0.000 P 
ENDROOT
BRANCH   2   3
ATOM      3  C   UNL     1      -1.549  12.462  20.816  0.00  0.00    +0.000 A 
ATOM      4  C   UNL     1      -2.767  13.134  20.977  0.00  0.00    +0.000 A 
ATOM      5  C   UNL     1      -3.032  13.841  22.151  0.00  0.00    +0.000 A 
ATOM      6  C   UNL     1      -2.105  13.858  23.192  0.00  0.00    +0.000 A 
ATOM      7  C   UNL     1      -0.892  13.191  23.058  0.00  0.00    +0.000 A 
ATOM      8  C   UNL     1      -0.625  12.501  21.881  0.00  0.00    +0.000 A 
ENDBRANCH   2   3
BRANCH   2   9
ATOM      9  C   UNL     1      -2.269  11.183  18.028  0.00  0.00    +0.000 A 
ATOM     10  C   UNL     1      -1.817  10.284  17.031  0.00  0.00    +0.000 A 
ATOM     11  C   UNL     1      -2.592   9.915  15.930  0.00  0.00    +0.000 A 
ATOM     12  C   UNL     1      -3.874  10.423  15.804  0.00  0.00    +0.000 A 
ATOM     13  C   UNL     1      -4.356  11.307  16.770  0.00  0.00    +0.000 A 
ATOM     14  C   UNL     1      -3.558  11.686  17.866  0.00  0.00    +0.000 A 
ENDBRANCH   2   9
BRANCH   2  15
ATOM     15  C   UNL     1      -0.389   9.971  19.900  0.00  0.00    +0.000 A 
ATOM     16  C   UNL     1       0.758   9.659  19.141  0.00  0.00    +0.000 A 
ATOM     17  C   UNL     1       1.694   8.718  19.560  0.00  0.00    +0.000 A 
ATOM     18  C   UNL     1       1.516   8.076  20.781  0.00  0.00    +0.000 A 
ATOM     19  C   UNL     1       0.374   8.342  21.537  0.00  0.00    +0.000 A 
ATOM     20  C   UNL     1      -0.582   9.265  21.097  0.00  0.00    +0.000 A 
ENDBRANCH   2  15
BRANCH   1  22
ATOM     21  C   UNL     1      -0.499  14.611  18.576  0.00  0.00    +0.000 C 
ATOM     22  C   UNL     1       0.248  13.501  18.820  0.00  0.00    +0.000 C 
BRANCH  22  23
ATOM     23  C   UNL     1       1.705  13.743  19.272  0.00  0.00    +0.000 C 
ATOM     24  F   UNL     1       1.830  14.298  20.513  0.00  0.00    +0.000 F 
ATOM     25  F   UNL     1       2.421  12.577  19.344  0.00  0.00    +0.000 F 
ATOM     26  F   UNL     1       2.390  14.569  18.429  0.00  0.00    +0.000 F 
ENDBRANCH  22  23
BRANCH  21  27
ATOM     27  C   UNL     1      -0.317  16.041  18.963  0.00  0.00    +0.000 C 
ATOM     28  O   UNL     1      -0.021  16.907  18.148  0.00  0.00    +0.000 OA
BRANCH  27  29
ATOM     29  O   UNL     1      -0.647  16.271  20.254  0.00  0.00    +0.000 OA
BRANCH  29  31
ATOM     30  C   UNL     1      -2.928  17.084  20.277  0.00  0.00    +0.000 C 
ATOM     31  C   UNL     1      -1.468  17.412  20.535  0.00  0.00    +0.000 C 
ENDBRANCH  29  31
ENDBRANCH  27  29
ENDBRANCH  21  27
ENDBRANCH   1  22
TORSDOF 8
ENDMDL
MODEL 8
REMARK VINA RESULT:      -6.1      2.609      5.508
REMARK  Name = 
REMARK  9 active torsions:
REMARK  status: ('A' for Active; 'I' for Inactive)
REMARK    1  A    between atoms: C_1  and  C_2
REMARK    2  A    between atoms: C_2  and  O_3
REMARK    3  A    between atoms: O_3  and  C_4
REMARK    4  A    between atoms: C_4  and  C_6
REMARK    5  A    between atoms: C_7  and  N_8
REMARK    6  A    between atoms: C_7  and  C_28
REMARK    7  A    between atoms: P_9  and  C_10
REMARK    8  A    between atoms: P_9  and  C_16
REMARK    9  A    between atoms: P_9  and  C_22
REMARK                            x       y       z     vdW  Elec       q    Type
REMARK                         _______ _______ _______ _____ _____    ______ ____
ROOT
ATOM      1  N   UNL     1      -1.562  11.166  20.618  0.00  0.00    +0.000 NA
ATOM      2  P   UNL     1      -1.995  12.603  20.375  0.00  0.00    +0.000 P 
ENDROOT
BRANCH   2   3
ATOM      3  C   UNL     1      -0.500  13.429  20.028  0.00  0.00    +0.000 A 
ATOM      4  C   UNL     1      -0.232  13.952  18.757  0.00  0.00    +0.000 A 
ATOM      5  C   UNL     1       0.924  14.703  18.533  0.00  0.00    +0.000 A 
ATOM      6  C   UNL     1       1.807  14.971  19.577  0.00  0.00    +0.000 A 
ATOM      7  C   UNL     1       1.556  14.470  20.850  0.00  0.00    +0.000 A 
ATOM      8  C   UNL     1       0.413  13.710  21.066  0.00  0.00    +0.000 A 
ENDBRANCH   2   3
BRANCH   2   9
ATOM      9  C   UNL     1      -3.359  12.318  19.305  0.00  0.00    +0.000 A 
ATOM     10  C   UNL     1      -3.104  11.749  18.035  0.00  0.00    +0.000 A 
ATOM     11  C   UNL     1      -4.118  11.391  17.143  0.00  0.00    +0.000 A 
ATOM     12  C   UNL     1      -5.440  11.572  17.513  0.00  0.00    +0.000 A 
ATOM     13  C   UNL     1      -5.729  12.125  18.761  0.00  0.00    +0.000 A 
ATOM     14  C   UNL     1      -4.698  12.499  19.644  0.00  0.00    +0.000 A 
ENDBRANCH   2   9
BRANCH   2  15
ATOM     15  C   UNL     1      -2.542  12.968  22.029  0.00  0.00    +0.000 A 
ATOM     16  C   UNL     1      -2.965  14.296  22.247  0.00  0.00    +0.000 A 
ATOM     17  C   UNL     1      -3.694  14.670  23.373  0.00  0.00    +0.000 A 
ATOM     18  C   UNL     1      -4.044  13.703  24.309  0.00  0.00    +0.000 A 
ATOM     19  C   UNL     1      -3.611  12.388  24.136  0.00  0.00    +0.000 A 
ATOM     20  C   UNL     1      -2.851  12.023  23.019  0.00  0.00    +0.000 A 
ENDBRANCH   2  15
BRANCH   1  22
ATOM     21  C   UNL     1      -0.030  10.352  18.814  0.00  0.00    +0.000 C 
ATOM     22  C   UNL     1      -0.430  10.551  20.099  0.00  0.00    +0.000 C 
BRANCH  22  23
ATOM     23  C   UNL     1       0.515  10.020  21.199  0.00  0.00    +0.000 C 
ATOM     24  F   UNL     1       0.899   8.720  21.040  0.00  0.00    +0.000 F 
ATOM     25  F   UNL     1       1.691  10.721  21.248  0.00  0.00    +0.000 F 
ATOM     26  F   UNL     1      -0.032  10.092  22.447  0.00  0.00    +0.000 F 
ENDBRANCH  22  23
BRANCH  21  27
ATOM     27  C   UNL     1       1.298  10.012  18.224  0.00  0.00    +0.000 C 
ATOM     28  O   UNL     1       2.218  10.822  18.174  0.00  0.00    +0.000 OA
BRANCH  27  29
ATOM     29  O   UNL     1       1.397   8.705  17.895  0.00  0.00    +0.000 OA
BRANCH  29  31
ATOM     30  C   UNL     1       2.713   6.880  18.787  0.00  0.00    +0.000 C 
ATOM     31  C   UNL     1       2.702   8.115  17.905  0.00  0.00    +0.000 C 
ENDBRANCH  29  31
ENDBRANCH  27  29
ENDBRANCH  21  27
ENDBRANCH   1  22
TORSDOF 8
ENDMDL
MODEL 9
REMARK VINA RESULT:      -6.1      2.655      5.600
REMARK  Name = 
REMARK  9 active torsions:
REMARK  status: ('A' for Active; 'I' for Inactive)
REMARK    1  A    between atoms: C_1  and  C_2
REMARK    2  A    between atoms: C_2  and  O_3
REMARK    3  A    between atoms: O_3  and  C_4
REMARK    4  A    between atoms: C_4  and  C_6
REMARK    5  A    between atoms: C_7  and  N_8
REMARK    6  A    between atoms: C_7  and  C_28
REMARK    7  A    between atoms: P_9  and  C_10
REMARK    8  A    between atoms: P_9  and  C_16
REMARK    9  A    between atoms: P_9  and  C_22
REMARK                            x       y       z     vdW  Elec       q    Type
REMARK                         _______ _______ _______ _____ _____    ______ ____
ROOT
ATOM      1  N   UNL     1      -1.504  11.109  20.569  0.00  0.00    +0.000 NA
ATOM      2  P   UNL     1      -1.947  12.540  20.305  0.00  0.00    +0.000 P 
ENDROOT
BRANCH   2   3
ATOM      3  C   UNL     1      -0.457  13.372  19.951  0.00  0.00    +0.000 A 
ATOM      4  C   UNL     1       0.454  13.704  20.961  0.00  0.00    +0.000 A 
ATOM      5  C   UNL     1       1.688  14.273  20.639  0.00  0.00    +0.000 A 
ATOM      6  C   UNL     1       2.043  14.485  19.309  0.00  0.00    +0.000 A 
ATOM      7  C   UNL     1       1.159  14.155  18.288  0.00  0.00    +0.000 A 
ATOM      8  C   UNL     1      -0.075  13.604  18.613  0.00  0.00    +0.000 A 
ENDBRANCH   2   3
BRANCH   2   9
ATOM      9  C   UNL     1      -3.305  12.231  19.235  0.00  0.00    +0.000 A 
ATOM     10  C   UNL     1      -3.039  11.682  17.958  0.00  0.00    +0.000 A 
ATOM     11  C   UNL     1      -4.045  11.307  17.065  0.00  0.00    +0.000 A 
ATOM     12  C   UNL     1      -5.370  11.450  17.440  0.00  0.00    +0.000 A 
ATOM     13  C   UNL     1      -5.671  11.982  18.693  0.00  0.00    +0.000 A 
ATOM     14  C   UNL     1      -4.648  12.373  19.578  0.00  0.00    +0.000 A 
ENDBRANCH   2   9
BRANCH   2  15
ATOM     15  C   UNL     1      -2.501  12.924  21.952  0.00  0.00    +0.000 A 
ATOM     16  C   UNL     1      -2.974  14.239  22.140  0.00  0.00    +0.000 A 
ATOM     17  C   UNL     1      -3.712  14.612  23.261  0.00  0.00    +0.000 A 
ATOM     18  C   UNL     1      -4.022  13.656  24.221  0.00  0.00    +0.000 A 
ATOM     19  C   UNL     1      -3.540  12.354  24.076  0.00  0.00    +0.000 A 
ATOM     20  C   UNL     1      -2.771  11.991  22.965  0.00  0.00    +0.000 A 
ENDBRANCH   2  15
BRANCH   1  22
ATOM     21  C   UNL     1       0.006  10.218  18.782  0.00  0.00    +0.000 C 
ATOM     22  C   UNL     1      -0.366  10.496  20.061  0.00  0.00    +0.000 C 
BRANCH  22  23
ATOM     23  C   UNL     1       0.626  10.076  21.168  0.00  0.00    +0.000 C 
ATOM     24  F   UNL     1       0.120  10.128  22.434  0.00  0.00    +0.000 F 
ATOM     25  F   UNL     1       1.044   8.780  21.018  0.00  0.00    +0.000 F 
ATOM     26  F   UNL     1       1.752  10.847  21.189  0.00  0.00    +0.000 F 
ENDBRANCH  22  23
BRANCH  21  27
ATOM     27  C   UNL     1       1.328   9.880  18.179  0.00  0.00    +0.000 C 
ATOM     28  O   UNL     1       2.239  10.697  18.100  0.00  0.00    +0.000 OA
BRANCH  27  29
ATOM     29  O   UNL     1       1.434   8.568  17.873  0.00  0.00    +0.000 OA
BRANCH  29  31
ATOM     30  C   UNL     1       2.597   6.518  18.428  0.00  0.00    +0.000 C 
ATOM     31  C   UNL     1       2.729   7.964  17.984  0.00  0.00    +0.000 C 
ENDBRANCH  29  31
ENDBRANCH  27  29
ENDBRANCH  21  27
ENDBRANCH   1  22
TORSDOF 8
ENDMDL
