MODEL 1
REMARK VINA RESULT:      -7.7      0.000      0.000
REMARK  Name = 
REMARK  6 active torsions:
REMARK  status: ('A' for Active; 'I' for Inactive)
REMARK    1  A    between atoms: C_2  and  C_3
REMARK    2  A    between atoms: C_2  and  C_21
REMARK    3  A    between atoms: C_3  and  S_4
REMARK    4  A    between atoms: S_4  and  C_5
REMARK    5  A    between atoms: C_8  and  C_9
REMARK    6  A    between atoms: N_15  and  C_16
REMARK                            x       y       z     vdW  Elec       q    Type
REMARK                         _______ _______ _______ _____ _____    ______ ____
ROOT
ATOM      1  C   UNL     1       2.026   7.343  19.490  0.00  0.00    +0.000 A 
ATOM      2  N   UNL     1       2.461   7.478  18.260  0.00  0.00    +0.000 NA
ATOM      3  N   UNL     1       2.137   8.744  17.846  0.00  0.00    +0.000 NA
ATOM      4  C   UNL     1       1.476   9.361  18.813  0.00  0.00    +0.000 A 
ATOM      5  N   UNL     1       1.395   8.503  19.920  0.00  0.00    +0.000 N 
ENDROOT
BRANCH   4   6
ATOM      6  C   UNL     1       0.903  10.711  18.695  0.00  0.00    +0.000 A 
ATOM      7  C   UNL     1      -0.479  10.893  18.585  0.00  0.00    +0.000 A 
ATOM      8  C   UNL     1      -1.006  12.173  18.397  0.00  0.00    +0.000 A 
ATOM      9  C   UNL     1      -0.132  13.246  18.341  0.00  0.00    +0.000 A 
ATOM     10  N   UNL     1       1.199  13.128  18.515  0.00  0.00    +0.000 NA
ATOM     11  C   UNL     1       1.675  11.872  18.706  0.00  0.00    +0.000 A 
ENDBRANCH   4   6
BRANCH   5  12
ATOM     12  C   UNL     1       0.818   8.795  21.169  0.00  0.00    +0.000 A 
ATOM     13  C   UNL     1      -0.488   8.576  21.578  0.00  0.00    +0.000 A 
ATOM     14  C   UNL     1      -0.613   9.095  22.891  0.00  0.00    +0.000 A 
ATOM     15  C   UNL     1       0.623   9.586  23.223  0.00  0.00    +0.000 A 
ATOM     16  O   UNL     1       1.488   9.411  22.196  0.00  0.00    +0.000 OA
ENDBRANCH   5  12
BRANCH   1  17
ATOM     17  S   UNL     1       2.389   6.002  20.526  0.00  0.00    +0.000 S 
BRANCH  17  18
ATOM     18  C   UNL     1       1.851   4.563  19.566  0.00  0.00    +0.000 C 
BRANCH  18  20
ATOM     19  O   UNL     1       3.103   2.512  19.975  0.00  0.00    +0.000 OA
ATOM     20  C   UNL     1       3.017   3.593  19.389  0.00  0.00    +0.000 C 
BRANCH  20  21
ATOM     21  C   UNL     1       4.109   3.934  18.420  0.00  0.00    +0.000 A 
ATOM     22  C   UNL     1       3.846   3.799  17.049  0.00  0.00    +0.000 A 
ATOM     23  C   UNL     1       4.824   4.106  16.097  0.00  0.00    +0.000 A 
ATOM     24  C   UNL     1       6.080   4.550  16.510  0.00  0.00    +0.000 A 
ATOM     25 CL   UNL     1       7.250   4.906  15.290  0.00  0.00    +0.000 Cl
ATOM     26  C   UNL     1       6.350   4.692  17.876  0.00  0.00    +0.000 A 
ATOM     27 CL   UNL     1       7.885   5.233  18.461  0.00  0.00    +0.000 Cl
ATOM     28  C   UNL     1       5.366   4.390  18.829  0.00  0.00    +0.000 A 
ENDBRANCH  20  21
ENDBRANCH  18  20
ENDBRANCH  17  18
ENDBRANCH   1  17
TORSDOF 6
ENDMDL
MODEL 2
REMARK VINA RESULT:      -7.5      0.730      1.151
REMARK  Name = 
REMARK  6 active torsions:
REMARK  status: ('A' for Active; 'I' for Inactive)
REMARK    1  A    between atoms: C_2  and  C_3
REMARK    2  A    between atoms: C_2  and  C_21
REMARK    3  A    between atoms: C_3  and  S_4
REMARK    4  A    between atoms: S_4  and  C_5
REMARK    5  A    between atoms: C_8  and  C_9
REMARK    6  A    between atoms: N_15  and  C_16
REMARK                            x       y       z     vdW  Elec       q    Type
REMARK                         _______ _______ _______ _____ _____    ______ ____
ROOT
ATOM      1  C   UNL     1       2.038   7.347  19.337  0.00  0.00    +0.000 A 
ATOM      2  N   UNL     1       2.478   7.468  18.107  0.00  0.00    +0.000 NA
ATOM      3  N   UNL     1       2.172   8.736  17.684  0.00  0.00    +0.000 NA
ATOM      4  C   UNL     1       1.517   9.367  18.645  0.00  0.00    +0.000 A 
ATOM      5  N   UNL     1       1.421   8.519  19.758  0.00  0.00    +0.000 N 
ENDROOT
BRANCH   4   6
ATOM      6  C   UNL     1       0.962  10.724  18.517  0.00  0.00    +0.000 A 
ATOM      7  C   UNL     1       1.798  11.845  18.551  0.00  0.00    +0.000 A 
ATOM      8  C   UNL     1       1.252  13.130  18.504  0.00  0.00    +0.000 A 
ATOM      9  C   UNL     1      -0.124  13.260  18.407  0.00  0.00    +0.000 A 
ATOM     10  N   UNL     1      -0.962  12.212  18.297  0.00  0.00    +0.000 NA
ATOM     11  C   UNL     1      -0.397  10.979  18.336  0.00  0.00    +0.000 A 
ENDBRANCH   4   6
BRANCH   5  12
ATOM     12  C   UNL     1       0.846   8.826  21.003  0.00  0.00    +0.000 A 
ATOM     13  C   UNL     1       1.482   9.283  22.148  0.00  0.00    +0.000 A 
ATOM     14  C   UNL     1       0.501   9.383  23.165  0.00  0.00    +0.000 A 
ATOM     15  C   UNL     1      -0.682   9.000  22.590  0.00  0.00    +0.000 A 
ATOM     16  O   UNL     1      -0.485   8.665  21.293  0.00  0.00    +0.000 OA
ENDBRANCH   5  12
BRANCH   1  17
ATOM     17  S   UNL     1       2.380   6.008  20.383  0.00  0.00    +0.000 S 
BRANCH  17  18
ATOM     18  C   UNL     1       1.806   4.572  19.440  0.00  0.00    +0.000 C 
BRANCH  18  20
ATOM     19  O   UNL     1       3.008   2.481  19.786  0.00  0.00    +0.000 OA
ATOM     20  C   UNL     1       2.956   3.586  19.245  0.00  0.00    +0.000 C 
BRANCH  20  21
ATOM     21  C   UNL     1       4.074   3.946  18.313  0.00  0.00    +0.000 A 
ATOM     22  C   UNL     1       3.851   3.832  16.933  0.00  0.00    +0.000 A 
ATOM     23  C   UNL     1       4.855   4.157  16.014  0.00  0.00    +0.000 A 
ATOM     24  C   UNL     1       6.097   4.598  16.471  0.00  0.00    +0.000 A 
ATOM     25 CL   UNL     1       7.300   4.976  15.291  0.00  0.00    +0.000 Cl
ATOM     26  C   UNL     1       6.328   4.718  17.846  0.00  0.00    +0.000 A 
ATOM     27 CL   UNL     1       7.843   5.254  18.483  0.00  0.00    +0.000 Cl
ATOM     28  C   UNL     1       5.318   4.398  18.766  0.00  0.00    +0.000 A 
ENDBRANCH  20  21
ENDBRANCH  18  20
ENDBRANCH  17  18
ENDBRANCH   1  17
TORSDOF 6
ENDMDL
MODEL 3
REMARK VINA RESULT:      -7.5      4.238      8.298
REMARK  Name = 
REMARK  6 active torsions:
REMARK  status: ('A' for Active; 'I' for Inactive)
REMARK    1  A    between atoms: C_2  and  C_3
REMARK    2  A    between atoms: C_2  and  C_21
REMARK    3  A    between atoms: C_3  and  S_4
REMARK    4  A    between atoms: S_4  and  C_5
REMARK    5  A    between atoms: C_8  and  C_9
REMARK    6  A    between atoms: N_15  and  C_16
REMARK                            x       y       z     vdW  Elec       q    Type
REMARK                         _______ _______ _______ _____ _____    ______ ____
ROOT
ATOM      1  C   UNL     1       4.265   4.762  17.979  0.00  0.00    +0.000 A 
ATOM      2  N   UNL     1       3.561   3.839  17.367  0.00  0.00    +0.000 NA
ATOM      3  N   UNL     1       4.147   3.616  16.148  0.00  0.00    +0.000 NA
ATOM      4  C   UNL     1       5.183   4.428  16.010  0.00  0.00    +0.000 A 
ATOM      5  N   UNL     1       5.323   5.183  17.184  0.00  0.00    +0.000 N 
ENDROOT
BRANCH   4   6
ATOM      6  C   UNL     1       6.005   4.523  14.793  0.00  0.00    +0.000 A 
ATOM      7  C   UNL     1       5.651   3.826  13.635  0.00  0.00    +0.000 A 
ATOM      8  C   UNL     1       6.481   3.863  12.511  0.00  0.00    +0.000 A 
ATOM      9  C   UNL     1       7.641   4.617  12.571  0.00  0.00    +0.000 A 
ATOM     10  N   UNL     1       7.986   5.364  13.638  0.00  0.00    +0.000 NA
ATOM     11  C   UNL     1       7.152   5.312  14.708  0.00  0.00    +0.000 A 
ENDBRANCH   4   6
BRANCH   5  12
ATOM     12  C   UNL     1       6.330   6.124  17.464  0.00  0.00    +0.000 A 
ATOM     13  C   UNL     1       7.424   5.979  18.303  0.00  0.00    +0.000 A 
ATOM     14  C   UNL     1       8.114   7.216  18.316  0.00  0.00    +0.000 A 
ATOM     15  C   UNL     1       7.419   8.046  17.475  0.00  0.00    +0.000 A 
ATOM     16  O   UNL     1       6.348   7.400  16.959  0.00  0.00    +0.000 OA
ENDBRANCH   5  12
BRANCH   1  17
ATOM     17  S   UNL     1       4.058   5.227  19.636  0.00  0.00    +0.000 S 
BRANCH  17  18
ATOM     18  C   UNL     1       2.368   5.876  19.690  0.00  0.00    +0.000 C 
BRANCH  18  20
ATOM     19  O   UNL     1       2.921   7.700  18.172  0.00  0.00    +0.000 OA
ATOM     20  C   UNL     1       2.352   7.321  19.197  0.00  0.00    +0.000 C 
BRANCH  20  21
ATOM     21  C   UNL     1       1.570   8.345  19.965  0.00  0.00    +0.000 A 
ATOM     22  C   UNL     1       1.289   8.089  21.315  0.00  0.00    +0.000 A 
ATOM     23  C   UNL     1       0.567   9.007  22.084  0.00  0.00    +0.000 A 
ATOM     24  C   UNL     1       0.116  10.194  21.506  0.00  0.00    +0.000 A 
ATOM     25 CL   UNL     1      -0.777  11.286  22.502  0.00  0.00    +0.000 Cl
ATOM     26  C   UNL     1       0.395  10.460  20.161  0.00  0.00    +0.000 A 
ATOM     27 CL   UNL     1      -0.136  11.907  19.377  0.00  0.00    +0.000 Cl
ATOM     28  C   UNL     1       1.125   9.540  19.392  0.00  0.00    +0.000 A 
ENDBRANCH  20  21
ENDBRANCH  18  20
ENDBRANCH  17  18
ENDBRANCH   1  17
TORSDOF 6
ENDMDL
MODEL 4
REMARK VINA RESULT:      -7.5      3.643      7.934
REMARK  Name = 
REMARK  6 active torsions:
REMARK  status: ('A' for Active; 'I' for Inactive)
REMARK    1  A    between atoms: C_2  and  C_3
REMARK    2  A    between atoms: C_2  and  C_21
REMARK    3  A    between atoms: C_3  and  S_4
REMARK    4  A    between atoms: S_4  and  C_5
REMARK    5  A    between atoms: C_8  and  C_9
REMARK    6  A    between atoms: N_15  and  C_16
REMARK                            x       y       z     vdW  Elec       q    Type
REMARK                         _______ _______ _______ _____ _____    ______ ____
ROOT
ATOM      1  C   UNL     1       2.682   6.714  19.089  0.00  0.00    +0.000 A 
ATOM      2  N   UNL     1       2.835   7.846  18.445  0.00  0.00    +0.000 NA
ATOM      3  N   UNL     1       3.712   7.619  17.415  0.00  0.00    +0.000 NA
ATOM      4  C   UNL     1       4.113   6.359  17.460  0.00  0.00    +0.000 A 
ATOM      5  N   UNL     1       3.456   5.713  18.517  0.00  0.00    +0.000 N 
ENDROOT
BRANCH   4   6
ATOM      6  C   UNL     1       5.117   5.776  16.554  0.00  0.00    +0.000 A 
ATOM      7  C   UNL     1       4.777   4.736  15.684  0.00  0.00    +0.000 A 
ATOM      8  C   UNL     1       5.756   4.140  14.885  0.00  0.00    +0.000 A 
ATOM      9  C   UNL     1       7.054   4.617  14.965  0.00  0.00    +0.000 A 
ATOM     10  N   UNL     1       7.414   5.664  15.733  0.00  0.00    +0.000 NA
ATOM     11  C   UNL     1       6.436   6.224  16.488  0.00  0.00    +0.000 A 
ENDBRANCH   4   6
BRANCH   5  12
ATOM     12  C   UNL     1       3.563   4.357  18.872  0.00  0.00    +0.000 A 
ATOM     13  C   UNL     1       2.681   3.326  18.584  0.00  0.00    +0.000 A 
ATOM     14  C   UNL     1       3.180   2.156  19.207  0.00  0.00    +0.000 A 
ATOM     15  C   UNL     1       4.345   2.524  19.828  0.00  0.00    +0.000 A 
ATOM     16  O   UNL     1       4.583   3.843  19.633  0.00  0.00    +0.000 OA
ENDBRANCH   5  12
BRANCH   1  17
ATOM     17  S   UNL     1       1.504   6.434  20.329  0.00  0.00    +0.000 S 
BRANCH  17  18
ATOM     18  C   UNL     1       1.537   7.961  21.303  0.00  0.00    +0.000 C 
BRANCH  18  20
ATOM     19  O   UNL     1      -0.834   8.182  21.820  0.00  0.00    +0.000 OA
ATOM     20  C   UNL     1       0.167   8.633  21.261  0.00  0.00    +0.000 C 
BRANCH  20  21
ATOM     21  C   UNL     1       0.018   9.939  20.538  0.00  0.00    +0.000 A 
ATOM     22  C   UNL     1       0.756  11.040  20.998  0.00  0.00    +0.000 A 
ATOM     23  C   UNL     1       0.660  12.283  20.363  0.00  0.00    +0.000 A 
ATOM     24  C   UNL     1      -0.179  12.436  19.260  0.00  0.00    +0.000 A 
ATOM     25 CL   UNL     1      -0.262  13.996  18.522  0.00  0.00    +0.000 Cl
ATOM     26  C   UNL     1      -0.917  11.343  18.793  0.00  0.00    +0.000 A 
ATOM     27 CL   UNL     1      -1.981  11.461  17.435  0.00  0.00    +0.000 Cl
ATOM     28  C   UNL     1      -0.816  10.095  19.426  0.00  0.00    +0.000 A 
ENDBRANCH  20  21
ENDBRANCH  18  20
ENDBRANCH  17  18
ENDBRANCH   1  17
TORSDOF 6
ENDMDL
MODEL 5
REMARK VINA RESULT:      -7.4      3.527      7.819
REMARK  Name = 
REMARK  6 active torsions:
REMARK  status: ('A' for Active; 'I' for Inactive)
REMARK    1  A    between atoms: C_2  and  C_3
REMARK    2  A    between atoms: C_2  and  C_21
REMARK    3  A    between atoms: C_3  and  S_4
REMARK    4  A    between atoms: S_4  and  C_5
REMARK    5  A    between atoms: C_8  and  C_9
REMARK    6  A    between atoms: N_15  and  C_16
REMARK                            x       y       z     vdW  Elec       q    Type
REMARK                         _______ _______ _______ _____ _____    ______ ____
ROOT
ATOM      1  C   UNL     1       2.723   6.642  19.085  0.00  0.00    +0.000 A 
ATOM      2  N   UNL     1       2.857   7.781  18.448  0.00  0.00    +0.000 NA
ATOM      3  N   UNL     1       3.723   7.570  17.406  0.00  0.00    +0.000 NA
ATOM      4  C   UNL     1       4.138   6.314  17.435  0.00  0.00    +0.000 A 
ATOM      5  N   UNL     1       3.500   5.653  18.496  0.00  0.00    +0.000 N 
ENDROOT
BRANCH   4   6
ATOM      6  C   UNL     1       5.137   5.749  16.514  0.00  0.00    +0.000 A 
ATOM      7  C   UNL     1       4.775   4.776  15.577  0.00  0.00    +0.000 A 
ATOM      8  C   UNL     1       5.746   4.192  14.760  0.00  0.00    +0.000 A 
ATOM      9  C   UNL     1       7.060   4.613  14.890  0.00  0.00    +0.000 A 
ATOM     10  N   UNL     1       7.443   5.598  15.725  0.00  0.00    +0.000 NA
ATOM     11  C   UNL     1       6.472   6.150  16.496  0.00  0.00    +0.000 A 
ENDBRANCH   4   6
BRANCH   5  12
ATOM     12  C   UNL     1       3.626   4.296  18.838  0.00  0.00    +0.000 A 
ATOM     13  C   UNL     1       2.844   3.232  18.414  0.00  0.00    +0.000 A 
ATOM     14  C   UNL     1       3.310   2.072  19.080  0.00  0.00    +0.000 A 
ATOM     15  C   UNL     1       4.359   2.479  19.862  0.00  0.00    +0.000 A 
ATOM     16  O   UNL     1       4.556   3.812  19.723  0.00  0.00    +0.000 OA
ENDBRANCH   5  12
BRANCH   1  17
ATOM     17  S   UNL     1       1.564   6.341  20.337  0.00  0.00    +0.000 S 
BRANCH  17  18
ATOM     18  C   UNL     1       1.578   7.868  21.311  0.00  0.00    +0.000 C 
BRANCH  18  20
ATOM     19  O   UNL     1      -0.824   8.093  21.654  0.00  0.00    +0.000 OA
ATOM     20  C   UNL     1       0.223   8.563  21.205  0.00  0.00    +0.000 C 
BRANCH  20  21
ATOM     21  C   UNL     1       0.145   9.915  20.560  0.00  0.00    +0.000 A 
ATOM     22  C   UNL     1      -0.799  10.110  19.540  0.00  0.00    +0.000 A 
ATOM     23  C   UNL     1      -0.920  11.350  18.904  0.00  0.00    +0.000 A 
ATOM     24  C   UNL     1      -0.094  12.408  19.281  0.00  0.00    +0.000 A 
ATOM     25 CL   UNL     1      -0.284  13.913  18.454  0.00  0.00    +0.000 Cl
ATOM     26  C   UNL     1       0.849  12.223  20.299  0.00  0.00    +0.000 A 
ATOM     27 CL   UNL     1       1.909  13.488  20.815  0.00  0.00    +0.000 Cl
ATOM     28  C   UNL     1       0.965  10.981  20.942  0.00  0.00    +0.000 A 
ENDBRANCH  20  21
ENDBRANCH  18  20
ENDBRANCH  17  18
ENDBRANCH   1  17
TORSDOF 6
ENDMDL
MODEL 6
REMARK VINA RESULT:      -7.3      4.323      7.155
REMARK  Name = 
REMARK  6 active torsions:
REMARK  status: ('A' for Active; 'I' for Inactive)
REMARK    1  A    between atoms: C_2  and  C_3
REMARK    2  A    between atoms: C_2  and  C_21
REMARK    3  A    between atoms: C_3  and  S_4
REMARK    4  A    between atoms: S_4  and  C_5
REMARK    5  A    between atoms: C_8  and  C_9
REMARK    6  A    between atoms: N_15  and  C_16
REMARK                            x       y       z     vdW  Elec       q    Type
REMARK                         _______ _______ _______ _____ _____    ______ ____
ROOT
ATOM      1  C   UNL     1       4.910   3.074  18.501  0.00  0.00    +0.000 A 
ATOM      2  N   UNL     1       4.994   3.408  19.767  0.00  0.00    +0.000 NA
ATOM      3  N   UNL     1       5.628   4.622  19.831  0.00  0.00    +0.000 NA
ATOM      4  C   UNL     1       5.957   5.004  18.607  0.00  0.00    +0.000 A 
ATOM      5  N   UNL     1       5.493   4.044  17.696  0.00  0.00    +0.000 N 
ENDROOT
BRANCH   4   6
ATOM      6  C   UNL     1       6.719   6.223  18.296  0.00  0.00    +0.000 A 
ATOM      7  C   UNL     1       7.924   6.499  18.950  0.00  0.00    +0.000 A 
ATOM      8  C   UNL     1       8.600   7.696  18.702  0.00  0.00    +0.000 A 
ATOM      9  C   UNL     1       8.058   8.584  17.787  0.00  0.00    +0.000 A 
ATOM     10  N   UNL     1       6.940   8.329  17.079  0.00  0.00    +0.000 NA
ATOM     11  C   UNL     1       6.315   7.153  17.338  0.00  0.00    +0.000 A 
ENDBRANCH   4   6
BRANCH   5  12
ATOM     12  C   UNL     1       5.592   4.097  16.294  0.00  0.00    +0.000 A 
ATOM     13  C   UNL     1       4.714   4.688  15.398  0.00  0.00    +0.000 A 
ATOM     14  C   UNL     1       5.199   4.423  14.093  0.00  0.00    +0.000 A 
ATOM     15  C   UNL     1       6.353   3.702  14.258  0.00  0.00    +0.000 A 
ATOM     16  O   UNL     1       6.597   3.501  15.574  0.00  0.00    +0.000 OA
ENDBRANCH   5  12
BRANCH   1  17
ATOM     17  S   UNL     1       3.996   1.734  17.891  0.00  0.00    +0.000 S 
BRANCH  17  18
ATOM     18  C   UNL     1       2.452   2.491  17.325  0.00  0.00    +0.000 C 
BRANCH  18  20
ATOM     19  O   UNL     1       0.865   2.138  19.140  0.00  0.00    +0.000 OA
ATOM     20  C   UNL     1       1.607   2.907  18.527  0.00  0.00    +0.000 C 
BRANCH  20  21
ATOM     21  C   UNL     1       1.702   4.315  19.033  0.00  0.00    +0.000 A 
ATOM     22  C   UNL     1       1.286   4.578  20.346  0.00  0.00    +0.000 A 
ATOM     23  C   UNL     1       1.354   5.872  20.875  0.00  0.00    +0.000 A 
ATOM     24  C   UNL     1       1.839   6.918  20.090  0.00  0.00    +0.000 A 
ATOM     25 CL   UNL     1       1.892   8.494  20.794  0.00  0.00    +0.000 Cl
ATOM     26  C   UNL     1       2.259   6.665  18.779  0.00  0.00    +0.000 A 
ATOM     27 CL   UNL     1       2.866   7.913  17.748  0.00  0.00    +0.000 Cl
ATOM     28  C   UNL     1       2.196   5.366  18.253  0.00  0.00    +0.000 A 
ENDBRANCH  20  21
ENDBRANCH  18  20
ENDBRANCH  17  18
ENDBRANCH   1  17
TORSDOF 6
ENDMDL
MODEL 7
REMARK VINA RESULT:      -7.3      1.289      1.625
REMARK  Name = 
REMARK  6 active torsions:
REMARK  status: ('A' for Active; 'I' for Inactive)
REMARK    1  A    between atoms: C_2  and  C_3
REMARK    2  A    between atoms: C_2  and  C_21
REMARK    3  A    between atoms: C_3  and  S_4
REMARK    4  A    between atoms: S_4  and  C_5
REMARK    5  A    between atoms: C_8  and  C_9
REMARK    6  A    between atoms: N_15  and  C_16
REMARK                            x       y       z     vdW  Elec       q    Type
REMARK                         _______ _______ _______ _____ _____    ______ ____
ROOT
ATOM      1  C   UNL     1       2.005   7.741  19.028  0.00  0.00    +0.000 A 
ATOM      2  N   UNL     1       2.383   8.034  17.807  0.00  0.00    +0.000 NA
ATOM      3  N   UNL     1       2.035   9.339  17.570  0.00  0.00    +0.000 NA
ATOM      4  C   UNL     1       1.417   9.822  18.635  0.00  0.00    +0.000 A 
ATOM      5  N   UNL     1       1.389   8.832  19.628  0.00  0.00    +0.000 N 
ENDROOT
BRANCH   4   6
ATOM      6  C   UNL     1       0.832  11.170  18.714  0.00  0.00    +0.000 A 
ATOM      7  C   UNL     1       1.640  12.287  18.947  0.00  0.00    +0.000 A 
ATOM      8  C   UNL     1       1.065  13.552  19.096  0.00  0.00    +0.000 A 
ATOM      9  C   UNL     1      -0.311  13.668  18.989  0.00  0.00    +0.000 A 
ATOM     10  N   UNL     1      -1.123  12.635  18.693  0.00  0.00    +0.000 NA
ATOM     11  C   UNL     1      -0.529  11.423  18.545  0.00  0.00    +0.000 A 
ENDBRANCH   4   6
BRANCH   5  12
ATOM     12  C   UNL     1       0.869   8.957  20.928  0.00  0.00    +0.000 A 
ATOM     13  C   UNL     1      -0.453   8.847  21.334  0.00  0.00    +0.000 A 
ATOM     14  C   UNL     1      -0.493   9.120  22.723  0.00  0.00    +0.000 A 
ATOM     15  C   UNL     1       0.802   9.366  23.099  0.00  0.00    +0.000 A 
ATOM     16  O   UNL     1       1.626   9.270  22.029  0.00  0.00    +0.000 OA
ENDBRANCH   5  12
BRANCH   1  17
ATOM     17  S   UNL     1       2.421   6.284  19.869  0.00  0.00    +0.000 S 
BRANCH  17  18
ATOM     18  C   UNL     1       1.995   4.975  18.692  0.00  0.00    +0.000 C 
BRANCH  18  20
ATOM     19  O   UNL     1       3.333   3.104  17.885  0.00  0.00    +0.000 OA
ATOM     20  C   UNL     1       3.268   4.297  18.187  0.00  0.00    +0.000 C 
BRANCH  20  21
ATOM     21  C   UNL     1       4.507   5.120  18.002  0.00  0.00    +0.000 A 
ATOM     22  C   UNL     1       4.568   5.991  16.904  0.00  0.00    +0.000 A 
ATOM     23  C   UNL     1       5.697   6.786  16.681  0.00  0.00    +0.000 A 
ATOM     24  C   UNL     1       6.780   6.715  17.556  0.00  0.00    +0.000 A 
ATOM     25 CL   UNL     1       8.149   7.715  17.225  0.00  0.00    +0.000 Cl
ATOM     26  C   UNL     1       6.728   5.851  18.656  0.00  0.00    +0.000 A 
ATOM     27 CL   UNL     1       8.035   5.707  19.779  0.00  0.00    +0.000 Cl
ATOM     28  C   UNL     1       5.592   5.059  18.882  0.00  0.00    +0.000 A 
ENDBRANCH  20  21
ENDBRANCH  18  20
ENDBRANCH  17  18
ENDBRANCH   1  17
TORSDOF 6
ENDMDL
MODEL 8
REMARK VINA RESULT:      -7.2      3.866      8.321
REMARK  Name = 
REMARK  6 active torsions:
REMARK  status: ('A' for Active; 'I' for Inactive)
REMARK    1  A    between atoms: C_2  and  C_3
REMARK    2  A    between atoms: C_2  and  C_21
REMARK    3  A    between atoms: C_3  and  S_4
REMARK    4  A    between atoms: S_4  and  C_5
REMARK    5  A    between atoms: C_8  and  C_9
REMARK    6  A    between atoms: N_15  and  C_16
REMARK                            x       y       z     vdW  Elec       q    Type
REMARK                         _______ _______ _______ _____ _____    ______ ____
ROOT
ATOM      1  C   UNL     1       2.704   6.784  19.141  0.00  0.00    +0.000 A 
ATOM      2  N   UNL     1       2.842   7.882  18.437  0.00  0.00    +0.000 NA
ATOM      3  N   UNL     1       3.694   7.603  17.401  0.00  0.00    +0.000 NA
ATOM      4  C   UNL     1       4.099   6.346  17.499  0.00  0.00    +0.000 A 
ATOM      5  N   UNL     1       3.466   5.755  18.602  0.00  0.00    +0.000 N 
ENDROOT
BRANCH   4   6
ATOM      6  C   UNL     1       5.082   5.719  16.602  0.00  0.00    +0.000 A 
ATOM      7  C   UNL     1       4.793   4.514  15.954  0.00  0.00    +0.000 A 
ATOM      8  C   UNL     1       5.762   3.890  15.166  0.00  0.00    +0.000 A 
ATOM      9  C   UNL     1       6.998   4.501  15.030  0.00  0.00    +0.000 A 
ATOM     10  N   UNL     1       7.298   5.697  15.574  0.00  0.00    +0.000 NA
ATOM     11  C   UNL     1       6.329   6.279  16.325  0.00  0.00    +0.000 A 
ENDBRANCH   4   6
BRANCH   5  12
ATOM     12  C   UNL     1       3.583   4.418  19.022  0.00  0.00    +0.000 A 
ATOM     13  C   UNL     1       4.669   3.806  19.630  0.00  0.00    +0.000 A 
ATOM     14  C   UNL     1       4.342   2.438  19.802  0.00  0.00    +0.000 A 
ATOM     15  C   UNL     1       3.072   2.287  19.308  0.00  0.00    +0.000 A 
ATOM     16  O   UNL     1       2.609   3.470  18.839  0.00  0.00    +0.000 OA
ENDBRANCH   5  12
BRANCH   1  17
ATOM     17  S   UNL     1       1.556   6.566  20.420  0.00  0.00    +0.000 S 
BRANCH  17  18
ATOM     18  C   UNL     1       1.591   8.149  21.300  0.00  0.00    +0.000 C 
BRANCH  18  20
ATOM     19  O   UNL     1      -0.816   7.908  21.589  0.00  0.00    +0.000 OA
ATOM     20  C   UNL     1       0.166   8.649  21.527  0.00  0.00    +0.000 C 
BRANCH  20  21
ATOM     21  C   UNL     1      -0.069  10.116  21.730  0.00  0.00    +0.000 A 
ATOM     22  C   UNL     1      -0.893  10.515  22.793  0.00  0.00    +0.000 A 
ATOM     23  C   UNL     1      -1.146  11.869  23.034  0.00  0.00    +0.000 A 
ATOM     24  C   UNL     1      -0.577  12.840  22.210  0.00  0.00    +0.000 A 
ATOM     25 CL   UNL     1      -0.931  14.495  22.552  0.00  0.00    +0.000 Cl
ATOM     26  C   UNL     1       0.249  12.451  21.149  0.00  0.00    +0.000 A 
ATOM     27 CL   UNL     1       0.985  13.598  20.085  0.00  0.00    +0.000 Cl
ATOM     28  C   UNL     1       0.508  11.093  20.912  0.00  0.00    +0.000 A 
ENDBRANCH  20  21
ENDBRANCH  18  20
ENDBRANCH  17  18
ENDBRANCH   1  17
TORSDOF 6
ENDMDL
MODEL 9
REMARK VINA RESULT:      -7.2      3.842      8.051
REMARK  Name = 
REMARK  6 active torsions:
REMARK  status: ('A' for Active; 'I' for Inactive)
REMARK    1  A    between atoms: C_2  and  C_3
REMARK    2  A    between atoms: C_2  and  C_21
REMARK    3  A    between atoms: C_3  and  S_4
REMARK    4  A    between atoms: S_4  and  C_5
REMARK    5  A    between atoms: C_8  and  C_9
REMARK    6  A    between atoms: N_15  and  C_16
REMARK                            x       y       z     vdW  Elec       q    Type
REMARK                         _______ _______ _______ _____ _____    ______ ____
ROOT
ATOM      1  C   UNL     1       2.675   6.732  19.153  0.00  0.00    +0.000 A 
ATOM      2  N   UNL     1       2.806   7.843  18.469  0.00  0.00    +0.000 NA
ATOM      3  N   UNL     1       3.673   7.591  17.437  0.00  0.00    +0.000 NA
ATOM      4  C   UNL     1       4.093   6.339  17.520  0.00  0.00    +0.000 A 
ATOM      5  N   UNL     1       3.456   5.721  18.607  0.00  0.00    +0.000 N 
ENDROOT
BRANCH   4   6
ATOM      6  C   UNL     1       5.094   5.738  16.624  0.00  0.00    +0.000 A 
ATOM      7  C   UNL     1       4.756   4.671  15.787  0.00  0.00    +0.000 A 
ATOM      8  C   UNL     1       5.733   4.061  14.997  0.00  0.00    +0.000 A 
ATOM      9  C   UNL     1       7.028   4.549  15.053  0.00  0.00    +0.000 A 
ATOM     10  N   UNL     1       7.386   5.620  15.788  0.00  0.00    +0.000 NA
ATOM     11  C   UNL     1       6.409   6.194  16.535  0.00  0.00    +0.000 A 
ENDBRANCH   4   6
BRANCH   5  12
ATOM     12  C   UNL     1       3.586   4.380  19.008  0.00  0.00    +0.000 A 
ATOM     13  C   UNL     1       4.678   3.769  19.605  0.00  0.00    +0.000 A 
ATOM     14  C   UNL     1       4.364   2.396  19.758  0.00  0.00    +0.000 A 
ATOM     15  C   UNL     1       3.096   2.240  19.262  0.00  0.00    +0.000 A 
ATOM     16  O   UNL     1       2.621   3.425  18.811  0.00  0.00    +0.000 OA
ENDBRANCH   5  12
BRANCH   1  17
ATOM     17  S   UNL     1       1.516   6.479  20.417  0.00  0.00    +0.000 S 
BRANCH  17  18
ATOM     18  C   UNL     1       1.539   8.039  21.337  0.00  0.00    +0.000 C 
BRANCH  18  20
ATOM     19  O   UNL     1      -0.851   8.167  21.791  0.00  0.00    +0.000 OA
ATOM     20  C   UNL     1       0.155   8.683  21.302  0.00  0.00    +0.000 C 
BRANCH  20  21
ATOM     21  C   UNL     1      -0.003  10.038  20.680  0.00  0.00    +0.000 A 
ATOM     22  C   UNL     1       0.696  10.310  19.494  0.00  0.00    +0.000 A 
ATOM     23  C   UNL     1       0.586  11.555  18.866  0.00  0.00    +0.000 A 
ATOM     24  C   UNL     1      -0.226  12.543  19.421  0.00  0.00    +0.000 A 
ATOM     25 CL   UNL     1      -0.317  14.063  18.605  0.00  0.00    +0.000 Cl
ATOM     26  C   UNL     1      -0.931  12.280  20.601  0.00  0.00    +0.000 A 
ATOM     27 CL   UNL     1      -1.952  13.459  21.348  0.00  0.00    +0.000 Cl
ATOM     28  C   UNL     1      -0.824  11.029  21.227  0.00  0.00    +0.000 A 
ENDBRANCH  20  21
ENDBRANCH  18  20
ENDBRANCH  17  18
ENDBRANCH   1  17
TORSDOF 6
ENDMDL
