MODEL 1
REMARK VINA RESULT:      -7.5      0.000      0.000
REMARK  Name = 
REMARK  8 active torsions:
REMARK  status: ('A' for Active; 'I' for Inactive)
REMARK    1  A    between atoms: C_1  and  N_2
REMARK    2  A    between atoms: N_2  and  C_3
REMARK    3  A    between atoms: N_2  and  C_4
REMARK    4  A    between atoms: C_4  and  C_5
REMARK    5  A    between atoms: C_5  and  N_6
REMARK    6  A    between atoms: C_7  and  C_9
REMARK    7  A    between atoms: C_12  and  S_13
REMARK    8  A    between atoms: S_13  and  C_14
REMARK                            x       y       z     vdW  Elec       q    Type
REMARK                         _______ _______ _______ _____ _____    ______ ____
ROOT
ATOM      1  N   UNL     1       2.161   7.433  19.077  0.00  0.00    +0.000 N 
ATOM      2  C   UNL     1       1.810   8.689  18.617  0.00  0.00    +0.000 C 
ATOM      3  O   UNL     1       2.112   9.089  17.497  0.00  0.00    +0.000 OA
ATOM      4  H   UNL     1       1.952   7.133  20.022  0.00  0.00    +0.000 HD
ENDROOT
BRANCH   2   5
ATOM      5  C   UNL     1       1.077   9.587  19.555  0.00  0.00    +0.000 A 
ATOM      6  C   UNL     1       0.911   9.166  20.887  0.00  0.00    +0.000 A 
ATOM      7  C   UNL     1       0.209   9.955  21.803  0.00  0.00    +0.000 A 
ATOM      8  C   UNL     1      -0.315  11.182  21.392  0.00  0.00    +0.000 A 
ATOM      9  C   UNL     1      -0.154  11.618  20.072  0.00  0.00    +0.000 A 
ATOM     10  C   UNL     1       0.551  10.824  19.158  0.00  0.00    +0.000 A 
BRANCH   8  11
ATOM     11  S   UNL     1      -1.253  12.173  22.531  0.00  0.00    +0.000 S 
ATOM     12  C   UNL     1      -2.378  13.058  21.486  0.00  0.00    +0.000 C 
ATOM     13  O   UNL     1      -2.026  11.267  23.361  0.00  0.00    +0.000 OA
ATOM     14  O   UNL     1      -0.341  13.133  23.132  0.00  0.00    +0.000 OA
ENDBRANCH   8  11
ENDBRANCH   2   5
BRANCH   1  15
ATOM     15  C   UNL     1       2.980   6.535  18.274  0.00  0.00    +0.000 C 
BRANCH  15  16
ATOM     16  C   UNL     1       2.961   5.014  18.738  0.00  0.00    +0.000 C 
ATOM     17  C   UNL     1       1.816   4.330  17.916  0.00  0.00    +0.000 C 
ATOM     18  C   UNL     1       1.220   3.036  18.476  0.00  0.00    +0.000 C 
ATOM     19  C   UNL     1       0.918   3.086  19.965  0.00  0.00    +0.000 C 
ATOM     20  C   UNL     1       2.030   3.702  20.801  0.00  0.00    +0.000 C 
ATOM     21  C   UNL     1       2.525   5.029  20.235  0.00  0.00    +0.000 C 
BRANCH  16  23
ATOM     22  C   UNL     1       4.610   4.246  17.024  0.00  0.00    +0.000 C 
ATOM     23  N   UNL     1       4.310   4.407  18.455  0.00  0.00    +0.000 NA
ATOM     24  C   UNL     1       5.483   5.005  19.088  0.00  0.00    +0.000 C 
ENDBRANCH  16  23
ENDBRANCH  15  16
ENDBRANCH   1  15
TORSDOF 5
ENDMDL
MODEL 2
REMARK VINA RESULT:      -7.3      0.489      1.117
REMARK  Name = 
REMARK  8 active torsions:
REMARK  status: ('A' for Active; 'I' for Inactive)
REMARK    1  A    between atoms: C_1  and  N_2
REMARK    2  A    between atoms: N_2  and  C_3
REMARK    3  A    between atoms: N_2  and  C_4
REMARK    4  A    between atoms: C_4  and  C_5
REMARK    5  A    between atoms: C_5  and  N_6
REMARK    6  A    between atoms: C_7  and  C_9
REMARK    7  A    between atoms: C_12  and  S_13
REMARK    8  A    between atoms: S_13  and  C_14
REMARK                            x       y       z     vdW  Elec       q    Type
REMARK                         _______ _______ _______ _____ _____    ______ ____
ROOT
ATOM      1  N   UNL     1       2.436   7.264  19.752  0.00  0.00    +0.000 N 
ATOM      2  C   UNL     1       1.817   8.355  19.173  0.00  0.00    +0.000 C 
ATOM      3  O   UNL     1       1.944   8.632  17.983  0.00  0.00    +0.000 OA
ATOM      4  H   UNL     1       2.367   7.076  20.745  0.00  0.00    +0.000 HD
ENDROOT
BRANCH   2   5
ATOM      5  C   UNL     1       1.007   9.241  20.059  0.00  0.00    +0.000 A 
ATOM      6  C   UNL     1       0.364  10.351  19.482  0.00  0.00    +0.000 A 
ATOM      7  C   UNL     1      -0.385  11.230  20.269  0.00  0.00    +0.000 A 
ATOM      8  C   UNL     1      -0.511  10.988  21.639  0.00  0.00    +0.000 A 
ATOM      9  C   UNL     1       0.119   9.885  22.227  0.00  0.00    +0.000 A 
ATOM     10  C   UNL     1       0.867   9.007  21.434  0.00  0.00    +0.000 A 
BRANCH   8  11
ATOM     11  S   UNL     1      -1.418  12.125  22.662  0.00  0.00    +0.000 S 
ATOM     12  C   UNL     1      -2.451  12.988  21.510  0.00  0.00    +0.000 C 
ATOM     13  O   UNL     1      -2.272  11.339  23.533  0.00  0.00    +0.000 OA
ATOM     14  O   UNL     1      -0.465  13.072  23.216  0.00  0.00    +0.000 OA
ENDBRANCH   8  11
ENDBRANCH   2   5
BRANCH   1  15
ATOM     15  C   UNL     1       3.341   6.415  18.989  0.00  0.00    +0.000 C 
BRANCH  15  16
ATOM     16  C   UNL     1       3.102   4.852  19.164  0.00  0.00    +0.000 C 
ATOM     17  C   UNL     1       1.913   4.491  18.212  0.00  0.00    +0.000 C 
ATOM     18  C   UNL     1       1.128   3.212  18.513  0.00  0.00    +0.000 C 
ATOM     19  C   UNL     1       0.775   3.033  19.981  0.00  0.00    +0.000 C 
ATOM     20  C   UNL     1       1.922   3.329  20.934  0.00  0.00    +0.000 C 
ATOM     21  C   UNL     1       2.611   4.656  20.631  0.00  0.00    +0.000 C 
BRANCH  16  23
ATOM     22  C   UNL     1       4.462   3.758  17.375  0.00  0.00    +0.000 C 
ATOM     23  N   UNL     1       4.370   4.127  18.796  0.00  0.00    +0.000 NA
ATOM     24  C   UNL     1       5.645   4.727  19.180  0.00  0.00    +0.000 C 
ENDBRANCH  16  23
ENDBRANCH  15  16
ENDBRANCH   1  15
TORSDOF 5
ENDMDL
MODEL 3
REMARK VINA RESULT:      -7.3      0.931      1.120
REMARK  Name = 
REMARK  8 active torsions:
REMARK  status: ('A' for Active; 'I' for Inactive)
REMARK    1  A    between atoms: C_1  and  N_2
REMARK    2  A    between atoms: N_2  and  C_3
REMARK    3  A    between atoms: N_2  and  C_4
REMARK    4  A    between atoms: C_4  and  C_5
REMARK    5  A    between atoms: C_5  and  N_6
REMARK    6  A    between atoms: C_7  and  C_9
REMARK    7  A    between atoms: C_12  and  S_13
REMARK    8  A    between atoms: S_13  and  C_14
REMARK                            x       y       z     vdW  Elec       q    Type
REMARK                         _______ _______ _______ _____ _____    ______ ____
ROOT
ATOM      1  N   UNL     1       2.235   7.102  18.815  0.00  0.00    +0.000 N 
ATOM      2  C   UNL     1       2.058   8.374  18.303  0.00  0.00    +0.000 C 
ATOM      3  O   UNL     1       2.507   8.715  17.213  0.00  0.00    +0.000 OA
ATOM      4  H   UNL     1       1.906   6.848  19.738  0.00  0.00    +0.000 HD
ENDROOT
BRANCH   2   5
ATOM      5  C   UNL     1       1.329   9.363  19.149  0.00  0.00    +0.000 A 
ATOM      6  C   UNL     1       1.026   9.007  20.477  0.00  0.00    +0.000 A 
ATOM      7  C   UNL     1       0.321   9.883  21.307  0.00  0.00    +0.000 A 
ATOM      8  C   UNL     1      -0.066  11.132  20.816  0.00  0.00    +0.000 A 
ATOM      9  C   UNL     1       0.232  11.503  19.500  0.00  0.00    +0.000 A 
ATOM     10  C   UNL     1       0.940  10.622  18.672  0.00  0.00    +0.000 A 
BRANCH   8  11
ATOM     11  S   UNL     1      -1.007  12.237  21.843  0.00  0.00    +0.000 S 
ATOM     12  C   UNL     1      -1.500  11.219  23.208  0.00  0.00    +0.000 C 
ATOM     13  O   UNL     1      -0.094  13.250  22.342  0.00  0.00    +0.000 OA
ATOM     14  O   UNL     1      -2.200  12.613  21.103  0.00  0.00    +0.000 OA
ENDBRANCH   8  11
ENDBRANCH   2   5
BRANCH   1  15
ATOM     15  C   UNL     1       3.036   6.109  18.111  0.00  0.00    +0.000 C 
BRANCH  15  16
ATOM     16  C   UNL     1       2.969   4.641  18.719  0.00  0.00    +0.000 C 
ATOM     17  C   UNL     1       1.730   3.956  18.048  0.00  0.00    +0.000 C 
ATOM     18  C   UNL     1       1.108   2.758  18.770  0.00  0.00    +0.000 C 
ATOM     19  C   UNL     1       0.923   2.962  20.265  0.00  0.00    +0.000 C 
ATOM     20  C   UNL     1       2.126   3.582  20.958  0.00  0.00    +0.000 C 
ATOM     21  C   UNL     1       2.649   4.819  20.235  0.00  0.00    +0.000 C 
BRANCH  16  23
ATOM     22  C   UNL     1       4.498   3.731  16.964  0.00  0.00    +0.000 C 
ATOM     23  N   UNL     1       4.258   3.929  18.401  0.00  0.00    +0.000 NA
ATOM     24  C   UNL     1       5.492   4.441  18.990  0.00  0.00    +0.000 C 
ENDBRANCH  16  23
ENDBRANCH  15  16
ENDBRANCH   1  15
TORSDOF 5
ENDMDL
MODEL 4
REMARK VINA RESULT:      -7.2      0.815      1.374
REMARK  Name = 
REMARK  8 active torsions:
REMARK  status: ('A' for Active; 'I' for Inactive)
REMARK    1  A    between atoms: C_1  and  N_2
REMARK    2  A    between atoms: N_2  and  C_3
REMARK    3  A    between atoms: N_2  and  C_4
REMARK    4  A    between atoms: C_4  and  C_5
REMARK    5  A    between atoms: C_5  and  N_6
REMARK    6  A    between atoms: C_7  and  C_9
REMARK    7  A    between atoms: C_12  and  S_13
REMARK    8  A    between atoms: S_13  and  C_14
REMARK                            x       y       z     vdW  Elec       q    Type
REMARK                         _______ _______ _______ _____ _____    ______ ____
ROOT
ATOM      1  N   UNL     1       2.137   7.549  19.108  0.00  0.00    +0.000 N 
ATOM      2  C   UNL     1       1.727   8.770  18.606  0.00  0.00    +0.000 C 
ATOM      3  O   UNL     1       2.086   9.187  17.508  0.00  0.00    +0.000 OA
ATOM      4  H   UNL     1       1.878   7.239  20.037  0.00  0.00    +0.000 HD
ENDROOT
BRANCH   2   5
ATOM      5  C   UNL     1       0.853   9.613  19.472  0.00  0.00    +0.000 A 
ATOM      6  C   UNL     1       0.105  10.639  18.864  0.00  0.00    +0.000 A 
ATOM      7  C   UNL     1      -0.709  11.478  19.630  0.00  0.00    +0.000 A 
ATOM      8  C   UNL     1      -0.795  11.279  21.010  0.00  0.00    +0.000 A 
ATOM      9  C   UNL     1      -0.062  10.260  21.628  0.00  0.00    +0.000 A 
ATOM     10  C   UNL     1       0.752   9.421  20.856  0.00  0.00    +0.000 A 
BRANCH   8  11
ATOM     11  S   UNL     1      -1.788  12.369  22.004  0.00  0.00    +0.000 S 
ATOM     12  C   UNL     1      -0.666  13.668  22.445  0.00  0.00    +0.000 C 
ATOM     13  O   UNL     1      -2.812  12.930  21.143  0.00  0.00    +0.000 OA
ATOM     14  O   UNL     1      -2.148  11.650  23.215  0.00  0.00    +0.000 OA
ENDBRANCH   8  11
ENDBRANCH   2   5
BRANCH   1  15
ATOM     15  C   UNL     1       3.087   6.714  18.383  0.00  0.00    +0.000 C 
BRANCH  15  16
ATOM     16  C   UNL     1       3.044   5.169  18.759  0.00  0.00    +0.000 C 
ATOM     17  C   UNL     1       1.897   4.549  17.892  0.00  0.00    +0.000 C 
ATOM     18  C   UNL     1       1.279   3.233  18.373  0.00  0.00    +0.000 C 
ATOM     19  C   UNL     1       0.969   3.202  19.861  0.00  0.00    +0.000 C 
ATOM     20  C   UNL     1       2.082   3.754  20.738  0.00  0.00    +0.000 C 
ATOM     21  C   UNL     1       2.598   5.104  20.252  0.00  0.00    +0.000 C 
BRANCH  16  23
ATOM     22  C   UNL     1       4.690   4.471  17.013  0.00  0.00    +0.000 C 
ATOM     23  N   UNL     1       4.387   4.562  18.449  0.00  0.00    +0.000 NA
ATOM     24  C   UNL     1       5.564   5.112  19.116  0.00  0.00    +0.000 C 
ENDBRANCH  16  23
ENDBRANCH  15  16
ENDBRANCH   1  15
TORSDOF 5
ENDMDL
MODEL 5
REMARK VINA RESULT:      -7.0      2.495      4.120
REMARK  Name = 
REMARK  8 active torsions:
REMARK  status: ('A' for Active; 'I' for Inactive)
REMARK    1  A    between atoms: C_1  and  N_2
REMARK    2  A    between atoms: N_2  and  C_3
REMARK    3  A    between atoms: N_2  and  C_4
REMARK    4  A    between atoms: C_4  and  C_5
REMARK    5  A    between atoms: C_5  and  N_6
REMARK    6  A    between atoms: C_7  and  C_9
REMARK    7  A    between atoms: C_12  and  S_13
REMARK    8  A    between atoms: S_13  and  C_14
REMARK                            x       y       z     vdW  Elec       q    Type
REMARK                         _______ _______ _______ _____ _____    ______ ____
ROOT
ATOM      1  N   UNL     1       3.632   6.463  17.719  0.00  0.00    +0.000 N 
ATOM      2  C   UNL     1       2.973   6.608  18.925  0.00  0.00    +0.000 C 
ATOM      3  O   UNL     1       3.026   5.761  19.813  0.00  0.00    +0.000 OA
ATOM      4  H   UNL     1       3.538   7.142  16.974  0.00  0.00    +0.000 HD
ENDROOT
BRANCH   2   5
ATOM      5  C   UNL     1       2.135   7.828  19.111  0.00  0.00    +0.000 A 
ATOM      6  C   UNL     1       1.613   8.088  20.392  0.00  0.00    +0.000 A 
ATOM      7  C   UNL     1       0.799   9.201  20.618  0.00  0.00    +0.000 A 
ATOM      8  C   UNL     1       0.521  10.074  19.564  0.00  0.00    +0.000 A 
ATOM      9  C   UNL     1       1.037   9.833  18.286  0.00  0.00    +0.000 A 
ATOM     10  C   UNL     1       1.854   8.716  18.064  0.00  0.00    +0.000 A 
BRANCH   8  11
ATOM     11  S   UNL     1      -0.554  11.466  19.824  0.00  0.00    +0.000 S 
ATOM     12  C   UNL     1      -0.795  11.484  21.579  0.00  0.00    +0.000 C 
ATOM     13  O   UNL     1       0.186  12.660  19.458  0.00  0.00    +0.000 OA
ATOM     14  O   UNL     1      -1.827  11.161  19.193  0.00  0.00    +0.000 OA
ENDBRANCH   8  11
ENDBRANCH   2   5
BRANCH   1  15
ATOM     15  C   UNL     1       4.374   5.249  17.405  0.00  0.00    +0.000 C 
BRANCH  15  16
ATOM     16  C   UNL     1       5.951   5.434  17.303  0.00  0.00    +0.000 C 
ATOM     17  C   UNL     1       6.511   5.124  18.733  0.00  0.00    +0.000 C 
ATOM     18  C   UNL     1       7.888   5.689  19.090  0.00  0.00    +0.000 C 
ATOM     19  C   UNL     1       8.086   7.142  18.688  0.00  0.00    +0.000 C 
ATOM     20  C   UNL     1       7.595   7.469  17.286  0.00  0.00    +0.000 C 
ATOM     21  C   UNL     1       6.186   6.949  17.020  0.00  0.00    +0.000 C 
BRANCH  16  23
ATOM     22  C   UNL     1       5.540   3.419  15.884  0.00  0.00    +0.000 C 
ATOM     23  N   UNL     1       6.481   4.483  16.262  0.00  0.00    +0.000 NA
ATOM     24  C   UNL     1       7.033   5.044  15.032  0.00  0.00    +0.000 C 
ENDBRANCH  16  23
ENDBRANCH  15  16
ENDBRANCH   1  15
TORSDOF 5
ENDMDL
MODEL 6
REMARK VINA RESULT:      -7.0      2.549      4.278
REMARK  Name = 
REMARK  8 active torsions:
REMARK  status: ('A' for Active; 'I' for Inactive)
REMARK    1  A    between atoms: C_1  and  N_2
REMARK    2  A    between atoms: N_2  and  C_3
REMARK    3  A    between atoms: N_2  and  C_4
REMARK    4  A    between atoms: C_4  and  C_5
REMARK    5  A    between atoms: C_5  and  N_6
REMARK    6  A    between atoms: C_7  and  C_9
REMARK    7  A    between atoms: C_12  and  S_13
REMARK    8  A    between atoms: S_13  and  C_14
REMARK                            x       y       z     vdW  Elec       q    Type
REMARK                         _______ _______ _______ _____ _____    ______ ____
ROOT
ATOM      1  N   UNL     1       3.653   6.449  17.733  0.00  0.00    +0.000 N 
ATOM      2  C   UNL     1       2.960   6.576  18.923  0.00  0.00    +0.000 C 
ATOM      3  O   UNL     1       2.989   5.714  19.798  0.00  0.00    +0.000 OA
ATOM      4  H   UNL     1       3.580   7.141  16.997  0.00  0.00    +0.000 HD
ENDROOT
BRANCH   2   5
ATOM      5  C   UNL     1       2.118   7.793  19.106  0.00  0.00    +0.000 A 
ATOM      6  C   UNL     1       1.864   8.600  17.982  0.00  0.00    +0.000 A 
ATOM      7  C   UNL     1       1.104   9.768  18.099  0.00  0.00    +0.000 A 
ATOM      8  C   UNL     1       0.578  10.122  19.343  0.00  0.00    +0.000 A 
ATOM      9  C   UNL     1       0.818   9.327  20.470  0.00  0.00    +0.000 A 
ATOM     10  C   UNL     1       1.579   8.157  20.346  0.00  0.00    +0.000 A 
BRANCH   8  11
ATOM     11  S   UNL     1      -0.348  11.630  19.519  0.00  0.00    +0.000 S 
ATOM     12  C   UNL     1      -0.980  11.540  21.172  0.00  0.00    +0.000 C 
ATOM     13  O   UNL     1       0.598  12.730  19.457  0.00  0.00    +0.000 OA
ATOM     14  O   UNL     1      -1.470  11.564  18.598  0.00  0.00    +0.000 OA
ENDBRANCH   8  11
ENDBRANCH   2   5
BRANCH   1  15
ATOM     15  C   UNL     1       4.403   5.240  17.420  0.00  0.00    +0.000 C 
BRANCH  15  16
ATOM     16  C   UNL     1       5.978   5.436  17.314  0.00  0.00    +0.000 C 
ATOM     17  C   UNL     1       6.542   5.151  18.748  0.00  0.00    +0.000 C 
ATOM     18  C   UNL     1       7.914   5.733  19.096  0.00  0.00    +0.000 C 
ATOM     19  C   UNL     1       8.100   7.181  18.673  0.00  0.00    +0.000 C 
ATOM     20  C   UNL     1       7.606   7.483  17.266  0.00  0.00    +0.000 C 
ATOM     21  C   UNL     1       6.201   6.949  17.009  0.00  0.00    +0.000 C 
BRANCH  16  23
ATOM     22  C   UNL     1       5.577   3.405  15.914  0.00  0.00    +0.000 C 
ATOM     23  N   UNL     1       6.515   4.474  16.287  0.00  0.00    +0.000 NA
ATOM     24  C   UNL     1       7.073   5.022  15.054  0.00  0.00    +0.000 C 
ENDBRANCH  16  23
ENDBRANCH  15  16
ENDBRANCH   1  15
TORSDOF 5
ENDMDL
MODEL 7
REMARK VINA RESULT:      -7.0      0.791      1.344
REMARK  Name = 
REMARK  8 active torsions:
REMARK  status: ('A' for Active; 'I' for Inactive)
REMARK    1  A    between atoms: C_1  and  N_2
REMARK    2  A    between atoms: N_2  and  C_3
REMARK    3  A    between atoms: N_2  and  C_4
REMARK    4  A    between atoms: C_4  and  C_5
REMARK    5  A    between atoms: C_5  and  N_6
REMARK    6  A    between atoms: C_7  and  C_9
REMARK    7  A    between atoms: C_12  and  S_13
REMARK    8  A    between atoms: S_13  and  C_14
REMARK                            x       y       z     vdW  Elec       q    Type
REMARK                         _______ _______ _______ _____ _____    ______ ____
ROOT
ATOM      1  N   UNL     1       2.282   7.504  19.186  0.00  0.00    +0.000 N 
ATOM      2  C   UNL     1       1.824   8.662  18.585  0.00  0.00    +0.000 C 
ATOM      3  O   UNL     1       2.064   8.935  17.412  0.00  0.00    +0.000 OA
ATOM      4  H   UNL     1       2.123   7.315  20.168  0.00  0.00    +0.000 HD
ENDROOT
BRANCH   2   5
ATOM      5  C   UNL     1       1.051   9.619  19.428  0.00  0.00    +0.000 A 
ATOM      6  C   UNL     1       0.850  10.923  18.940  0.00  0.00    +0.000 A 
ATOM      7  C   UNL     1       0.157  11.870  19.699  0.00  0.00    +0.000 A 
ATOM      8  C   UNL     1      -0.357  11.507  20.946  0.00  0.00    +0.000 A 
ATOM      9  C   UNL     1      -0.170  10.212  21.443  0.00  0.00    +0.000 A 
ATOM     10  C   UNL     1       0.524   9.267  20.678  0.00  0.00    +0.000 A 
BRANCH   8  11
ATOM     11  S   UNL     1      -1.197  12.714  21.946  0.00  0.00    +0.000 S 
ATOM     12  C   UNL     1      -1.271  14.142  20.900  0.00  0.00    +0.000 C 
ATOM     13  O   UNL     1      -2.552  12.238  22.155  0.00  0.00    +0.000 OA
ATOM     14  O   UNL     1      -0.337  13.023  23.075  0.00  0.00    +0.000 OA
ENDBRANCH   8  11
ENDBRANCH   2   5
BRANCH   1  15
ATOM     15  C   UNL     1       3.144   6.572  18.473  0.00  0.00    +0.000 C 
BRANCH  15  16
ATOM     16  C   UNL     1       3.006   5.052  18.922  0.00  0.00    +0.000 C 
ATOM     17  C   UNL     1       1.946   4.416  17.960  0.00  0.00    +0.000 C 
ATOM     18  C   UNL     1       1.232   3.148  18.434  0.00  0.00    +0.000 C 
ATOM     19  C   UNL     1       0.750   3.209  19.874  0.00  0.00    +0.000 C 
ATOM     20  C   UNL     1       1.772   3.778  20.846  0.00  0.00    +0.000 C 
ATOM     21  C   UNL     1       2.388   5.083  20.353  0.00  0.00    +0.000 C 
BRANCH  16  23
ATOM     22  C   UNL     1       5.483   5.255  19.179  0.00  0.00    +0.000 C 
ATOM     23  N   UNL     1       4.354   4.391  18.805  0.00  0.00    +0.000 NA
ATOM     24  C   UNL     1       4.549   3.100  19.460  0.00  0.00    +0.000 C 
ENDBRANCH  16  23
ENDBRANCH  15  16
ENDBRANCH   1  15
TORSDOF 5
ENDMDL
MODEL 8
REMARK VINA RESULT:      -7.0      2.236      3.680
REMARK  Name = 
REMARK  8 active torsions:
REMARK  status: ('A' for Active; 'I' for Inactive)
REMARK    1  A    between atoms: C_1  and  N_2
REMARK    2  A    between atoms: N_2  and  C_3
REMARK    3  A    between atoms: N_2  and  C_4
REMARK    4  A    between atoms: C_4  and  C_5
REMARK    5  A    between atoms: C_5  and  N_6
REMARK    6  A    between atoms: C_7  and  C_9
REMARK    7  A    between atoms: C_12  and  S_13
REMARK    8  A    between atoms: S_13  and  C_14
REMARK                            x       y       z     vdW  Elec       q    Type
REMARK                         _______ _______ _______ _____ _____    ______ ____
ROOT
ATOM      1  N   UNL     1       3.453   6.500  19.430  0.00  0.00    +0.000 N 
ATOM      2  C   UNL     1       2.244   6.781  20.038  0.00  0.00    +0.000 C 
ATOM      3  O   UNL     1       1.654   5.966  20.741  0.00  0.00    +0.000 OA
ATOM      4  H   UNL     1       3.905   7.161  18.810  0.00  0.00    +0.000 HD
ENDROOT
BRANCH   2   5
ATOM      5  C   UNL     1       1.634   8.117  19.775  0.00  0.00    +0.000 A 
ATOM      6  C   UNL     1       0.904   8.730  20.811  0.00  0.00    +0.000 A 
ATOM      7  C   UNL     1       0.287   9.968  20.613  0.00  0.00    +0.000 A 
ATOM      8  C   UNL     1       0.416  10.609  19.378  0.00  0.00    +0.000 A 
ATOM      9  C   UNL     1       1.143  10.015  18.340  0.00  0.00    +0.000 A 
ATOM     10  C   UNL     1       1.760   8.774  18.545  0.00  0.00    +0.000 A 
BRANCH   8  11
ATOM     11  S   UNL     1      -0.404  12.161  19.094  0.00  0.00    +0.000 S 
ATOM     12  C   UNL     1      -1.689  11.749  17.945  0.00  0.00    +0.000 C 
ATOM     13  O   UNL     1      -1.027  12.558  20.344  0.00  0.00    +0.000 OA
ATOM     14  O   UNL     1       0.540  13.039  18.424  0.00  0.00    +0.000 OA
ENDBRANCH   8  11
ENDBRANCH   2   5
BRANCH   1  15
ATOM     15  C   UNL     1       4.063   5.181  19.533  0.00  0.00    +0.000 C 
BRANCH  15  16
ATOM     16  C   UNL     1       4.686   4.622  18.180  0.00  0.00    +0.000 C 
ATOM     17  C   UNL     1       6.231   4.538  18.424  0.00  0.00    +0.000 C 
ATOM     18  C   UNL     1       7.141   4.525  17.193  0.00  0.00    +0.000 C 
ATOM     19  C   UNL     1       6.772   5.556  16.138  0.00  0.00    +0.000 C 
ATOM     20  C   UNL     1       5.282   5.632  15.842  0.00  0.00    +0.000 C 
ATOM     21  C   UNL     1       4.435   5.725  17.107  0.00  0.00    +0.000 C 
BRANCH  16  23
ATOM     22  C   UNL     1       4.008   2.382  19.057  0.00  0.00    +0.000 C 
ATOM     23  N   UNL     1       4.078   3.275  17.891  0.00  0.00    +0.000 NA
ATOM     24  C   UNL     1       2.781   3.232  17.223  0.00  0.00    +0.000 C 
ENDBRANCH  16  23
ENDBRANCH  15  16
ENDBRANCH   1  15
TORSDOF 5
ENDMDL
MODEL 9
REMARK VINA RESULT:      -7.0      1.177      1.355
REMARK  Name = 
REMARK  8 active torsions:
REMARK  status: ('A' for Active; 'I' for Inactive)
REMARK    1  A    between atoms: C_1  and  N_2
REMARK    2  A    between atoms: N_2  and  C_3
REMARK    3  A    between atoms: N_2  and  C_4
REMARK    4  A    between atoms: C_4  and  C_5
REMARK    5  A    between atoms: C_5  and  N_6
REMARK    6  A    between atoms: C_7  and  C_9
REMARK    7  A    between atoms: C_12  and  S_13
REMARK    8  A    between atoms: S_13  and  C_14
REMARK                            x       y       z     vdW  Elec       q    Type
REMARK                         _______ _______ _______ _____ _____    ______ ____
ROOT
ATOM      1  N   UNL     1       2.611   6.856  19.876  0.00  0.00    +0.000 N 
ATOM      2  C   UNL     1       2.144   7.912  19.115  0.00  0.00    +0.000 C 
ATOM      3  O   UNL     1       2.444   8.057  17.933  0.00  0.00    +0.000 OA
ATOM      4  H   UNL     1       2.400   6.776  20.863  0.00  0.00    +0.000 HD
ENDROOT
BRANCH   2   5
ATOM      5  C   UNL     1       1.283   8.924  19.793  0.00  0.00    +0.000 A 
ATOM      6  C   UNL     1       0.982   8.736  21.154  0.00  0.00    +0.000 A 
ATOM      7  C   UNL     1       0.157   9.637  21.834  0.00  0.00    +0.000 A 
ATOM      8  C   UNL     1      -0.353  10.746  21.155  0.00  0.00    +0.000 A 
ATOM      9  C   UNL     1      -0.057  10.951  19.803  0.00  0.00    +0.000 A 
ATOM     10  C   UNL     1       0.770  10.045  19.127  0.00  0.00    +0.000 A 
BRANCH   8  11
ATOM     11  S   UNL     1      -1.443  11.875  21.992  0.00  0.00    +0.000 S 
ATOM     12  C   UNL     1      -0.424  13.293  22.292  0.00  0.00    +0.000 C 
ATOM     13  O   UNL     1      -2.480  12.255  21.051  0.00  0.00    +0.000 OA
ATOM     14  O   UNL     1      -1.786  11.282  23.274  0.00  0.00    +0.000 OA
ENDBRANCH   8  11
ENDBRANCH   2   5
BRANCH   1  15
ATOM     15  C   UNL     1       3.552   5.888  19.329  0.00  0.00    +0.000 C 
BRANCH  15  16
ATOM     16  C   UNL     1       3.081   4.371  19.416  0.00  0.00    +0.000 C 
ATOM     17  C   UNL     1       1.951   4.212  18.343  0.00  0.00    +0.000 C 
ATOM     18  C   UNL     1       0.969   3.050  18.517  0.00  0.00    +0.000 C 
ATOM     19  C   UNL     1       0.453   2.883  19.937  0.00  0.00    +0.000 C 
ATOM     20  C   UNL     1       1.531   2.985  21.004  0.00  0.00    +0.000 C 
ATOM     21  C   UNL     1       2.425   4.207  20.822  0.00  0.00    +0.000 C 
BRANCH  16  23
ATOM     22  C   UNL     1       5.519   4.210  18.895  0.00  0.00    +0.000 C 
ATOM     23  N   UNL     1       4.264   3.483  19.138  0.00  0.00    +0.000 NA
ATOM     24  C   UNL     1       4.553   2.403  20.077  0.00  0.00    +0.000 C 
ENDBRANCH  16  23
ENDBRANCH  15  16
ENDBRANCH   1  15
TORSDOF 5
ENDMDL
