MODEL 1
REMARK VINA RESULT:      -8.3      0.000      0.000
REMARK  Name = 
REMARK  8 active torsions:
REMARK  status: ('A' for Active; 'I' for Inactive)
REMARK    1  A    between atoms: C_1  and  O_2
REMARK    2  A    between atoms: O_2  and  C_3
REMARK    3  A    between atoms: C_5  and  C_6
REMARK    4  A    between atoms: N_8  and  C_9
REMARK    5  A    between atoms: N_8  and  C_10
REMARK    6  A    between atoms: C_13  and  C_14
REMARK    7  A    between atoms: N_16  and  C_17
REMARK    8  A    between atoms: C_23  and  C_24
REMARK                            x       y       z     vdW  Elec       q    Type
REMARK                         _______ _______ _______ _____ _____    ______ ____
ROOT
ATOM      1  C   UNL     1       1.276  10.719  19.568  0.00  0.00    +0.000 C 
ATOM      2  O   UNL     1       0.959  11.083  20.700  0.00  0.00    +0.000 OA
ATOM      3  N   UNL     1       1.255  11.558  18.475  0.00  0.00    +0.000 N 
ATOM      4  H   UNL     1       1.250  11.141  17.545  0.00  0.00    +0.000 HD
ENDROOT
BRANCH   3   5
ATOM      5  C   UNL     1       1.121  12.963  18.592  0.00  0.00    +0.000 A 
ATOM      6  C   UNL     1       2.278  13.765  18.583  0.00  0.00    +0.000 A 
ATOM      7  C   UNL     1       2.193  15.163  18.588  0.00  0.00    +0.000 A 
ATOM      8  C   UNL     1       0.936  15.764  18.635  0.00  0.00    +0.000 A 
ATOM      9 CL   UNL     1       0.826  17.482  18.640  0.00  0.00    +0.000 Cl
ATOM     10  C   UNL     1      -0.213  14.992  18.651  0.00  0.00    +0.000 A 
ATOM     11  C   UNL     1      -0.131  13.588  18.638  0.00  0.00    +0.000 A 
BRANCH  11  12
ATOM     12  C   UNL     1      -1.430  12.872  18.719  0.00  0.00    +0.000 C 
ATOM     13  O   UNL     1      -1.692  12.114  17.791  0.00  0.00    +0.000 OA
ATOM     14  N   UNL     1      -2.228  13.152  19.815  0.00  0.00    +0.000 N 
ATOM     15  C   UNL     1      -3.551  12.690  19.946  0.00  0.00    +0.000 A 
ATOM     16  C   UNL     1      -4.246  12.965  21.121  0.00  0.00    +0.000 A 
ATOM     17  C   UNL     1      -5.555  12.488  21.263  0.00  0.00    +0.000 A 
ATOM     18  C   UNL     1      -6.141  11.776  20.225  0.00  0.00    +0.000 A 
ATOM     19 CL   UNL     1      -7.735  11.160  20.360  0.00  0.00    +0.000 Cl
ATOM     20  C   UNL     1      -5.395  11.571  19.083  0.00  0.00    +0.000 A 
ATOM     21  N   UNL     1      -4.124  12.007  18.938  0.00  0.00    +0.000 NA
ATOM     22  H   UNL     1      -1.868  13.762  20.536  0.00  0.00    +0.000 HD
ENDBRANCH  11  12
ENDBRANCH   3   5
BRANCH   1  28
ATOM     23  C   UNL     1       1.547   8.283  20.353  0.00  0.00    +0.000 A 
ATOM     24  C   UNL     1       2.068   7.008  20.062  0.00  0.00    +0.000 A 
ATOM     25  C   UNL     1       2.682   6.734  18.826  0.00  0.00    +0.000 A 
ATOM     26  C   UNL     1       2.639   7.697  17.824  0.00  0.00    +0.000 A 
ATOM     27  C   UNL     1       2.148   8.969  18.104  0.00  0.00    +0.000 A 
ATOM     28  C   UNL     1       1.625   9.284  19.371  0.00  0.00    +0.000 A 
BRANCH  25  29
ATOM     29  C   UNL     1       3.448   5.443  18.645  0.00  0.00    +0.000 C 
ATOM     30  N   UNL     1       4.711   5.424  18.961  0.00  0.00    +0.000 NA
ATOM     31  N   UNL     1       2.875   4.294  18.100  0.00  0.00    +0.000 N 
ATOM     32  C   UNL     1       1.477   4.109  17.735  0.00  0.00    +0.000 C 
ATOM     33  C   UNL     1       3.669   3.072  17.943  0.00  0.00    +0.000 C 
ATOM     34  H   UNL     1       5.031   6.305  19.363  0.00  0.00    +0.000 HD
ENDBRANCH  25  29
BRANCH  23  36
ATOM     35  C   UNL     1      -0.384   8.317  21.750  0.00  0.00    +0.000 C 
ATOM     36  O   UNL     1       1.000   8.620  21.566  0.00  0.00    +0.000 OA
ENDBRANCH  23  36
ENDBRANCH   1  28
TORSDOF 5
ENDMDL
MODEL 2
REMARK VINA RESULT:      -7.9      3.202      6.111
REMARK  Name = 
REMARK  8 active torsions:
REMARK  status: ('A' for Active; 'I' for Inactive)
REMARK    1  A    between atoms: C_1  and  O_2
REMARK    2  A    between atoms: O_2  and  C_3
REMARK    3  A    between atoms: C_5  and  C_6
REMARK    4  A    between atoms: N_8  and  C_9
REMARK    5  A    between atoms: N_8  and  C_10
REMARK    6  A    between atoms: C_13  and  C_14
REMARK    7  A    between atoms: N_16  and  C_17
REMARK    8  A    between atoms: C_23  and  C_24
REMARK                            x       y       z     vdW  Elec       q    Type
REMARK                         _______ _______ _______ _____ _____    ______ ____
ROOT
ATOM      1  C   UNL     1       0.555  10.850  19.759  0.00  0.00    +0.000 C 
ATOM      2  O   UNL     1      -0.334  11.323  19.052  0.00  0.00    +0.000 OA
ATOM      3  N   UNL     1       1.093  11.519  20.838  0.00  0.00    +0.000 N 
ATOM      4  H   UNL     1       1.994  11.209  21.198  0.00  0.00    +0.000 HD
ENDROOT
BRANCH   3   5
ATOM      5  C   UNL     1       0.503  12.683  21.388  0.00  0.00    +0.000 A 
ATOM      6  C   UNL     1      -0.589  12.548  22.267  0.00  0.00    +0.000 A 
ATOM      7  C   UNL     1      -1.138  13.659  22.918  0.00  0.00    +0.000 A 
ATOM      8  C   UNL     1      -0.607  14.923  22.664  0.00  0.00    +0.000 A 
ATOM      9 CL   UNL     1      -1.278  16.292  23.464  0.00  0.00    +0.000 Cl
ATOM     10  C   UNL     1       0.462  15.076  21.797  0.00  0.00    +0.000 A 
ATOM     11  C   UNL     1       1.020  13.961  21.148  0.00  0.00    +0.000 A 
BRANCH  11  12
ATOM     12  C   UNL     1       2.122  14.262  20.198  0.00  0.00    +0.000 C 
ATOM     13  O   UNL     1       1.952  13.903  19.038  0.00  0.00    +0.000 OA
ATOM     14  N   UNL     1       3.240  14.888  20.720  0.00  0.00    +0.000 N 
ATOM     15  C   UNL     1       4.429  15.081  19.991  0.00  0.00    +0.000 A 
ATOM     16  C   UNL     1       5.472  15.789  20.582  0.00  0.00    +0.000 A 
ATOM     17  C   UNL     1       6.649  16.002  19.852  0.00  0.00    +0.000 A 
ATOM     18  C   UNL     1       6.760  15.485  18.569  0.00  0.00    +0.000 A 
ATOM     19 CL   UNL     1       8.173  15.733  17.631  0.00  0.00    +0.000 Cl
ATOM     20  C   UNL     1       5.691  14.772  18.066  0.00  0.00    +0.000 A 
ATOM     21  N   UNL     1       4.542  14.574  18.750  0.00  0.00    +0.000 NA
ATOM     22  H   UNL     1       3.230  15.176  21.689  0.00  0.00    +0.000 HD
ENDBRANCH  11  12
ENDBRANCH   3   5
BRANCH   1  28
ATOM     23  C   UNL     1       1.385   8.466  20.257  0.00  0.00    +0.000 A 
ATOM     24  C   UNL     1       2.072   7.338  19.772  0.00  0.00    +0.000 A 
ATOM     25  C   UNL     1       2.515   7.269  18.437  0.00  0.00    +0.000 A 
ATOM     26  C   UNL     1       2.135   8.270  17.550  0.00  0.00    +0.000 A 
ATOM     27  C   UNL     1       1.475   9.402  18.021  0.00  0.00    +0.000 A 
ATOM     28  C   UNL     1       1.120   9.526  19.375  0.00  0.00    +0.000 A 
BRANCH  25  29
ATOM     29  C   UNL     1       3.460   6.165  18.022  0.00  0.00    +0.000 C 
ATOM     30  N   UNL     1       4.730   6.439  17.936  0.00  0.00    +0.000 NA
ATOM     31  N   UNL     1       3.023   4.887  17.671  0.00  0.00    +0.000 N 
ATOM     32  C   UNL     1       1.659   4.383  17.752  0.00  0.00    +0.000 C 
ATOM     33  C   UNL     1       3.987   3.858  17.271  0.00  0.00    +0.000 C 
ATOM     34  H   UNL     1       4.950   7.392  18.225  0.00  0.00    +0.000 HD
ENDBRANCH  25  29
BRANCH  23  36
ATOM     35  C   UNL     1      -0.385   8.366  21.850  0.00  0.00    +0.000 C 
ATOM     36  O   UNL     1       0.992   8.610  21.565  0.00  0.00    +0.000 OA
ENDBRANCH  23  36
ENDBRANCH   1  28
TORSDOF 5
ENDMDL
MODEL 3
REMARK VINA RESULT:      -7.9      1.070      1.345
REMARK  Name = 
REMARK  8 active torsions:
REMARK  status: ('A' for Active; 'I' for Inactive)
REMARK    1  A    between atoms: C_1  and  O_2
REMARK    2  A    between atoms: O_2  and  C_3
REMARK    3  A    between atoms: C_5  and  C_6
REMARK    4  A    between atoms: N_8  and  C_9
REMARK    5  A    between atoms: N_8  and  C_10
REMARK    6  A    between atoms: C_13  and  C_14
REMARK    7  A    between atoms: N_16  and  C_17
REMARK    8  A    between atoms: C_23  and  C_24
REMARK                            x       y       z     vdW  Elec       q    Type
REMARK                         _______ _______ _______ _____ _____    ______ ____
ROOT
ATOM      1  C   UNL     1       1.889  10.573  18.602  0.00  0.00    +0.000 C 
ATOM      2  O   UNL     1       2.364  10.926  17.523  0.00  0.00    +0.000 OA
ATOM      3  N   UNL     1       1.496  11.465  19.578  0.00  0.00    +0.000 N 
ATOM      4  H   UNL     1       1.383  11.120  20.530  0.00  0.00    +0.000 HD
ENDROOT
BRANCH   3   5
ATOM      5  C   UNL     1       1.360  12.853  19.335  0.00  0.00    +0.000 A 
ATOM      6  C   UNL     1       2.505  13.672  19.376  0.00  0.00    +0.000 A 
ATOM      7  C   UNL     1       2.439  15.029  19.037  0.00  0.00    +0.000 A 
ATOM      8  C   UNL     1       1.208  15.579  18.683  0.00  0.00    +0.000 A 
ATOM      9 CL   UNL     1       1.123  17.248  18.265  0.00  0.00    +0.000 Cl
ATOM     10  C   UNL     1       0.070  14.792  18.644  0.00  0.00    +0.000 A 
ATOM     11  C   UNL     1       0.134  13.427  18.975  0.00  0.00    +0.000 A 
BRANCH  11  12
ATOM     12  C   UNL     1      -1.163  12.703  18.953  0.00  0.00    +0.000 C 
ATOM     13  O   UNL     1      -1.297  11.855  18.078  0.00  0.00    +0.000 OA
ATOM     14  N   UNL     1      -2.100  13.076  19.901  0.00  0.00    +0.000 N 
ATOM     15  C   UNL     1      -3.428  12.610  19.900  0.00  0.00    +0.000 A 
ATOM     16  C   UNL     1      -4.273  12.987  20.940  0.00  0.00    +0.000 A 
ATOM     17  C   UNL     1      -5.590  12.507  20.954  0.00  0.00    +0.000 A 
ATOM     18  C   UNL     1      -6.030  11.689  19.922  0.00  0.00    +0.000 A 
ATOM     19 CL   UNL     1      -7.627  11.066  19.904  0.00  0.00    +0.000 Cl
ATOM     20  C   UNL     1      -5.138  11.385  18.915  0.00  0.00    +0.000 A 
ATOM     21  N   UNL     1      -3.860  11.824  18.897  0.00  0.00    +0.000 NA
ATOM     22  H   UNL     1      -1.840  13.758  20.600  0.00  0.00    +0.000 HD
ENDBRANCH  11  12
ENDBRANCH   3   5
BRANCH   1  28
ATOM     23  C   UNL     1       1.498   8.538  20.126  0.00  0.00    +0.000 A 
ATOM     24  C   UNL     1       1.624   7.144  20.277  0.00  0.00    +0.000 A 
ATOM     25  C   UNL     1       2.075   6.332  19.220  0.00  0.00    +0.000 A 
ATOM     26  C   UNL     1       2.258   6.901  17.965  0.00  0.00    +0.000 A 
ATOM     27  C   UNL     1       2.160   8.281  17.806  0.00  0.00    +0.000 A 
ATOM     28  C   UNL     1       1.809   9.113  18.883  0.00  0.00    +0.000 A 
BRANCH  25  29
ATOM     29  C   UNL     1       2.435   4.889  19.492  0.00  0.00    +0.000 C 
ATOM     30  N   UNL     1       1.472   4.047  19.734  0.00  0.00    +0.000 NA
ATOM     31  N   UNL     1       3.754   4.437  19.553  0.00  0.00    +0.000 N 
ATOM     32  C   UNL     1       4.952   5.213  19.265  0.00  0.00    +0.000 C 
ATOM     33  C   UNL     1       4.042   3.026  19.827  0.00  0.00    +0.000 C 
ATOM     34  H   UNL     1       0.547   4.470  19.652  0.00  0.00    +0.000 HD
ENDBRANCH  25  29
BRANCH  23  36
ATOM     35  C   UNL     1      -0.098   9.076  21.812  0.00  0.00    +0.000 C 
ATOM     36  O   UNL     1       1.127   9.380  21.145  0.00  0.00    +0.000 OA
ENDBRANCH  23  36
ENDBRANCH   1  28
TORSDOF 5
ENDMDL
MODEL 4
REMARK VINA RESULT:      -7.8      4.334      8.567
REMARK  Name = 
REMARK  8 active torsions:
REMARK  status: ('A' for Active; 'I' for Inactive)
REMARK    1  A    between atoms: C_1  and  O_2
REMARK    2  A    between atoms: O_2  and  C_3
REMARK    3  A    between atoms: C_5  and  C_6
REMARK    4  A    between atoms: N_8  and  C_9
REMARK    5  A    between atoms: N_8  and  C_10
REMARK    6  A    between atoms: C_13  and  C_14
REMARK    7  A    between atoms: N_16  and  C_17
REMARK    8  A    between atoms: C_23  and  C_24
REMARK                            x       y       z     vdW  Elec       q    Type
REMARK                         _______ _______ _______ _____ _____    ______ ____
ROOT
ATOM      1  C   UNL     1       1.810  13.614  18.954  0.00  0.00    +0.000 C 
ATOM      2  O   UNL     1       1.035  14.324  18.313  0.00  0.00    +0.000 OA
ATOM      3  N   UNL     1       1.444  12.398  19.492  0.00  0.00    +0.000 N 
ATOM      4  H   UNL     1       2.022  12.003  20.231  0.00  0.00    +0.000 HD
ENDROOT
BRANCH   3   5
ATOM      5  C   UNL     1       0.241  11.738  19.141  0.00  0.00    +0.000 A 
ATOM      6  C   UNL     1      -0.988  12.386  19.371  0.00  0.00    +0.000 A 
ATOM      7  C   UNL     1      -2.197  11.823  18.944  0.00  0.00    +0.000 A 
ATOM      8  C   UNL     1      -2.178  10.583  18.308  0.00  0.00    +0.000 A 
ATOM      9 CL   UNL     1      -3.662   9.886  17.779  0.00  0.00    +0.000 Cl
ATOM     10  C   UNL     1      -0.980   9.927  18.079  0.00  0.00    +0.000 A 
ATOM     11  C   UNL     1       0.236  10.494  18.499  0.00  0.00    +0.000 A 
BRANCH  11  12
ATOM     12  C   UNL     1       1.445   9.668  18.250  0.00  0.00    +0.000 C 
ATOM     13  O   UNL     1       2.222  10.085  17.399  0.00  0.00    +0.000 OA
ATOM     14  N   UNL     1       1.561   8.498  18.981  0.00  0.00    +0.000 N 
ATOM     15  C   UNL     1       2.552   7.529  18.736  0.00  0.00    +0.000 A 
ATOM     16  C   UNL     1       2.629   6.420  19.575  0.00  0.00    +0.000 A 
ATOM     17  C   UNL     1       3.628   5.464  19.348  0.00  0.00    +0.000 A 
ATOM     18  C   UNL     1       4.502   5.629  18.282  0.00  0.00    +0.000 A 
ATOM     19 CL   UNL     1       5.750   4.494  17.974  0.00  0.00    +0.000 Cl
ATOM     20  C   UNL     1       4.341   6.741  17.481  0.00  0.00    +0.000 A 
ATOM     21  N   UNL     1       3.395   7.681  17.698  0.00  0.00    +0.000 NA
ATOM     22  H   UNL     1       0.870   8.297  19.691  0.00  0.00    +0.000 HD
ENDBRANCH  11  12
ENDBRANCH   3   5
BRANCH   1  28
ATOM     23  C   UNL     1       3.698  14.462  20.482  0.00  0.00    +0.000 A 
ATOM     24  C   UNL     1       4.949  15.102  20.555  0.00  0.00    +0.000 A 
ATOM     25  C   UNL     1       5.667  15.440  19.392  0.00  0.00    +0.000 A 
ATOM     26  C   UNL     1       5.197  15.000  18.160  0.00  0.00    +0.000 A 
ATOM     27  C   UNL     1       3.950  14.387  18.070  0.00  0.00    +0.000 A 
ATOM     28  C   UNL     1       3.178  14.138  19.218  0.00  0.00    +0.000 A 
BRANCH  25  29
ATOM     29  C   UNL     1       6.875  16.343  19.499  0.00  0.00    +0.000 C 
ATOM     30  N   UNL     1       6.694  17.629  19.415  0.00  0.00    +0.000 NA
ATOM     31  N   UNL     1       8.175  15.854  19.622  0.00  0.00    +0.000 N 
ATOM     32  C   UNL     1       8.569  14.461  19.780  0.00  0.00    +0.000 C 
ATOM     33  C   UNL     1       9.309  16.778  19.716  0.00  0.00    +0.000 C 
ATOM     34  H   UNL     1       5.709  17.887  19.340  0.00  0.00    +0.000 HD
ENDBRANCH  25  29
BRANCH  23  36
ATOM     35  C   UNL     1       2.137  15.239  22.108  0.00  0.00    +0.000 C 
ATOM     36  O   UNL     1       2.929  14.173  21.582  0.00  0.00    +0.000 OA
ENDBRANCH  23  36
ENDBRANCH   1  28
TORSDOF 5
ENDMDL
MODEL 5
REMARK VINA RESULT:      -7.8      0.669      1.085
REMARK  Name = 
REMARK  8 active torsions:
REMARK  status: ('A' for Active; 'I' for Inactive)
REMARK    1  A    between atoms: C_1  and  O_2
REMARK    2  A    between atoms: O_2  and  C_3
REMARK    3  A    between atoms: C_5  and  C_6
REMARK    4  A    between atoms: N_8  and  C_9
REMARK    5  A    between atoms: N_8  and  C_10
REMARK    6  A    between atoms: C_13  and  C_14
REMARK    7  A    between atoms: N_16  and  C_17
REMARK    8  A    between atoms: C_23  and  C_24
REMARK                            x       y       z     vdW  Elec       q    Type
REMARK                         _______ _______ _______ _____ _____    ______ ____
ROOT
ATOM      1  C   UNL     1       1.271  10.691  19.476  0.00  0.00    +0.000 C 
ATOM      2  O   UNL     1       1.132  11.023  20.653  0.00  0.00    +0.000 OA
ATOM      3  N   UNL     1       1.067  11.557  18.422  0.00  0.00    +0.000 N 
ATOM      4  H   UNL     1       0.921  11.162  17.494  0.00  0.00    +0.000 HD
ENDROOT
BRANCH   3   5
ATOM      5  C   UNL     1       0.936  12.956  18.596  0.00  0.00    +0.000 A 
ATOM      6  C   UNL     1       2.092  13.760  18.581  0.00  0.00    +0.000 A 
ATOM      7  C   UNL     1       2.006  15.156  18.642  0.00  0.00    +0.000 A 
ATOM      8  C   UNL     1       0.751  15.753  18.749  0.00  0.00    +0.000 A 
ATOM      9 CL   UNL     1       0.640  17.470  18.821  0.00  0.00    +0.000 Cl
ATOM     10  C   UNL     1      -0.397  14.979  18.772  0.00  0.00    +0.000 A 
ATOM     11  C   UNL     1      -0.315  13.577  18.703  0.00  0.00    +0.000 A 
BRANCH  11  12
ATOM     12  C   UNL     1      -1.610  12.856  18.797  0.00  0.00    +0.000 C 
ATOM     13  O   UNL     1      -1.865  12.077  17.886  0.00  0.00    +0.000 OA
ATOM     14  N   UNL     1      -2.412  13.157  19.884  0.00  0.00    +0.000 N 
ATOM     15  C   UNL     1      -3.734  12.691  20.022  0.00  0.00    +0.000 A 
ATOM     16  C   UNL     1      -4.432  12.989  21.189  0.00  0.00    +0.000 A 
ATOM     17  C   UNL     1      -5.740  12.509  21.339  0.00  0.00    +0.000 A 
ATOM     18  C   UNL     1      -6.319  11.771  20.316  0.00  0.00    +0.000 A 
ATOM     19 CL   UNL     1      -7.911  11.150  20.460  0.00  0.00    +0.000 Cl
ATOM     20  C   UNL     1      -5.569  11.544  19.180  0.00  0.00    +0.000 A 
ATOM     21  N   UNL     1      -4.300  11.983  19.028  0.00  0.00    +0.000 NA
ATOM     22  H   UNL     1      -2.057  13.785  20.592  0.00  0.00    +0.000 HD
ENDBRANCH  11  12
ENDBRANCH   3   5
BRANCH   1  28
ATOM     23  C   UNL     1       1.605   8.225  20.129  0.00  0.00    +0.000 A 
ATOM     24  C   UNL     1       2.101   6.966  19.741  0.00  0.00    +0.000 A 
ATOM     25  C   UNL     1       2.610   6.747  18.447  0.00  0.00    +0.000 A 
ATOM     26  C   UNL     1       2.483   7.753  17.495  0.00  0.00    +0.000 A 
ATOM     27  C   UNL     1       2.017   9.010  17.870  0.00  0.00    +0.000 A 
ATOM     28  C   UNL     1       1.602   9.268  19.188  0.00  0.00    +0.000 A 
BRANCH  25  29
ATOM     29  C   UNL     1       3.357   5.468  18.148  0.00  0.00    +0.000 C 
ATOM     30  N   UNL     1       2.745   4.335  18.344  0.00  0.00    +0.000 NA
ATOM     31  N   UNL     1       4.688   5.449  17.731  0.00  0.00    +0.000 N 
ATOM     32  C   UNL     1       5.515   6.605  17.413  0.00  0.00    +0.000 C 
ATOM     33  C   UNL     1       5.363   4.176  17.462  0.00  0.00    +0.000 C 
ATOM     34  H   UNL     1       1.774   4.454  18.634  0.00  0.00    +0.000 HD
ENDBRANCH  25  29
BRANCH  23  36
ATOM     35  C   UNL     1      -0.201   8.189  21.684  0.00  0.00    +0.000 C 
ATOM     36  O   UNL     1       1.162   8.508  21.397  0.00  0.00    +0.000 OA
ENDBRANCH  23  36
ENDBRANCH   1  28
TORSDOF 5
ENDMDL
MODEL 6
REMARK VINA RESULT:      -7.7      3.077      5.900
REMARK  Name = 
REMARK  8 active torsions:
REMARK  status: ('A' for Active; 'I' for Inactive)
REMARK    1  A    between atoms: C_1  and  O_2
REMARK    2  A    between atoms: O_2  and  C_3
REMARK    3  A    between atoms: C_5  and  C_6
REMARK    4  A    between atoms: N_8  and  C_9
REMARK    5  A    between atoms: N_8  and  C_10
REMARK    6  A    between atoms: C_13  and  C_14
REMARK    7  A    between atoms: N_16  and  C_17
REMARK    8  A    between atoms: C_23  and  C_24
REMARK                            x       y       z     vdW  Elec       q    Type
REMARK                         _______ _______ _______ _____ _____    ______ ____
ROOT
ATOM      1  C   UNL     1       0.691   9.778  21.490  0.00  0.00    +0.000 C 
ATOM      2  O   UNL     1       0.942   9.686  22.691  0.00  0.00    +0.000 OA
ATOM      3  N   UNL     1      -0.223  10.676  20.980  0.00  0.00    +0.000 N 
ATOM      4  H   UNL     1      -0.588  10.514  20.043  0.00  0.00    +0.000 HD
ENDROOT
BRANCH   3   5
ATOM      5  C   UNL     1      -0.756  11.742  21.745  0.00  0.00    +0.000 A 
ATOM      6  C   UNL     1      -1.773  11.471  22.681  0.00  0.00    +0.000 A 
ATOM      7  C   UNL     1      -2.257  12.469  23.535  0.00  0.00    +0.000 A 
ATOM      8  C   UNL     1      -1.739  13.759  23.432  0.00  0.00    +0.000 A 
ATOM      9 CL   UNL     1      -2.329  14.989  24.482  0.00  0.00    +0.000 Cl
ATOM     10  C   UNL     1      -0.743  14.046  22.514  0.00  0.00    +0.000 A 
ATOM     11  C   UNL     1      -0.249  13.044  21.659  0.00  0.00    +0.000 A 
BRANCH  11  12
ATOM     12  C   UNL     1       0.774  13.489  20.679  0.00  0.00    +0.000 C 
ATOM     13  O   UNL     1       0.482  13.363  19.494  0.00  0.00    +0.000 OA
ATOM     14  N   UNL     1       1.963  13.972  21.196  0.00  0.00    +0.000 N 
ATOM     15  C   UNL     1       3.088  14.267  20.402  0.00  0.00    +0.000 A 
ATOM     16  C   UNL     1       4.213  14.819  21.010  0.00  0.00    +0.000 A 
ATOM     17  C   UNL     1       5.326  15.134  20.220  0.00  0.00    +0.000 A 
ATOM     18  C   UNL     1       5.295  14.869  18.858  0.00  0.00    +0.000 A 
ATOM     19 CL   UNL     1       6.627  15.251  17.848  0.00  0.00    +0.000 Cl
ATOM     20  C   UNL     1       4.153  14.295  18.338  0.00  0.00    +0.000 A 
ATOM     21  N   UNL     1       3.064  14.003  19.083  0.00  0.00    +0.000 NA
ATOM     22  H   UNL     1       2.055  14.070  22.198  0.00  0.00    +0.000 HD
ENDBRANCH  11  12
ENDBRANCH   3   5
BRANCH   1  28
ATOM     23  C   UNL     1       1.598   9.037  19.199  0.00  0.00    +0.000 A 
ATOM     24  C   UNL     1       2.083   7.972  18.419  0.00  0.00    +0.000 A 
ATOM     25  C   UNL     1       2.301   6.697  18.975  0.00  0.00    +0.000 A 
ATOM     26  C   UNL     1       2.173   6.532  20.350  0.00  0.00    +0.000 A 
ATOM     27  C   UNL     1       1.672   7.571  21.131  0.00  0.00    +0.000 A 
ATOM     28  C   UNL     1       1.354   8.818  20.565  0.00  0.00    +0.000 A 
BRANCH  25  29
ATOM     29  C   UNL     1       2.578   5.524  18.064  0.00  0.00    +0.000 C 
ATOM     30  N   UNL     1       1.579   4.769  17.706  0.00  0.00    +0.000 NA
ATOM     31  N   UNL     1       3.863   5.182  17.641  0.00  0.00    +0.000 N 
ATOM     32  C   UNL     1       5.088   5.927  17.894  0.00  0.00    +0.000 C 
ATOM     33  C   UNL     1       4.071   4.029  16.761  0.00  0.00    +0.000 C 
ATOM     34  H   UNL     1       0.682   5.109  18.054  0.00  0.00    +0.000 HD
ENDBRANCH  25  29
BRANCH  23  36
ATOM     35  C   UNL     1       2.285  10.865  17.832  0.00  0.00    +0.000 C 
ATOM     36  O   UNL     1       1.306  10.278  18.690  0.00  0.00    +0.000 OA
ENDBRANCH  23  36
ENDBRANCH   1  28
TORSDOF 5
ENDMDL
MODEL 7
REMARK VINA RESULT:      -7.7      2.735      6.148
REMARK  Name = 
REMARK  8 active torsions:
REMARK  status: ('A' for Active; 'I' for Inactive)
REMARK    1  A    between atoms: C_1  and  O_2
REMARK    2  A    between atoms: O_2  and  C_3
REMARK    3  A    between atoms: C_5  and  C_6
REMARK    4  A    between atoms: N_8  and  C_9
REMARK    5  A    between atoms: N_8  and  C_10
REMARK    6  A    between atoms: C_13  and  C_14
REMARK    7  A    between atoms: N_16  and  C_17
REMARK    8  A    between atoms: C_23  and  C_24
REMARK                            x       y       z     vdW  Elec       q    Type
REMARK                         _______ _______ _______ _____ _____    ______ ____
ROOT
ATOM      1  C   UNL     1       0.589  10.529  18.859  0.00  0.00    +0.000 C 
ATOM      2  O   UNL     1      -0.297  10.660  18.016  0.00  0.00    +0.000 OA
ATOM      3  N   UNL     1       1.081  11.581  19.603  0.00  0.00    +0.000 N 
ATOM      4  H   UNL     1       1.983  11.468  20.063  0.00  0.00    +0.000 HD
ENDROOT
BRANCH   3   5
ATOM      5  C   UNL     1       0.443  12.844  19.654  0.00  0.00    +0.000 A 
ATOM      6  C   UNL     1      -0.878  12.926  20.135  0.00  0.00    +0.000 A 
ATOM      7  C   UNL     1      -1.514  14.162  20.306  0.00  0.00    +0.000 A 
ATOM      8  C   UNL     1      -0.830  15.327  19.963  0.00  0.00    +0.000 A 
ATOM      9 CL   UNL     1      -1.607  16.850  20.174  0.00  0.00    +0.000 Cl
ATOM     10  C   UNL     1       0.467  15.267  19.482  0.00  0.00    +0.000 A 
ATOM     11  C   UNL     1       1.110  14.028  19.317  0.00  0.00    +0.000 A 
BRANCH  11  12
ATOM     12  C   UNL     1       2.477  14.091  18.738  0.00  0.00    +0.000 C 
ATOM     13  O   UNL     1       2.819  13.136  18.049  0.00  0.00    +0.000 OA
ATOM     14  N   UNL     1       3.237  15.204  19.055  0.00  0.00    +0.000 N 
ATOM     15  C   UNL     1       4.601  15.326  18.729  0.00  0.00    +0.000 A 
ATOM     16  C   UNL     1       5.258  16.517  19.027  0.00  0.00    +0.000 A 
ATOM     17  C   UNL     1       6.610  16.651  18.684  0.00  0.00    +0.000 A 
ATOM     18  C   UNL     1       7.270  15.590  18.079  0.00  0.00    +0.000 A 
ATOM     19 CL   UNL     1       8.920  15.713  17.628  0.00  0.00    +0.000 Cl
ATOM     20  C   UNL     1       6.554  14.435  17.843  0.00  0.00    +0.000 A 
ATOM     21  N   UNL     1       5.245  14.297  18.150  0.00  0.00    +0.000 NA
ATOM     22  H   UNL     1       2.812  15.945  19.595  0.00  0.00    +0.000 HD
ENDBRANCH  11  12
ENDBRANCH   3   5
BRANCH   1  28
ATOM     23  C   UNL     1       1.357   8.497  20.239  0.00  0.00    +0.000 A 
ATOM     24  C   UNL     1       2.105   7.305  20.254  0.00  0.00    +0.000 A 
ATOM     25  C   UNL     1       2.713   6.808  19.086  0.00  0.00    +0.000 A 
ATOM     26  C   UNL     1       2.446   7.429  17.871  0.00  0.00    +0.000 A 
ATOM     27  C   UNL     1       1.727   8.622  17.844  0.00  0.00    +0.000 A 
ATOM     28  C   UNL     1       1.203   9.181  19.022  0.00  0.00    +0.000 A 
BRANCH  25  29
ATOM     29  C   UNL     1       3.707   5.674  19.189  0.00  0.00    +0.000 C 
ATOM     30  N   UNL     1       4.976   5.965  19.213  0.00  0.00    +0.000 NA
ATOM     31  N   UNL     1       3.326   4.332  19.197  0.00  0.00    +0.000 N 
ATOM     32  C   UNL     1       1.964   3.816  19.225  0.00  0.00    +0.000 C 
ATOM     33  C   UNL     1       4.336   3.275  19.293  0.00  0.00    +0.000 C 
ATOM     34  H   UNL     1       5.152   6.970  19.217  0.00  0.00    +0.000 HD
ENDBRANCH  25  29
BRANCH  23  36
ATOM     35  C   UNL     1      -0.482   8.569  21.753  0.00  0.00    +0.000 C 
ATOM     36  O   UNL     1       0.802   9.058  21.362  0.00  0.00    +0.000 OA
ENDBRANCH  23  36
ENDBRANCH   1  28
TORSDOF 5
ENDMDL
MODEL 8
REMARK VINA RESULT:      -7.6      2.926      6.359
REMARK  Name = 
REMARK  8 active torsions:
REMARK  status: ('A' for Active; 'I' for Inactive)
REMARK    1  A    between atoms: C_1  and  O_2
REMARK    2  A    between atoms: O_2  and  C_3
REMARK    3  A    between atoms: C_5  and  C_6
REMARK    4  A    between atoms: N_8  and  C_9
REMARK    5  A    between atoms: N_8  and  C_10
REMARK    6  A    between atoms: C_13  and  C_14
REMARK    7  A    between atoms: N_16  and  C_17
REMARK    8  A    between atoms: C_23  and  C_24
REMARK                            x       y       z     vdW  Elec       q    Type
REMARK                         _______ _______ _______ _____ _____    ______ ____
ROOT
ATOM      1  C   UNL     1       0.460  11.141  18.955  0.00  0.00    +0.000 C 
ATOM      2  O   UNL     1      -0.476  11.300  18.172  0.00  0.00    +0.000 OA
ATOM      3  N   UNL     1       1.069  12.185  19.620  0.00  0.00    +0.000 N 
ATOM      4  H   UNL     1       1.993  12.029  20.019  0.00  0.00    +0.000 HD
ENDROOT
BRANCH   3   5
ATOM      5  C   UNL     1       0.515  13.487  19.669  0.00  0.00    +0.000 A 
ATOM      6  C   UNL     1      -0.797  13.656  20.152  0.00  0.00    +0.000 A 
ATOM      7  C   UNL     1      -1.350  14.931  20.320  0.00  0.00    +0.000 A 
ATOM      8  C   UNL     1      -0.592  16.049  19.973  0.00  0.00    +0.000 A 
ATOM      9 CL   UNL     1      -1.266  17.619  20.180  0.00  0.00    +0.000 Cl
ATOM     10  C   UNL     1       0.698  15.902  19.490  0.00  0.00    +0.000 A 
ATOM     11  C   UNL     1       1.259  14.623  19.328  0.00  0.00    +0.000 A 
BRANCH  11  12
ATOM     12  C   UNL     1       2.625  14.595  18.746  0.00  0.00    +0.000 C 
ATOM     13  O   UNL     1       2.900  13.623  18.051  0.00  0.00    +0.000 OA
ATOM     14  N   UNL     1       3.461  15.650  19.069  0.00  0.00    +0.000 N 
ATOM     15  C   UNL     1       4.830  15.680  18.741  0.00  0.00    +0.000 A 
ATOM     16  C   UNL     1       5.569  16.820  19.045  0.00  0.00    +0.000 A 
ATOM     17  C   UNL     1       6.926  16.862  18.701  0.00  0.00    +0.000 A 
ATOM     18  C   UNL     1       7.510  15.762  18.088  0.00  0.00    +0.000 A 
ATOM     19 CL   UNL     1       9.164  15.773  17.635  0.00  0.00    +0.000 Cl
ATOM     20  C   UNL     1       6.716  14.661  17.847  0.00  0.00    +0.000 A 
ATOM     21  N   UNL     1       5.401  14.612  18.155  0.00  0.00    +0.000 NA
ATOM     22  H   UNL     1       3.090  16.416  19.614  0.00  0.00    +0.000 HD
ENDBRANCH  11  12
ENDBRANCH   3   5
BRANCH   1  28
ATOM     23  C   UNL     1       1.141   9.088  20.347  0.00  0.00    +0.000 A 
ATOM     24  C   UNL     1       1.820   7.855  20.365  0.00  0.00    +0.000 A 
ATOM     25  C   UNL     1       2.375   7.309  19.191  0.00  0.00    +0.000 A 
ATOM     26  C   UNL     1       2.118   7.929  17.973  0.00  0.00    +0.000 A 
ATOM     27  C   UNL     1       1.467   9.160  17.944  0.00  0.00    +0.000 A 
ATOM     28  C   UNL     1       1.000   9.764  19.124  0.00  0.00    +0.000 A 
BRANCH  25  29
ATOM     29  C   UNL     1       3.305   6.122  19.291  0.00  0.00    +0.000 C 
ATOM     30  N   UNL     1       3.093   5.248  20.232  0.00  0.00    +0.000 NA
ATOM     31  N   UNL     1       4.412   5.957  18.458  0.00  0.00    +0.000 N 
ATOM     32  C   UNL     1       4.781   6.796  17.326  0.00  0.00    +0.000 C 
ATOM     33  C   UNL     1       5.283   4.788  18.606  0.00  0.00    +0.000 C 
ATOM     34  H   UNL     1       2.255   5.449  20.777  0.00  0.00    +0.000 HD
ENDBRANCH  25  29
BRANCH  23  36
ATOM     35  C   UNL     1      -0.421   9.018  22.146  0.00  0.00    +0.000 C 
ATOM     36  O   UNL     1       0.642   9.694  21.473  0.00  0.00    +0.000 OA
ENDBRANCH  23  36
ENDBRANCH   1  28
TORSDOF 5
ENDMDL
MODEL 9
REMARK VINA RESULT:      -7.6      4.362      8.521
REMARK  Name = 
REMARK  8 active torsions:
REMARK  status: ('A' for Active; 'I' for Inactive)
REMARK    1  A    between atoms: C_1  and  O_2
REMARK    2  A    between atoms: O_2  and  C_3
REMARK    3  A    between atoms: C_5  and  C_6
REMARK    4  A    between atoms: N_8  and  C_9
REMARK    5  A    between atoms: N_8  and  C_10
REMARK    6  A    between atoms: C_13  and  C_14
REMARK    7  A    between atoms: N_16  and  C_17
REMARK    8  A    between atoms: C_23  and  C_24
REMARK                            x       y       z     vdW  Elec       q    Type
REMARK                         _______ _______ _______ _____ _____    ______ ____
ROOT
ATOM      1  C   UNL     1       1.933  13.200  20.305  0.00  0.00    +0.000 C 
ATOM      2  O   UNL     1       1.309  12.958  21.338  0.00  0.00    +0.000 OA
ATOM      3  N   UNL     1       1.605  12.650  19.083  0.00  0.00    +0.000 N 
ATOM      4  H   UNL     1       2.308  12.660  18.345  0.00  0.00    +0.000 HD
ENDROOT
BRANCH   3   5
ATOM      5  C   UNL     1       0.382  11.975  18.852  0.00  0.00    +0.000 A 
ATOM      6  C   UNL     1      -0.829  12.672  19.023  0.00  0.00    +0.000 A 
ATOM      7  C   UNL     1      -2.058  12.081  18.704  0.00  0.00    +0.000 A 
ATOM      8  C   UNL     1      -2.076  10.768  18.238  0.00  0.00    +0.000 A 
ATOM      9 CL   UNL     1      -3.585  10.037  17.843  0.00  0.00    +0.000 Cl
ATOM     10  C   UNL     1      -0.896  10.063  18.070  0.00  0.00    +0.000 A 
ATOM     11  C   UNL     1       0.340  10.657  18.381  0.00  0.00    +0.000 A 
BRANCH  11  12
ATOM     12  C   UNL     1       1.528   9.780  18.216  0.00  0.00    +0.000 C 
ATOM     13  O   UNL     1       2.378  10.162  17.419  0.00  0.00    +0.000 OA
ATOM     14  N   UNL     1       1.545   8.609  18.953  0.00  0.00    +0.000 N 
ATOM     15  C   UNL     1       2.510   7.599  18.777  0.00  0.00    +0.000 A 
ATOM     16  C   UNL     1       2.485   6.491  19.620  0.00  0.00    +0.000 A 
ATOM     17  C   UNL     1       3.456   5.495  19.462  0.00  0.00    +0.000 A 
ATOM     18  C   UNL     1       4.406   5.619  18.458  0.00  0.00    +0.000 A 
ATOM     19 CL   UNL     1       5.625   4.433  18.236  0.00  0.00    +0.000 Cl
ATOM     20  C   UNL     1       4.346   6.734  17.647  0.00  0.00    +0.000 A 
ATOM     21  N   UNL     1       3.427   7.713  17.799  0.00  0.00    +0.000 NA
ATOM     22  H   UNL     1       0.800   8.439  19.615  0.00  0.00    +0.000 HD
ENDBRANCH  11  12
ENDBRANCH   3   5
BRANCH   1  28
ATOM     23  C   UNL     1       3.589  14.958  19.418  0.00  0.00    +0.000 A 
ATOM     24  C   UNL     1       4.837  15.586  19.591  0.00  0.00    +0.000 A 
ATOM     25  C   UNL     1       5.641  15.318  20.715  0.00  0.00    +0.000 A 
ATOM     26  C   UNL     1       5.125  14.533  21.740  0.00  0.00    +0.000 A 
ATOM     27  C   UNL     1       3.903  13.886  21.573  0.00  0.00    +0.000 A 
ATOM     28  C   UNL     1       3.139  14.067  20.407  0.00  0.00    +0.000 A 
BRANCH  25  29
ATOM     29  C   UNL     1       7.069  15.812  20.743  0.00  0.00    +0.000 C 
ATOM     30  N   UNL     1       7.353  16.839  21.491  0.00  0.00    +0.000 NA
ATOM     31  N   UNL     1       8.078  15.254  19.957  0.00  0.00    +0.000 N 
ATOM     32  C   UNL     1       7.965  14.080  19.103  0.00  0.00    +0.000 C 
ATOM     33  C   UNL     1       9.444  15.780  20.022  0.00  0.00    +0.000 C 
ATOM     34  H   UNL     1       6.554  17.166  22.035  0.00  0.00    +0.000 HD
ENDBRANCH  25  29
BRANCH  23  36
ATOM     35  C   UNL     1       3.399  15.793  17.194  0.00  0.00    +0.000 C 
ATOM     36  O   UNL     1       2.799  15.133  18.309  0.00  0.00    +0.000 OA
ENDBRANCH  23  36
ENDBRANCH   1  28
TORSDOF 5
ENDMDL
