MODEL 1
REMARK VINA RESULT:      -9.1      0.000      0.000
REMARK  Name = 
REMARK  8 active torsions:
REMARK  status: ('A' for Active; 'I' for Inactive)
REMARK    1  A    between atoms: C_1  and  N_2
REMARK    2  A    between atoms: C_5  and  C_6
REMARK    3  A    between atoms: C_5  and  C_12
REMARK    4  A    between atoms: C_16  and  C_17
REMARK    5  A    between atoms: C_20  and  C_21
REMARK    6  A    between atoms: C_21  and  C_22
REMARK    7  A    between atoms: C_21  and  C_23
REMARK    8  A    between atoms: C_21  and  C_24
REMARK                            x       y       z     vdW  Elec       q    Type
REMARK                         _______ _______ _______ _____ _____    ______ ____
ROOT
ATOM      1  C   UNL     1      -0.467  15.404  20.099  0.00  0.00    +0.000 C 
ATOM      2  N   UNL     1      -1.054  14.086  20.165  0.00  0.00    +0.000 N 
ATOM      3  C   UNL     1      -0.570  13.015  19.474  0.00  0.00    +0.000 C 
ATOM      4  O   UNL     1       0.384  13.034  18.713  0.00  0.00    +0.000 OA
ATOM      5  C   UNL     1      -1.468  11.798  19.863  0.00  0.00    +0.000 C 
ATOM      6  N   UNL     1      -2.433  12.441  20.829  0.00  0.00    +0.000 NA
ATOM      7  C   UNL     1      -2.081  13.682  20.928  0.00  0.00    +0.000 C 
ATOM      8  N   UNL     1      -2.728  14.524  21.760  0.00  0.00    +0.000 N 
ATOM      9  H   UNL     1      -3.615  14.154  22.089  0.00  0.00    +0.000 HD
ATOM     10  H   UNL     1      -2.767  15.503  21.506  0.00  0.00    +0.000 HD
ENDROOT
BRANCH   5  11
ATOM     11  C   UNL     1      -2.244  11.258  18.640  0.00  0.00    +0.000 A 
ATOM     12  C   UNL     1      -1.655  10.396  17.698  0.00  0.00    +0.000 A 
ATOM     13  C   UNL     1      -2.307  10.072  16.505  0.00  0.00    +0.000 A 
ATOM     14  C   UNL     1      -3.576  10.578  16.244  0.00  0.00    +0.000 A 
ATOM     15  C   UNL     1      -4.216  11.358  17.201  0.00  0.00    +0.000 A 
ATOM     16  C   UNL     1      -3.564  11.681  18.395  0.00  0.00    +0.000 A 
ENDBRANCH   5  11
BRANCH   5  17
ATOM     17  C   UNL     1      -0.632  10.729  20.587  0.00  0.00    +0.000 A 
ATOM     18  C   UNL     1      -0.557  10.667  21.988  0.00  0.00    +0.000 A 
ATOM     19  C   UNL     1       0.246   9.720  22.623  0.00  0.00    +0.000 A 
ATOM     20  C   UNL     1       0.990   8.817  21.868  0.00  0.00    +0.000 A 
ATOM     21  C   UNL     1       0.973   8.861  20.466  0.00  0.00    +0.000 A 
ATOM     22  C   UNL     1       0.143   9.818  19.852  0.00  0.00    +0.000 A 
BRANCH  21  23
ATOM     23  C   UNL     1       1.830   7.981  19.651  0.00  0.00    +0.000 A 
ATOM     24  C   UNL     1       2.278   8.372  18.383  0.00  0.00    +0.000 A 
ATOM     25  C   UNL     1       3.166   7.584  17.648  0.00  0.00    +0.000 A 
ATOM     26  C   UNL     1       3.633   6.360  18.143  0.00  0.00    +0.000 A 
ATOM     27  C   UNL     1       3.149   5.943  19.393  0.00  0.00    +0.000 A 
ATOM     28  C   UNL     1       2.276   6.744  20.135  0.00  0.00    +0.000 A 
BRANCH  26  29
ATOM     29  C   UNL     1       4.666   5.511  17.392  0.00  0.00    +0.000 C 
ATOM     30  C   UNL     1       5.883   5.138  18.265  0.00  0.00    +0.000 C 
ATOM     31  C   UNL     1       4.002   4.198  16.927  0.00  0.00    +0.000 C 
ATOM     32  C   UNL     1       5.191   6.277  16.162  0.00  0.00    +0.000 C 
ENDBRANCH  26  29
ENDBRANCH  21  23
ENDBRANCH   5  17
TORSDOF 4
ENDMDL
MODEL 2
REMARK VINA RESULT:      -9.0      1.780      3.656
REMARK  Name = 
REMARK  8 active torsions:
REMARK  status: ('A' for Active; 'I' for Inactive)
REMARK    1  A    between atoms: C_1  and  N_2
REMARK    2  A    between atoms: C_5  and  C_6
REMARK    3  A    between atoms: C_5  and  C_12
REMARK    4  A    between atoms: C_16  and  C_17
REMARK    5  A    between atoms: C_20  and  C_21
REMARK    6  A    between atoms: C_21  and  C_22
REMARK    7  A    between atoms: C_21  and  C_23
REMARK    8  A    between atoms: C_21  and  C_24
REMARK                            x       y       z     vdW  Elec       q    Type
REMARK                         _______ _______ _______ _____ _____    ______ ____
ROOT
ATOM      1  C   UNL     1      -4.281  11.791  18.250  0.00  0.00    +0.000 C 
ATOM      2  N   UNL     1      -2.849  11.753  18.434  0.00  0.00    +0.000 N 
ATOM      3  C   UNL     1      -2.235  12.086  19.604  0.00  0.00    +0.000 C 
ATOM      4  O   UNL     1      -2.798  12.471  20.616  0.00  0.00    +0.000 OA
ATOM      5  C   UNL     1      -0.706  11.866  19.377  0.00  0.00    +0.000 C 
ATOM      6  N   UNL     1      -0.687  11.384  17.946  0.00  0.00    +0.000 NA
ATOM      7  C   UNL     1      -1.919  11.339  17.558  0.00  0.00    +0.000 C 
ATOM      8  N   UNL     1      -2.245  10.899  16.325  0.00  0.00    +0.000 N 
ATOM      9  H   UNL     1      -1.446  10.847  15.699  0.00  0.00    +0.000 HD
ATOM     10  H   UNL     1      -3.076  11.280  15.891  0.00  0.00    +0.000 HD
ENDROOT
BRANCH   5  11
ATOM     11  C   UNL     1       0.075  13.197  19.484  0.00  0.00    +0.000 A 
ATOM     12  C   UNL     1      -0.553  14.449  19.356  0.00  0.00    +0.000 A 
ATOM     13  C   UNL     1       0.192  15.628  19.267  0.00  0.00    +0.000 A 
ATOM     14  C   UNL     1       1.580  15.582  19.334  0.00  0.00    +0.000 A 
ATOM     15  C   UNL     1       2.219  14.366  19.551  0.00  0.00    +0.000 A 
ATOM     16  C   UNL     1       1.474  13.187  19.643  0.00  0.00    +0.000 A 
ENDBRANCH   5  11
BRANCH   5  17
ATOM     17  C   UNL     1      -0.181  10.764  20.311  0.00  0.00    +0.000 A 
ATOM     18  C   UNL     1      -0.265  10.871  21.709  0.00  0.00    +0.000 A 
ATOM     19  C   UNL     1       0.262   9.882  22.538  0.00  0.00    +0.000 A 
ATOM     20  C   UNL     1       0.885   8.766  21.985  0.00  0.00    +0.000 A 
ATOM     21  C   UNL     1       1.021   8.629  20.596  0.00  0.00    +0.000 A 
ATOM     22  C   UNL     1       0.468   9.636  19.783  0.00  0.00    +0.000 A 
BRANCH  21  23
ATOM     23  C   UNL     1       1.764   7.506  19.996  0.00  0.00    +0.000 A 
ATOM     24  C   UNL     1       1.799   6.246  20.605  0.00  0.00    +0.000 A 
ATOM     25  C   UNL     1       2.422   5.157  19.994  0.00  0.00    +0.000 A 
ATOM     26  C   UNL     1       3.055   5.284  18.750  0.00  0.00    +0.000 A 
ATOM     27  C   UNL     1       3.063   6.558  18.159  0.00  0.00    +0.000 A 
ATOM     28  C   UNL     1       2.420   7.641  18.764  0.00  0.00    +0.000 A 
BRANCH  26  29
ATOM     29  C   UNL     1       3.680   4.089  18.021  0.00  0.00    +0.000 C 
ATOM     30  C   UNL     1       4.395   3.112  18.978  0.00  0.00    +0.000 C 
ATOM     31  C   UNL     1       2.571   3.303  17.291  0.00  0.00    +0.000 C 
ATOM     32  C   UNL     1       4.717   4.578  16.991  0.00  0.00    +0.000 C 
ENDBRANCH  26  29
ENDBRANCH  21  23
ENDBRANCH   5  17
TORSDOF 4
ENDMDL
MODEL 3
REMARK VINA RESULT:      -9.0      0.196      1.199
REMARK  Name = 
REMARK  8 active torsions:
REMARK  status: ('A' for Active; 'I' for Inactive)
REMARK    1  A    between atoms: C_1  and  N_2
REMARK    2  A    between atoms: C_5  and  C_6
REMARK    3  A    between atoms: C_5  and  C_12
REMARK    4  A    between atoms: C_16  and  C_17
REMARK    5  A    between atoms: C_20  and  C_21
REMARK    6  A    between atoms: C_21  and  C_22
REMARK    7  A    between atoms: C_21  and  C_23
REMARK    8  A    between atoms: C_21  and  C_24
REMARK                            x       y       z     vdW  Elec       q    Type
REMARK                         _______ _______ _______ _____ _____    ______ ____
ROOT
ATOM      1  C   UNL     1      -0.375  15.547  20.091  0.00  0.00    +0.000 C 
ATOM      2  N   UNL     1      -0.992  14.243  20.146  0.00  0.00    +0.000 N 
ATOM      3  C   UNL     1      -0.519  13.161  19.466  0.00  0.00    +0.000 C 
ATOM      4  O   UNL     1       0.451  13.157  18.726  0.00  0.00    +0.000 OA
ATOM      5  C   UNL     1      -1.452  11.965  19.839  0.00  0.00    +0.000 C 
ATOM      6  N   UNL     1      -2.422  12.631  20.783  0.00  0.00    +0.000 NA
ATOM      7  C   UNL     1      -2.044  13.863  20.888  0.00  0.00    +0.000 C 
ATOM      8  N   UNL     1      -2.689  14.722  21.706  0.00  0.00    +0.000 N 
ATOM      9  H   UNL     1      -3.591  14.372  22.016  0.00  0.00    +0.000 HD
ATOM     10  H   UNL     1      -2.700  15.701  21.450  0.00  0.00    +0.000 HD
ENDROOT
BRANCH   5  11
ATOM     11  C   UNL     1      -2.214  11.441  18.600  0.00  0.00    +0.000 A 
ATOM     12  C   UNL     1      -3.590  11.666  18.414  0.00  0.00    +0.000 A 
ATOM     13  C   UNL     1      -4.297  11.027  17.392  0.00  0.00    +0.000 A 
ATOM     14  C   UNL     1      -3.637  10.175  16.514  0.00  0.00    +0.000 A 
ATOM     15  C   UNL     1      -2.260  10.008  16.621  0.00  0.00    +0.000 A 
ATOM     16  C   UNL     1      -1.553  10.648  17.643  0.00  0.00    +0.000 A 
ENDBRANCH   5  11
BRANCH   5  17
ATOM     17  C   UNL     1      -0.656  10.879  20.581  0.00  0.00    +0.000 A 
ATOM     18  C   UNL     1      -0.602  10.823  21.983  0.00  0.00    +0.000 A 
ATOM     19  C   UNL     1       0.165   9.859  22.635  0.00  0.00    +0.000 A 
ATOM     20  C   UNL     1       0.896   8.932  21.896  0.00  0.00    +0.000 A 
ATOM     21  C   UNL     1       0.900   8.967  20.495  0.00  0.00    +0.000 A 
ATOM     22  C   UNL     1       0.105   9.942  19.863  0.00  0.00    +0.000 A 
BRANCH  21  23
ATOM     23  C   UNL     1       1.745   8.059  19.697  0.00  0.00    +0.000 A 
ATOM     24  C   UNL     1       2.216   8.427  18.431  0.00  0.00    +0.000 A 
ATOM     25  C   UNL     1       3.093   7.612  17.713  0.00  0.00    +0.000 A 
ATOM     26  C   UNL     1       3.525   6.381  18.224  0.00  0.00    +0.000 A 
ATOM     27  C   UNL     1       3.017   5.988  19.473  0.00  0.00    +0.000 A 
ATOM     28  C   UNL     1       2.155   6.816  20.198  0.00  0.00    +0.000 A 
BRANCH  26  29
ATOM     29  C   UNL     1       4.545   5.501  17.493  0.00  0.00    +0.000 C 
ATOM     30  C   UNL     1       5.107   6.167  16.219  0.00  0.00    +0.000 C 
ATOM     31  C   UNL     1       5.735   5.213  18.434  0.00  0.00    +0.000 C 
ATOM     32  C   UNL     1       3.895   4.167  17.075  0.00  0.00    +0.000 C 
ENDBRANCH  26  29
ENDBRANCH  21  23
ENDBRANCH   5  17
TORSDOF 4
ENDMDL
MODEL 4
REMARK VINA RESULT:      -9.0      1.578      3.494
REMARK  Name = 
REMARK  8 active torsions:
REMARK  status: ('A' for Active; 'I' for Inactive)
REMARK    1  A    between atoms: C_1  and  N_2
REMARK    2  A    between atoms: C_5  and  C_6
REMARK    3  A    between atoms: C_5  and  C_12
REMARK    4  A    between atoms: C_16  and  C_17
REMARK    5  A    between atoms: C_20  and  C_21
REMARK    6  A    between atoms: C_21  and  C_22
REMARK    7  A    between atoms: C_21  and  C_23
REMARK    8  A    between atoms: C_21  and  C_24
REMARK                            x       y       z     vdW  Elec       q    Type
REMARK                         _______ _______ _______ _____ _____    ______ ____
ROOT
ATOM      1  C   UNL     1      -4.310  11.925  18.571  0.00  0.00    +0.000 C 
ATOM      2  N   UNL     1      -2.873  11.923  18.713  0.00  0.00    +0.000 N 
ATOM      3  C   UNL     1      -2.239  12.076  19.910  0.00  0.00    +0.000 C 
ATOM      4  O   UNL     1      -2.787  12.250  20.986  0.00  0.00    +0.000 OA
ATOM      5  C   UNL     1      -0.709  11.972  19.613  0.00  0.00    +0.000 C 
ATOM      6  N   UNL     1      -0.713  11.749  18.120  0.00  0.00    +0.000 NA
ATOM      7  C   UNL     1      -1.954  11.714  17.758  0.00  0.00    +0.000 C 
ATOM      8  N   UNL     1      -2.297  11.482  16.474  0.00  0.00    +0.000 N 
ATOM      9  H   UNL     1      -1.516  11.578  15.831  0.00  0.00    +0.000 HD
ATOM     10  H   UNL     1      -3.156  11.893  16.132  0.00  0.00    +0.000 HD
ENDROOT
BRANCH   5  11
ATOM     11  C   UNL     1       0.016  13.299  19.935  0.00  0.00    +0.000 A 
ATOM     12  C   UNL     1      -0.593  14.553  19.749  0.00  0.00    +0.000 A 
ATOM     13  C   UNL     1       0.138  15.738  19.864  0.00  0.00    +0.000 A 
ATOM     14  C   UNL     1       1.487  15.695  20.200  0.00  0.00    +0.000 A 
ATOM     15  C   UNL     1       2.089  14.473  20.478  0.00  0.00    +0.000 A 
ATOM     16  C   UNL     1       1.357  13.288  20.365  0.00  0.00    +0.000 A 
ENDBRANCH   5  11
BRANCH   5  17
ATOM     17  C   UNL     1      -0.109  10.749  20.327  0.00  0.00    +0.000 A 
ATOM     18  C   UNL     1      -0.215  10.573  21.716  0.00  0.00    +0.000 A 
ATOM     19  C   UNL     1       0.379   9.481  22.349  0.00  0.00    +0.000 A 
ATOM     20  C   UNL     1       1.092   8.545  21.603  0.00  0.00    +0.000 A 
ATOM     21  C   UNL     1       1.252   8.695  20.218  0.00  0.00    +0.000 A 
ATOM     22  C   UNL     1       0.630   9.799  19.604  0.00  0.00    +0.000 A 
BRANCH  21  23
ATOM     23  C   UNL     1       2.086   7.772  19.429  0.00  0.00    +0.000 A 
ATOM     24  C   UNL     1       2.594   8.138  18.176  0.00  0.00    +0.000 A 
ATOM     25  C   UNL     1       3.461   7.305  17.468  0.00  0.00    +0.000 A 
ATOM     26  C   UNL     1       3.846   6.057  17.974  0.00  0.00    +0.000 A 
ATOM     27  C   UNL     1       3.301   5.666  19.207  0.00  0.00    +0.000 A 
ATOM     28  C   UNL     1       2.449   6.512  19.923  0.00  0.00    +0.000 A 
BRANCH  26  29
ATOM     29  C   UNL     1       4.855   5.154  17.254  0.00  0.00    +0.000 C 
ATOM     30  C   UNL     1       6.137   4.913  18.078  0.00  0.00    +0.000 C 
ATOM     31  C   UNL     1       4.206   3.780  16.985  0.00  0.00    +0.000 C 
ATOM     32  C   UNL     1       5.274   5.788  15.913  0.00  0.00    +0.000 C 
ENDBRANCH  26  29
ENDBRANCH  21  23
ENDBRANCH   5  17
TORSDOF 4
ENDMDL
MODEL 5
REMARK VINA RESULT:      -8.9      2.016      3.634
REMARK  Name = 
REMARK  8 active torsions:
REMARK  status: ('A' for Active; 'I' for Inactive)
REMARK    1  A    between atoms: C_1  and  N_2
REMARK    2  A    between atoms: C_5  and  C_6
REMARK    3  A    between atoms: C_5  and  C_12
REMARK    4  A    between atoms: C_16  and  C_17
REMARK    5  A    between atoms: C_20  and  C_21
REMARK    6  A    between atoms: C_21  and  C_22
REMARK    7  A    between atoms: C_21  and  C_23
REMARK    8  A    between atoms: C_21  and  C_24
REMARK                            x       y       z     vdW  Elec       q    Type
REMARK                         _______ _______ _______ _____ _____    ______ ____
ROOT
ATOM      1  C   UNL     1      -4.207  11.463  18.450  0.00  0.00    +0.000 C 
ATOM      2  N   UNL     1      -2.769  11.335  18.431  0.00  0.00    +0.000 N 
ATOM      3  C   UNL     1      -1.963  11.800  19.426  0.00  0.00    +0.000 C 
ATOM      4  O   UNL     1      -2.339  12.388  20.428  0.00  0.00    +0.000 OA
ATOM      5  C   UNL     1      -0.503  11.420  19.024  0.00  0.00    +0.000 C 
ATOM      6  N   UNL     1      -0.733  10.714  17.710  0.00  0.00    +0.000 NA
ATOM      7  C   UNL     1      -2.012  10.710  17.516  0.00  0.00    +0.000 C 
ATOM      8  N   UNL     1      -2.549  10.106  16.436  0.00  0.00    +0.000 N 
ATOM      9  H   UNL     1      -1.862   9.887  15.720  0.00  0.00    +0.000 HD
ATOM     10  H   UNL     1      -3.414  10.480  16.066  0.00  0.00    +0.000 HD
ENDROOT
BRANCH   5  11
ATOM     11  C   UNL     1       0.361  12.680  18.788  0.00  0.00    +0.000 A 
ATOM     12  C   UNL     1       1.759  12.617  18.645  0.00  0.00    +0.000 A 
ATOM     13  C   UNL     1       2.539  13.776  18.622  0.00  0.00    +0.000 A 
ATOM     14  C   UNL     1       1.934  15.026  18.711  0.00  0.00    +0.000 A 
ATOM     15  C   UNL     1       0.547  15.116  18.762  0.00  0.00    +0.000 A 
ATOM     16  C   UNL     1      -0.233  13.956  18.782  0.00  0.00    +0.000 A 
ENDBRANCH   5  11
BRANCH   5  17
ATOM     17  C   UNL     1       0.096  10.443  20.049  0.00  0.00    +0.000 A 
ATOM     18  C   UNL     1       0.175  10.755  21.416  0.00  0.00    +0.000 A 
ATOM     19  C   UNL     1       0.766   9.874  22.321  0.00  0.00    +0.000 A 
ATOM     20  C   UNL     1       1.291   8.663  21.875  0.00  0.00    +0.000 A 
ATOM     21  C   UNL     1       1.263   8.321  20.516  0.00  0.00    +0.000 A 
ATOM     22  C   UNL     1       0.649   9.223  19.627  0.00  0.00    +0.000 A 
BRANCH  21  23
ATOM     23  C   UNL     1       1.903   7.092  20.011  0.00  0.00    +0.000 A 
ATOM     24  C   UNL     1       1.795   5.879  20.701  0.00  0.00    +0.000 A 
ATOM     25  C   UNL     1       2.318   4.694  20.180  0.00  0.00    +0.000 A 
ATOM     26  C   UNL     1       2.990   4.673  18.951  0.00  0.00    +0.000 A 
ATOM     27  C   UNL     1       3.141   5.897  18.279  0.00  0.00    +0.000 A 
ATOM     28  C   UNL     1       2.598   7.078  18.794  0.00  0.00    +0.000 A 
BRANCH  26  29
ATOM     29  C   UNL     1       3.508   3.376  18.319  0.00  0.00    +0.000 C 
ATOM     30  C   UNL     1       4.286   2.494  19.317  0.00  0.00    +0.000 C 
ATOM     31  C   UNL     1       2.311   2.551  17.799  0.00  0.00    +0.000 C 
ATOM     32  C   UNL     1       4.451   3.696  17.143  0.00  0.00    +0.000 C 
ENDBRANCH  26  29
ENDBRANCH  21  23
ENDBRANCH   5  17
TORSDOF 4
ENDMDL
MODEL 6
REMARK VINA RESULT:      -8.9      0.874      1.304
REMARK  Name = 
REMARK  8 active torsions:
REMARK  status: ('A' for Active; 'I' for Inactive)
REMARK    1  A    between atoms: C_1  and  N_2
REMARK    2  A    between atoms: C_5  and  C_6
REMARK    3  A    between atoms: C_5  and  C_12
REMARK    4  A    between atoms: C_16  and  C_17
REMARK    5  A    between atoms: C_20  and  C_21
REMARK    6  A    between atoms: C_21  and  C_22
REMARK    7  A    between atoms: C_21  and  C_23
REMARK    8  A    between atoms: C_21  and  C_24
REMARK                            x       y       z     vdW  Elec       q    Type
REMARK                         _______ _______ _______ _____ _____    ______ ____
ROOT
ATOM      1  C   UNL     1       0.821  15.031  19.263  0.00  0.00    +0.000 C 
ATOM      2  N   UNL     1      -0.056  13.926  19.575  0.00  0.00    +0.000 N 
ATOM      3  C   UNL     1       0.120  12.668  19.082  0.00  0.00    +0.000 C 
ATOM      4  O   UNL     1       1.006  12.323  18.317  0.00  0.00    +0.000 OA
ATOM      5  C   UNL     1      -1.016  11.791  19.697  0.00  0.00    +0.000 C 
ATOM      6  N   UNL     1      -1.745  12.806  20.545  0.00  0.00    +0.000 NA
ATOM      7  C   UNL     1      -1.104  13.921  20.413  0.00  0.00    +0.000 C 
ATOM      8  N   UNL     1      -1.485  15.026  21.088  0.00  0.00    +0.000 N 
ATOM      9  H   UNL     1      -2.414  14.944  21.491  0.00  0.00    +0.000 HD
ATOM     10  H   UNL     1      -1.305  15.926  20.662  0.00  0.00    +0.000 HD
ENDROOT
BRANCH   5  11
ATOM     11  C   UNL     1      -1.967  11.254  18.603  0.00  0.00    +0.000 A 
ATOM     12  C   UNL     1      -1.534  10.367  17.601  0.00  0.00    +0.000 A 
ATOM     13  C   UNL     1      -2.353  10.043  16.516  0.00  0.00    +0.000 A 
ATOM     14  C   UNL     1      -3.635  10.575  16.427  0.00  0.00    +0.000 A 
ATOM     15  C   UNL     1      -4.118  11.382  17.452  0.00  0.00    +0.000 A 
ATOM     16  C   UNL     1      -3.299  11.704  18.538  0.00  0.00    +0.000 A 
ENDBRANCH   5  11
BRANCH   5  17
ATOM     17  C   UNL     1      -0.417  10.692  20.590  0.00  0.00    +0.000 A 
ATOM     18  C   UNL     1      -0.476  10.758  21.992  0.00  0.00    +0.000 A 
ATOM     19  C   UNL     1       0.117   9.775  22.783  0.00  0.00    +0.000 A 
ATOM     20  C   UNL     1       0.782   8.707  22.187  0.00  0.00    +0.000 A 
ATOM     21  C   UNL     1       0.895   8.614  20.793  0.00  0.00    +0.000 A 
ATOM     22  C   UNL     1       0.276   9.613  20.018  0.00  0.00    +0.000 A 
BRANCH  21  23
ATOM     23  C   UNL     1       1.681   7.547  20.146  0.00  0.00    +0.000 A 
ATOM     24  C   UNL     1       2.343   7.763  18.932  0.00  0.00    +0.000 A 
ATOM     25  C   UNL     1       3.164   6.787  18.364  0.00  0.00    +0.000 A 
ATOM     26  C   UNL     1       3.346   5.541  18.980  0.00  0.00    +0.000 A 
ATOM     27  C   UNL     1       2.646   5.304  20.173  0.00  0.00    +0.000 A 
ATOM     28  C   UNL     1       1.841   6.291  20.749  0.00  0.00    +0.000 A 
BRANCH  26  29
ATOM     29  C   UNL     1       4.300   4.480  18.419  0.00  0.00    +0.000 C 
ATOM     30  C   UNL     1       4.212   4.348  16.884  0.00  0.00    +0.000 C 
ATOM     31  C   UNL     1       5.753   4.865  18.774  0.00  0.00    +0.000 C 
ATOM     32  C   UNL     1       3.978   3.101  19.027  0.00  0.00    +0.000 C 
ENDBRANCH  26  29
ENDBRANCH  21  23
ENDBRANCH   5  17
TORSDOF 4
ENDMDL
MODEL 7
REMARK VINA RESULT:      -8.9      1.641      3.677
REMARK  Name = 
REMARK  8 active torsions:
REMARK  status: ('A' for Active; 'I' for Inactive)
REMARK    1  A    between atoms: C_1  and  N_2
REMARK    2  A    between atoms: C_5  and  C_6
REMARK    3  A    between atoms: C_5  and  C_12
REMARK    4  A    between atoms: C_16  and  C_17
REMARK    5  A    between atoms: C_20  and  C_21
REMARK    6  A    between atoms: C_21  and  C_22
REMARK    7  A    between atoms: C_21  and  C_23
REMARK    8  A    between atoms: C_21  and  C_24
REMARK                            x       y       z     vdW  Elec       q    Type
REMARK                         _______ _______ _______ _____ _____    ______ ____
ROOT
ATOM      1  C   UNL     1      -4.624  11.637  17.996  0.00  0.00    +0.000 C 
ATOM      2  N   UNL     1      -3.224  11.806  18.305  0.00  0.00    +0.000 N 
ATOM      3  C   UNL     1      -2.765  12.129  19.547  0.00  0.00    +0.000 C 
ATOM      4  O   UNL     1      -3.459  12.333  20.530  0.00  0.00    +0.000 OA
ATOM      5  C   UNL     1      -1.207  12.171  19.443  0.00  0.00    +0.000 C 
ATOM      6  N   UNL     1      -0.999  11.822  17.990  0.00  0.00    +0.000 NA
ATOM      7  C   UNL     1      -2.174  11.619  17.490  0.00  0.00    +0.000 C 
ATOM      8  N   UNL     1      -2.327  11.241  16.203  0.00  0.00    +0.000 N 
ATOM      9  H   UNL     1      -1.485  11.368  15.650  0.00  0.00    +0.000 HD
ATOM     10  H   UNL     1      -3.173  11.524  15.725  0.00  0.00    +0.000 HD
ENDROOT
BRANCH   5  11
ATOM     11  C   UNL     1      -0.663  13.592  19.716  0.00  0.00    +0.000 A 
ATOM     12  C   UNL     1      -1.396  14.550  20.441  0.00  0.00    +0.000 A 
ATOM     13  C   UNL     1      -0.974  15.880  20.514  0.00  0.00    +0.000 A 
ATOM     14  C   UNL     1       0.206  16.274  19.891  0.00  0.00    +0.000 A 
ATOM     15  C   UNL     1       0.993  15.326  19.247  0.00  0.00    +0.000 A 
ATOM     16  C   UNL     1       0.572  13.995  19.175  0.00  0.00    +0.000 A 
ENDBRANCH   5  11
BRANCH   5  17
ATOM     17  C   UNL     1      -0.584  11.087  20.339  0.00  0.00    +0.000 A 
ATOM     18  C   UNL     1      -0.684  11.131  21.740  0.00  0.00    +0.000 A 
ATOM     19  C   UNL     1      -0.070  10.165  22.534  0.00  0.00    +0.000 A 
ATOM     20  C   UNL     1       0.658   9.135  21.944  0.00  0.00    +0.000 A 
ATOM     21  C   UNL     1       0.813   9.066  20.552  0.00  0.00    +0.000 A 
ATOM     22  C   UNL     1       0.171  10.047  19.773  0.00  0.00    +0.000 A 
BRANCH  21  23
ATOM     23  C   UNL     1       1.663   8.043  19.915  0.00  0.00    +0.000 A 
ATOM     24  C   UNL     1       1.910   6.812  20.534  0.00  0.00    +0.000 A 
ATOM     25  C   UNL     1       2.635   5.805  19.894  0.00  0.00    +0.000 A 
ATOM     26  C   UNL     1       3.161   5.993  18.610  0.00  0.00    +0.000 A 
ATOM     27  C   UNL     1       2.956   7.243  18.005  0.00  0.00    +0.000 A 
ATOM     28  C   UNL     1       2.212   8.241  18.641  0.00  0.00    +0.000 A 
BRANCH  26  29
ATOM     29  C   UNL     1       3.896   4.880  17.853  0.00  0.00    +0.000 C 
ATOM     30  C   UNL     1       4.720   5.410  16.661  0.00  0.00    +0.000 C 
ATOM     31  C   UNL     1       4.870   4.168  18.817  0.00  0.00    +0.000 C 
ATOM     32  C   UNL     1       2.886   3.853  17.304  0.00  0.00    +0.000 C 
ENDBRANCH  26  29
ENDBRANCH  21  23
ENDBRANCH   5  17
TORSDOF 4
ENDMDL
MODEL 8
REMARK VINA RESULT:      -8.8      1.063      1.473
REMARK  Name = 
REMARK  8 active torsions:
REMARK  status: ('A' for Active; 'I' for Inactive)
REMARK    1  A    between atoms: C_1  and  N_2
REMARK    2  A    between atoms: C_5  and  C_6
REMARK    3  A    between atoms: C_5  and  C_12
REMARK    4  A    between atoms: C_16  and  C_17
REMARK    5  A    between atoms: C_20  and  C_21
REMARK    6  A    between atoms: C_21  and  C_22
REMARK    7  A    between atoms: C_21  and  C_23
REMARK    8  A    between atoms: C_21  and  C_24
REMARK                            x       y       z     vdW  Elec       q    Type
REMARK                         _______ _______ _______ _____ _____    ______ ____
ROOT
ATOM      1  C   UNL     1       1.397  14.852  19.396  0.00  0.00    +0.000 C 
ATOM      2  N   UNL     1       0.411  13.857  19.748  0.00  0.00    +0.000 N 
ATOM      3  C   UNL     1       0.402  12.596  19.231  0.00  0.00    +0.000 C 
ATOM      4  O   UNL     1       1.193  12.160  18.410  0.00  0.00    +0.000 OA
ATOM      5  C   UNL     1      -0.795  11.853  19.905  0.00  0.00    +0.000 C 
ATOM      6  N   UNL     1      -1.343  12.933  20.806  0.00  0.00    +0.000 NA
ATOM      7  C   UNL     1      -0.579  13.965  20.648  0.00  0.00    +0.000 C 
ATOM      8  N   UNL     1      -0.780  15.095  21.357  0.00  0.00    +0.000 N 
ATOM      9  H   UNL     1      -1.687  15.120  21.814  0.00  0.00    +0.000 HD
ATOM     10  H   UNL     1      -0.517  15.974  20.931  0.00  0.00    +0.000 HD
ENDROOT
BRANCH   5  11
ATOM     11  C   UNL     1      -1.867  11.456  18.864  0.00  0.00    +0.000 A 
ATOM     12  C   UNL     1      -1.547  10.761  17.684  0.00  0.00    +0.000 A 
ATOM     13  C   UNL     1      -2.493  10.579  16.672  0.00  0.00    +0.000 A 
ATOM     14  C   UNL     1      -3.788  11.060  16.832  0.00  0.00    +0.000 A 
ATOM     15  C   UNL     1      -4.153  11.670  18.027  0.00  0.00    +0.000 A 
ATOM     16  C   UNL     1      -3.207  11.850  19.041  0.00  0.00    +0.000 A 
ENDBRANCH   5  11
BRANCH   5  17
ATOM     17  C   UNL     1      -0.284  10.673  20.748  0.00  0.00    +0.000 A 
ATOM     18  C   UNL     1      -0.398  10.654  22.148  0.00  0.00    +0.000 A 
ATOM     19  C   UNL     1       0.116   9.597  22.896  0.00  0.00    +0.000 A 
ATOM     20  C   UNL     1       0.757   8.537  22.259  0.00  0.00    +0.000 A 
ATOM     21  C   UNL     1       0.923   8.526  20.867  0.00  0.00    +0.000 A 
ATOM     22  C   UNL     1       0.382   9.600  20.135  0.00  0.00    +0.000 A 
BRANCH  21  23
ATOM     23  C   UNL     1       1.686   7.465  20.184  0.00  0.00    +0.000 A 
ATOM     24  C   UNL     1       1.746   6.164  20.699  0.00  0.00    +0.000 A 
ATOM     25  C   UNL     1       2.388   5.135  20.009  0.00  0.00    +0.000 A 
ATOM     26  C   UNL     1       3.015   5.365  18.777  0.00  0.00    +0.000 A 
ATOM     27  C   UNL     1       2.997   6.678  18.281  0.00  0.00    +0.000 A 
ATOM     28  C   UNL     1       2.336   7.702  18.965  0.00  0.00    +0.000 A 
BRANCH  26  29
ATOM     29  C   UNL     1       3.661   4.239  17.961  0.00  0.00    +0.000 C 
ATOM     30  C   UNL     1       4.548   3.312  18.819  0.00  0.00    +0.000 C 
ATOM     31  C   UNL     1       2.552   3.371  17.327  0.00  0.00    +0.000 C 
ATOM     32  C   UNL     1       4.544   4.830  16.845  0.00  0.00    +0.000 C 
ENDBRANCH  26  29
ENDBRANCH  21  23
ENDBRANCH   5  17
TORSDOF 4
ENDMDL
MODEL 9
REMARK VINA RESULT:      -8.8      1.625      3.061
REMARK  Name = 
REMARK  8 active torsions:
REMARK  status: ('A' for Active; 'I' for Inactive)
REMARK    1  A    between atoms: C_1  and  N_2
REMARK    2  A    between atoms: C_5  and  C_6
REMARK    3  A    between atoms: C_5  and  C_12
REMARK    4  A    between atoms: C_16  and  C_17
REMARK    5  A    between atoms: C_20  and  C_21
REMARK    6  A    between atoms: C_21  and  C_22
REMARK    7  A    between atoms: C_21  and  C_23
REMARK    8  A    between atoms: C_21  and  C_24
REMARK                            x       y       z     vdW  Elec       q    Type
REMARK                         _______ _______ _______ _____ _____    ______ ____
ROOT
ATOM      1  C   UNL     1      -4.312  12.749  20.277  0.00  0.00    +0.000 C 
ATOM      2  N   UNL     1      -3.036  12.321  19.754  0.00  0.00    +0.000 N 
ATOM      3  C   UNL     1      -1.861  12.473  20.427  0.00  0.00    +0.000 C 
ATOM      4  O   UNL     1      -1.734  12.997  21.523  0.00  0.00    +0.000 OA
ATOM      5  C   UNL     1      -0.752  11.844  19.526  0.00  0.00    +0.000 C 
ATOM      6  N   UNL     1      -1.564  11.375  18.343  0.00  0.00    +0.000 NA
ATOM      7  C   UNL     1      -2.796  11.669  18.605  0.00  0.00    +0.000 C 
ATOM      8  N   UNL     1      -3.787  11.335  17.753  0.00  0.00    +0.000 N 
ATOM      9  H   UNL     1      -3.446  11.066  16.834  0.00  0.00    +0.000 HD
ATOM     10  H   UNL     1      -4.606  11.929  17.723  0.00  0.00    +0.000 HD
ENDROOT
BRANCH   5  11
ATOM     11  C   UNL     1       0.268  12.910  19.063  0.00  0.00    +0.000 A 
ATOM     12  C   UNL     1       1.595  12.585  18.731  0.00  0.00    +0.000 A 
ATOM     13  C   UNL     1       2.548  13.581  18.499  0.00  0.00    +0.000 A 
ATOM     14  C   UNL     1       2.186  14.922  18.562  0.00  0.00    +0.000 A 
ATOM     15  C   UNL     1       0.859  15.266  18.798  0.00  0.00    +0.000 A 
ATOM     16  C   UNL     1      -0.095  14.269  19.028  0.00  0.00    +0.000 A 
ENDBRANCH   5  11
BRANCH   5  17
ATOM     17  C   UNL     1      -0.109  10.639  20.234  0.00  0.00    +0.000 A 
ATOM     18  C   UNL     1      -0.187  10.466  21.626  0.00  0.00    +0.000 A 
ATOM     19  C   UNL     1       0.445   9.393  22.252  0.00  0.00    +0.000 A 
ATOM     20  C   UNL     1       1.169   8.472  21.498  0.00  0.00    +0.000 A 
ATOM     21  C   UNL     1       1.301   8.620  20.110  0.00  0.00    +0.000 A 
ATOM     22  C   UNL     1       0.641   9.705  19.503  0.00  0.00    +0.000 A 
BRANCH  21  23
ATOM     23  C   UNL     1       2.145   7.714  19.310  0.00  0.00    +0.000 A 
ATOM     24  C   UNL     1       2.716   8.129  18.101  0.00  0.00    +0.000 A 
ATOM     25  C   UNL     1       3.592   7.308  17.388  0.00  0.00    +0.000 A 
ATOM     26  C   UNL     1       3.921   6.025  17.844  0.00  0.00    +0.000 A 
ATOM     27  C   UNL     1       3.312   5.588  19.032  0.00  0.00    +0.000 A 
ATOM     28  C   UNL     1       2.452   6.420  19.754  0.00  0.00    +0.000 A 
BRANCH  26  29
ATOM     29  C   UNL     1       4.936   5.132  17.122  0.00  0.00    +0.000 C 
ATOM     30  C   UNL     1       6.219   4.895  17.947  0.00  0.00    +0.000 C 
ATOM     31  C   UNL     1       4.295   3.755  16.846  0.00  0.00    +0.000 C 
ATOM     32  C   UNL     1       5.353   5.774  15.784  0.00  0.00    +0.000 C 
ENDBRANCH  26  29
ENDBRANCH  21  23
ENDBRANCH   5  17
TORSDOF 4
ENDMDL
