MODEL 1
REMARK VINA RESULT:      -7.9      0.000      0.000
REMARK  Name = 
REMARK  5 active torsions:
REMARK  status: ('A' for Active; 'I' for Inactive)
REMARK    1  A    between atoms: C_1  and  C_2
REMARK    2  A    between atoms: C_2  and  C_3
REMARK    3  A    between atoms: C_2  and  C_13
REMARK    4  A    between atoms: C_3  and  C_4
REMARK    5  A    between atoms: C_18  and  C_19
REMARK                            x       y       z     vdW  Elec       q    Type
REMARK                         _______ _______ _______ _____ _____    ______ ____
ROOT
ATOM      1  C   UNL     1       2.415   3.169  17.008  0.00  0.00    +0.000 C 
ATOM      2  C   UNL     1       3.444   3.514  18.095  0.00  0.00    +0.000 C 
ENDROOT
BRANCH   2   3
ATOM      3  C   UNL     1       2.844   4.589  19.008  0.00  0.00    +0.000 A 
ATOM      4  C   UNL     1       2.829   5.939  18.579  0.00  0.00    +0.000 A 
ATOM      5  C   UNL     1       2.236   6.950  19.337  0.00  0.00    +0.000 A 
ATOM      6  C   UNL     1       1.625   6.642  20.541  0.00  0.00    +0.000 A 
ATOM      7  C   UNL     1       1.617   5.324  20.987  0.00  0.00    +0.000 A 
ATOM      8  C   UNL     1       2.216   4.280  20.242  0.00  0.00    +0.000 A 
BRANCH   8   9
ATOM      9  C   UNL     1       2.113   2.899  20.868  0.00  0.00    +0.000 C 
ATOM     10  F   UNL     1       1.552   1.926  20.105  0.00  0.00    +0.000 F 
ATOM     11  F   UNL     1       3.337   2.419  21.232  0.00  0.00    +0.000 F 
ATOM     12  F   UNL     1       1.375   2.917  22.016  0.00  0.00    +0.000 F 
ENDBRANCH   8   9
ENDBRANCH   2   3
BRANCH   2  13
ATOM     13  C   UNL     1       4.799   3.902  17.473  0.00  0.00    +0.000 C 
BRANCH  13  14
ATOM     14  C   UNL     1       5.812   4.386  18.498  0.00  0.00    +0.000 C 
ATOM     15  O   UNL     1       5.799   4.030  19.672  0.00  0.00    +0.000 OA
ATOM     16  N   UNL     1       6.850   5.219  18.006  0.00  0.00    +0.000 N 
ATOM     17  C   UNL     1       8.050   5.586  18.781  0.00  0.00    +0.000 C 
ATOM     18  C   UNL     1       8.115   7.109  18.745  0.00  0.00    +0.000 C 
ATOM     19  C   UNL     1       7.763   7.537  17.330  0.00  0.00    +0.000 C 
ATOM     20  S   UNL     1       6.618   6.310  16.731  0.00  0.00    +0.000 S 
ATOM     21  O   UNL     1       7.155   5.705  15.532  0.00  0.00    +0.000 OA
ATOM     22  O   UNL     1       5.272   6.826  16.802  0.00  0.00    +0.000 OA
ENDBRANCH  13  14
ENDBRANCH   2  13
TORSDOF 4
ENDMDL
MODEL 2
REMARK VINA RESULT:      -7.7      0.679      1.094
REMARK  Name = 
REMARK  5 active torsions:
REMARK  status: ('A' for Active; 'I' for Inactive)
REMARK    1  A    between atoms: C_1  and  C_2
REMARK    2  A    between atoms: C_2  and  C_3
REMARK    3  A    between atoms: C_2  and  C_13
REMARK    4  A    between atoms: C_3  and  C_4
REMARK    5  A    between atoms: C_18  and  C_19
REMARK                            x       y       z     vdW  Elec       q    Type
REMARK                         _______ _______ _______ _____ _____    ______ ____
ROOT
ATOM      1  C   UNL     1       1.630   3.818  16.955  0.00  0.00    +0.000 C 
ATOM      2  C   UNL     1       2.784   3.954  17.959  0.00  0.00    +0.000 C 
ENDROOT
BRANCH   2   3
ATOM      3  C   UNL     1       2.432   5.062  18.957  0.00  0.00    +0.000 A 
ATOM      4  C   UNL     1       2.514   6.417  18.552  0.00  0.00    +0.000 A 
ATOM      5  C   UNL     1       2.141   7.466  19.394  0.00  0.00    +0.000 A 
ATOM      6  C   UNL     1       1.659   7.194  20.664  0.00  0.00    +0.000 A 
ATOM      7  C   UNL     1       1.560   5.873  21.089  0.00  0.00    +0.000 A 
ATOM      8  C   UNL     1       1.936   4.790  20.258  0.00  0.00    +0.000 A 
BRANCH   8   9
ATOM      9  C   UNL     1       1.759   3.412  20.874  0.00  0.00    +0.000 C 
ATOM     10  F   UNL     1       1.546   3.368  22.214  0.00  0.00    +0.000 F 
ATOM     11  F   UNL     1       0.710   2.742  20.315  0.00  0.00    +0.000 F 
ATOM     12  F   UNL     1       2.849   2.619  20.663  0.00  0.00    +0.000 F 
ENDBRANCH   8   9
ENDBRANCH   2   3
BRANCH   2  13
ATOM     13  C   UNL     1       4.128   4.163  17.236  0.00  0.00    +0.000 C 
BRANCH  13  14
ATOM     14  C   UNL     1       5.310   4.261  18.186  0.00  0.00    +0.000 C 
ATOM     15  O   UNL     1       5.378   3.636  19.238  0.00  0.00    +0.000 OA
ATOM     16  N   UNL     1       6.398   5.062  17.749  0.00  0.00    +0.000 N 
ATOM     17  C   UNL     1       7.720   5.086  18.404  0.00  0.00    +0.000 C 
ATOM     18  C   UNL     1       8.005   6.554  18.702  0.00  0.00    +0.000 C 
ATOM     19  C   UNL     1       7.563   7.350  17.485  0.00  0.00    +0.000 C 
ATOM     20  S   UNL     1       6.188   6.448  16.798  0.00  0.00    +0.000 S 
ATOM     21  O   UNL     1       6.490   6.093  15.430  0.00  0.00    +0.000 OA
ATOM     22  O   UNL     1       4.950   7.086  17.178  0.00  0.00    +0.000 OA
ENDBRANCH  13  14
ENDBRANCH   2  13
TORSDOF 4
ENDMDL
MODEL 3
REMARK VINA RESULT:      -7.5      2.249      3.560
REMARK  Name = 
REMARK  5 active torsions:
REMARK  status: ('A' for Active; 'I' for Inactive)
REMARK    1  A    between atoms: C_1  and  C_2
REMARK    2  A    between atoms: C_2  and  C_3
REMARK    3  A    between atoms: C_2  and  C_13
REMARK    4  A    between atoms: C_3  and  C_4
REMARK    5  A    between atoms: C_18  and  C_19
REMARK                            x       y       z     vdW  Elec       q    Type
REMARK                         _______ _______ _______ _____ _____    ______ ____
ROOT
ATOM      1  C   UNL     1       1.640   7.056  20.269  0.00  0.00    +0.000 C 
ATOM      2  C   UNL     1       2.496   6.091  19.436  0.00  0.00    +0.000 C 
ENDROOT
BRANCH   2   3
ATOM      3  C   UNL     1       2.292   4.671  19.974  0.00  0.00    +0.000 A 
ATOM      4  C   UNL     1       2.219   4.459  21.373  0.00  0.00    +0.000 A 
ATOM      5  C   UNL     1       1.966   3.200  21.920  0.00  0.00    +0.000 A 
ATOM      6  C   UNL     1       1.762   2.114  21.085  0.00  0.00    +0.000 A 
ATOM      7  C   UNL     1       1.820   2.290  19.707  0.00  0.00    +0.000 A 
ATOM      8  C   UNL     1       2.081   3.554  19.125  0.00  0.00    +0.000 A 
BRANCH   8   9
ATOM      9  C   UNL     1       2.104   3.574  17.606  0.00  0.00    +0.000 C 
ATOM     10  F   UNL     1       1.143   4.310  16.993  0.00  0.00    +0.000 F 
ATOM     11  F   UNL     1       3.290   4.049  17.126  0.00  0.00    +0.000 F 
ATOM     12  F   UNL     1       1.978   2.320  17.081  0.00  0.00    +0.000 F 
ENDBRANCH   8   9
ENDBRANCH   2   3
BRANCH   2  13
ATOM     13  C   UNL     1       3.968   6.544  19.401  0.00  0.00    +0.000 C 
BRANCH  13  14
ATOM     14  C   UNL     1       4.543   6.606  17.996  0.00  0.00    +0.000 C 
ATOM     15  O   UNL     1       3.919   7.044  17.035  0.00  0.00    +0.000 OA
ATOM     16  N   UNL     1       5.898   6.205  17.856  0.00  0.00    +0.000 N 
ATOM     17  C   UNL     1       6.701   6.422  16.638  0.00  0.00    +0.000 C 
ATOM     18  C   UNL     1       7.257   5.054  16.261  0.00  0.00    +0.000 C 
ATOM     19  C   UNL     1       7.699   4.382  17.550  0.00  0.00    +0.000 C 
ATOM     20  S   UNL     1       6.593   4.990  18.809  0.00  0.00    +0.000 S 
ATOM     21  O   UNL     1       7.365   5.633  19.848  0.00  0.00    +0.000 OA
ATOM     22  O   UNL     1       5.587   3.993  19.094  0.00  0.00    +0.000 OA
ENDBRANCH  13  14
ENDBRANCH   2  13
TORSDOF 4
ENDMDL
MODEL 4
REMARK VINA RESULT:      -7.5      3.520      6.015
REMARK  Name = 
REMARK  5 active torsions:
REMARK  status: ('A' for Active; 'I' for Inactive)
REMARK    1  A    between atoms: C_1  and  C_2
REMARK    2  A    between atoms: C_2  and  C_3
REMARK    3  A    between atoms: C_2  and  C_13
REMARK    4  A    between atoms: C_3  and  C_4
REMARK    5  A    between atoms: C_18  and  C_19
REMARK                            x       y       z     vdW  Elec       q    Type
REMARK                         _______ _______ _______ _____ _____    ______ ____
ROOT
ATOM      1  C   UNL     1       4.228   7.848  17.180  0.00  0.00    +0.000 C 
ATOM      2  C   UNL     1       4.301   6.400  17.685  0.00  0.00    +0.000 C 
ENDROOT
BRANCH   2   3
ATOM      3  C   UNL     1       5.288   5.627  16.804  0.00  0.00    +0.000 A 
ATOM      4  C   UNL     1       4.894   5.220  15.505  0.00  0.00    +0.000 A 
ATOM      5  C   UNL     1       5.772   4.574  14.634  0.00  0.00    +0.000 A 
ATOM      6  C   UNL     1       7.077   4.327  15.025  0.00  0.00    +0.000 A 
ATOM      7  C   UNL     1       7.497   4.720  16.292  0.00  0.00    +0.000 A 
ATOM      8  C   UNL     1       6.626   5.371  17.199  0.00  0.00    +0.000 A 
BRANCH   8   9
ATOM      9  C   UNL     1       7.246   5.738  18.537  0.00  0.00    +0.000 C 
ATOM     10  F   UNL     1       8.335   5.023  18.919  0.00  0.00    +0.000 F 
ATOM     11  F   UNL     1       7.637   7.045  18.570  0.00  0.00    +0.000 F 
ATOM     12  F   UNL     1       6.355   5.601  19.562  0.00  0.00    +0.000 F 
ENDBRANCH   8   9
ENDBRANCH   2   3
BRANCH   2  13
ATOM     13  C   UNL     1       2.898   5.767  17.761  0.00  0.00    +0.000 C 
BRANCH  13  14
ATOM     14  C   UNL     1       2.372   5.646  19.181  0.00  0.00    +0.000 C 
ATOM     15  O   UNL     1       2.330   6.590  19.963  0.00  0.00    +0.000 OA
ATOM     16  N   UNL     1       1.838   4.382  19.544  0.00  0.00    +0.000 N 
ATOM     17  C   UNL     1       1.066   4.136  20.777  0.00  0.00    +0.000 C 
ATOM     18  C   UNL     1       1.761   2.970  21.473  0.00  0.00    +0.000 C 
ATOM     19  C   UNL     1       2.127   1.963  20.396  0.00  0.00    +0.000 C 
ATOM     20  S   UNL     1       2.443   2.924  18.930  0.00  0.00    +0.000 S 
ATOM     21  O   UNL     1       1.556   2.488  17.875  0.00  0.00    +0.000 OA
ATOM     22  O   UNL     1       3.868   3.060  18.736  0.00  0.00    +0.000 OA
ENDBRANCH  13  14
ENDBRANCH   2  13
TORSDOF 4
ENDMDL
MODEL 5
REMARK VINA RESULT:      -7.2      1.150      2.066
REMARK  Name = 
REMARK  5 active torsions:
REMARK  status: ('A' for Active; 'I' for Inactive)
REMARK    1  A    between atoms: C_1  and  C_2
REMARK    2  A    between atoms: C_2  and  C_3
REMARK    3  A    between atoms: C_2  and  C_13
REMARK    4  A    between atoms: C_3  and  C_4
REMARK    5  A    between atoms: C_18  and  C_19
REMARK                            x       y       z     vdW  Elec       q    Type
REMARK                         _______ _______ _______ _____ _____    ______ ____
ROOT
ATOM      1  C   UNL     1       2.699   3.340  16.537  0.00  0.00    +0.000 C 
ATOM      2  C   UNL     1       3.632   3.408  17.754  0.00  0.00    +0.000 C 
ENDROOT
BRANCH   2   3
ATOM      3  C   UNL     1       3.098   4.472  18.718  0.00  0.00    +0.000 A 
ATOM      4  C   UNL     1       2.882   5.792  18.249  0.00  0.00    +0.000 A 
ATOM      5  C   UNL     1       2.334   6.785  19.062  0.00  0.00    +0.000 A 
ATOM      6  C   UNL     1       1.969   6.489  20.364  0.00  0.00    +0.000 A 
ATOM      7  C   UNL     1       2.162   5.201  20.852  0.00  0.00    +0.000 A 
ATOM      8  C   UNL     1       2.721   4.175  20.053  0.00  0.00    +0.000 A 
BRANCH   8   9
ATOM      9  C   UNL     1       2.857   2.825  20.737  0.00  0.00    +0.000 C 
ATOM     10  F   UNL     1       4.092   2.261  20.728  0.00  0.00    +0.000 F 
ATOM     11  F   UNL     1       2.493   2.888  22.051  0.00  0.00    +0.000 F 
ATOM     12  F   UNL     1       2.036   1.889  20.179  0.00  0.00    +0.000 F 
ENDBRANCH   8   9
ENDBRANCH   2   3
BRANCH   2  13
ATOM     13  C   UNL     1       5.094   3.629  17.321  0.00  0.00    +0.000 C 
BRANCH  13  14
ATOM     14  C   UNL     1       5.345   5.013  16.744  0.00  0.00    +0.000 C 
ATOM     15  O   UNL     1       4.937   5.364  15.643  0.00  0.00    +0.000 OA
ATOM     16  N   UNL     1       6.015   5.932  17.594  0.00  0.00    +0.000 N 
ATOM     17  C   UNL     1       6.132   7.376  17.318  0.00  0.00    +0.000 C 
ATOM     18  C   UNL     1       7.622   7.691  17.397  0.00  0.00    +0.000 C 
ATOM     19  C   UNL     1       8.175   6.932  18.591  0.00  0.00    +0.000 C 
ATOM     20  S   UNL     1       7.193   5.450  18.712  0.00  0.00    +0.000 S 
ATOM     21  O   UNL     1       6.569   5.399  20.015  0.00  0.00    +0.000 OA
ATOM     22  O   UNL     1       7.926   4.335  18.160  0.00  0.00    +0.000 OA
ENDBRANCH  13  14
ENDBRANCH   2  13
TORSDOF 4
ENDMDL
MODEL 6
REMARK VINA RESULT:      -7.2      3.420      5.886
REMARK  Name = 
REMARK  5 active torsions:
REMARK  status: ('A' for Active; 'I' for Inactive)
REMARK    1  A    between atoms: C_1  and  C_2
REMARK    2  A    between atoms: C_2  and  C_3
REMARK    3  A    between atoms: C_2  and  C_13
REMARK    4  A    between atoms: C_3  and  C_4
REMARK    5  A    between atoms: C_18  and  C_19
REMARK                            x       y       z     vdW  Elec       q    Type
REMARK                         _______ _______ _______ _____ _____    ______ ____
ROOT
ATOM      1  C   UNL     1       3.655   7.429  17.477  0.00  0.00    +0.000 C 
ATOM      2  C   UNL     1       4.802   6.678  18.167  0.00  0.00    +0.000 C 
ENDROOT
BRANCH   2   3
ATOM      3  C   UNL     1       5.544   5.849  17.113  0.00  0.00    +0.000 A 
ATOM      4  C   UNL     1       4.947   5.639  15.845  0.00  0.00    +0.000 A 
ATOM      5  C   UNL     1       5.603   4.951  14.823  0.00  0.00    +0.000 A 
ATOM      6  C   UNL     1       6.883   4.465  15.029  0.00  0.00    +0.000 A 
ATOM      7  C   UNL     1       7.499   4.661  16.260  0.00  0.00    +0.000 A 
ATOM      8  C   UNL     1       6.855   5.349  17.317  0.00  0.00    +0.000 A 
BRANCH   8   9
ATOM      9  C   UNL     1       7.670   5.480  18.593  0.00  0.00    +0.000 C 
ATOM     10  F   UNL     1       7.006   5.289  19.761  0.00  0.00    +0.000 F 
ATOM     11  F   UNL     1       8.714   4.601  18.617  0.00  0.00    +0.000 F 
ATOM     12  F   UNL     1       8.237   6.717  18.707  0.00  0.00    +0.000 F 
ENDBRANCH   8   9
ENDBRANCH   2   3
BRANCH   2  13
ATOM     13  C   UNL     1       4.288   5.856  19.365  0.00  0.00    +0.000 C 
BRANCH  13  14
ATOM     14  C   UNL     1       2.813   5.504  19.259  0.00  0.00    +0.000 C 
ATOM     15  O   UNL     1       1.917   6.254  19.629  0.00  0.00    +0.000 OA
ATOM     16  N   UNL     1       2.509   4.273  18.620  0.00  0.00    +0.000 N 
ATOM     17  C   UNL     1       1.151   3.873  18.206  0.00  0.00    +0.000 C 
ATOM     18  C   UNL     1       0.915   2.504  18.834  0.00  0.00    +0.000 C 
ATOM     19  C   UNL     1       2.201   1.711  18.671  0.00  0.00    +0.000 C 
ATOM     20  S   UNL     1       3.515   2.915  18.728  0.00  0.00    +0.000 S 
ATOM     21  O   UNL     1       4.283   2.837  17.507  0.00  0.00    +0.000 OA
ATOM     22  O   UNL     1       4.131   2.898  20.034  0.00  0.00    +0.000 OA
ENDBRANCH  13  14
ENDBRANCH   2  13
TORSDOF 4
ENDMDL
MODEL 7
REMARK VINA RESULT:      -7.0      3.430      5.735
REMARK  Name = 
REMARK  5 active torsions:
REMARK  status: ('A' for Active; 'I' for Inactive)
REMARK    1  A    between atoms: C_1  and  C_2
REMARK    2  A    between atoms: C_2  and  C_3
REMARK    3  A    between atoms: C_2  and  C_13
REMARK    4  A    between atoms: C_3  and  C_4
REMARK    5  A    between atoms: C_18  and  C_19
REMARK                            x       y       z     vdW  Elec       q    Type
REMARK                         _______ _______ _______ _____ _____    ______ ____
ROOT
ATOM      1  C   UNL     1       5.762   3.448  15.258  0.00  0.00    +0.000 C 
ATOM      2  C   UNL     1       4.991   4.036  16.449  0.00  0.00    +0.000 C 
ENDROOT
BRANCH   2   3
ATOM      3  C   UNL     1       5.925   4.981  17.214  0.00  0.00    +0.000 A 
ATOM      4  C   UNL     1       7.187   4.510  17.653  0.00  0.00    +0.000 A 
ATOM      5  C   UNL     1       8.106   5.342  18.293  0.00  0.00    +0.000 A 
ATOM      6  C   UNL     1       7.801   6.677  18.501  0.00  0.00    +0.000 A 
ATOM      7  C   UNL     1       6.573   7.172  18.074  0.00  0.00    +0.000 A 
ATOM      8  C   UNL     1       5.619   6.349  17.428  0.00  0.00    +0.000 A 
BRANCH   8   9
ATOM      9  C   UNL     1       4.333   7.049  17.022  0.00  0.00    +0.000 C 
ATOM     10  F   UNL     1       3.174   6.395  17.290  0.00  0.00    +0.000 F 
ATOM     11  F   UNL     1       4.211   8.269  17.623  0.00  0.00    +0.000 F 
ATOM     12  F   UNL     1       4.295   7.301  15.681  0.00  0.00    +0.000 F 
ENDBRANCH   8   9
ENDBRANCH   2   3
BRANCH   2  13
ATOM     13  C   UNL     1       4.376   2.922  17.318  0.00  0.00    +0.000 C 
BRANCH  13  14
ATOM     14  C   UNL     1       2.885   3.098  17.550  0.00  0.00    +0.000 C 
ATOM     15  O   UNL     1       2.085   3.301  16.643  0.00  0.00    +0.000 OA
ATOM     16  N   UNL     1       2.436   2.927  18.886  0.00  0.00    +0.000 N 
ATOM     17  C   UNL     1       1.016   2.815  19.271  0.00  0.00    +0.000 C 
ATOM     18  C   UNL     1       0.796   3.873  20.347  0.00  0.00    +0.000 C 
ATOM     19  C   UNL     1       2.007   3.835  21.263  0.00  0.00    +0.000 C 
ATOM     20  S   UNL     1       3.376   3.357  20.227  0.00  0.00    +0.000 S 
ATOM     21  O   UNL     1       3.971   2.150  20.754  0.00  0.00    +0.000 OA
ATOM     22  O   UNL     1       4.159   4.523  19.889  0.00  0.00    +0.000 OA
ENDBRANCH  13  14
ENDBRANCH   2  13
TORSDOF 4
ENDMDL
MODEL 8
REMARK VINA RESULT:      -7.0      3.614      6.037
REMARK  Name = 
REMARK  5 active torsions:
REMARK  status: ('A' for Active; 'I' for Inactive)
REMARK    1  A    between atoms: C_1  and  C_2
REMARK    2  A    between atoms: C_2  and  C_3
REMARK    3  A    between atoms: C_2  and  C_13
REMARK    4  A    between atoms: C_3  and  C_4
REMARK    5  A    between atoms: C_18  and  C_19
REMARK                            x       y       z     vdW  Elec       q    Type
REMARK                         _______ _______ _______ _____ _____    ______ ____
ROOT
ATOM      1  C   UNL     1       3.694   6.487  17.339  0.00  0.00    +0.000 C 
ATOM      2  C   UNL     1       4.247   5.058  17.429  0.00  0.00    +0.000 C 
ENDROOT
BRANCH   2   3
ATOM      3  C   UNL     1       5.299   4.873  16.329  0.00  0.00    +0.000 A 
ATOM      4  C   UNL     1       4.881   4.592  15.005  0.00  0.00    +0.000 A 
ATOM      5  C   UNL     1       5.789   4.482  13.950  0.00  0.00    +0.000 A 
ATOM      6  C   UNL     1       7.142   4.664  14.181  0.00  0.00    +0.000 A 
ATOM      7  C   UNL     1       7.583   4.948  15.470  0.00  0.00    +0.000 A 
ATOM      8  C   UNL     1       6.686   5.060  16.559  0.00  0.00    +0.000 A 
BRANCH   8   9
ATOM      9  C   UNL     1       7.332   5.381  17.897  0.00  0.00    +0.000 C 
ATOM     10  F   UNL     1       6.517   5.380  18.981  0.00  0.00    +0.000 F 
ATOM     11  F   UNL     1       8.336   4.505  18.194  0.00  0.00    +0.000 F 
ATOM     12  F   UNL     1       7.917   6.614  17.894  0.00  0.00    +0.000 F 
ENDBRANCH   8   9
ENDBRANCH   2   3
BRANCH   2  13
ATOM     13  C   UNL     1       3.110   4.019  17.392  0.00  0.00    +0.000 C 
BRANCH  13  14
ATOM     14  C   UNL     1       3.335   2.851  18.338  0.00  0.00    +0.000 C 
ATOM     15  O   UNL     1       3.710   1.746  17.962  0.00  0.00    +0.000 OA
ATOM     16  N   UNL     1       3.170   3.127  19.721  0.00  0.00    +0.000 N 
ATOM     17  C   UNL     1       3.576   2.206  20.800  0.00  0.00    +0.000 C 
ATOM     18  C   UNL     1       2.338   2.018  21.669  0.00  0.00    +0.000 C 
ATOM     19  C   UNL     1       1.686   3.383  21.817  0.00  0.00    +0.000 C 
ATOM     20  S   UNL     1       2.041   4.248  20.300  0.00  0.00    +0.000 S 
ATOM     21  O   UNL     1       2.751   5.470  20.606  0.00  0.00    +0.000 OA
ATOM     22  O   UNL     1       0.879   4.221  19.442  0.00  0.00    +0.000 OA
ENDBRANCH  13  14
ENDBRANCH   2  13
TORSDOF 4
ENDMDL
MODEL 9
REMARK VINA RESULT:      -7.0      1.884      3.035
REMARK  Name = 
REMARK  5 active torsions:
REMARK  status: ('A' for Active; 'I' for Inactive)
REMARK    1  A    between atoms: C_1  and  C_2
REMARK    2  A    between atoms: C_2  and  C_3
REMARK    3  A    between atoms: C_2  and  C_13
REMARK    4  A    between atoms: C_3  and  C_4
REMARK    5  A    between atoms: C_18  and  C_19
REMARK                            x       y       z     vdW  Elec       q    Type
REMARK                         _______ _______ _______ _____ _____    ______ ____
ROOT
ATOM      1  C   UNL     1       2.715   6.623  17.746  0.00  0.00    +0.000 C 
ATOM      2  C   UNL     1       2.924   5.113  17.562  0.00  0.00    +0.000 C 
ENDROOT
BRANCH   2   3
ATOM      3  C   UNL     1       2.779   4.432  18.927  0.00  0.00    +0.000 A 
ATOM      4  C   UNL     1       2.405   5.204  20.055  0.00  0.00    +0.000 A 
ATOM      5  C   UNL     1       2.191   4.628  21.308  0.00  0.00    +0.000 A 
ATOM      6  C   UNL     1       2.328   3.260  21.472  0.00  0.00    +0.000 A 
ATOM      7  C   UNL     1       2.688   2.474  20.382  0.00  0.00    +0.000 A 
ATOM      8  C   UNL     1       2.917   3.031  19.101  0.00  0.00    +0.000 A 
BRANCH   8   9
ATOM      9  C   UNL     1       3.295   2.032  18.020  0.00  0.00    +0.000 C 
ATOM     10  F   UNL     1       4.412   2.309  17.301  0.00  0.00    +0.000 F 
ATOM     11  F   UNL     1       3.491   0.783  18.535  0.00  0.00    +0.000 F 
ATOM     12  F   UNL     1       2.304   1.890  17.093  0.00  0.00    +0.000 F 
ENDBRANCH   8   9
ENDBRANCH   2   3
BRANCH   2  13
ATOM     13  C   UNL     1       4.260   4.820  16.852  0.00  0.00    +0.000 C 
BRANCH  13  14
ATOM     14  C   UNL     1       5.068   6.072  16.555  0.00  0.00    +0.000 C 
ATOM     15  O   UNL     1       4.960   6.708  15.513  0.00  0.00    +0.000 OA
ATOM     16  N   UNL     1       5.912   6.533  17.600  0.00  0.00    +0.000 N 
ATOM     17  C   UNL     1       6.581   7.848  17.600  0.00  0.00    +0.000 C 
ATOM     18  C   UNL     1       8.060   7.558  17.830  0.00  0.00    +0.000 C 
ATOM     19  C   UNL     1       8.142   6.481  18.898  0.00  0.00    +0.000 C 
ATOM     20  S   UNL     1       6.681   5.483  18.683  0.00  0.00    +0.000 S 
ATOM     21  O   UNL     1       5.920   5.485  19.912  0.00  0.00    +0.000 OA
ATOM     22  O   UNL     1       7.022   4.266  17.985  0.00  0.00    +0.000 OA
ENDBRANCH  13  14
ENDBRANCH   2  13
TORSDOF 4
ENDMDL
