MODEL 1
REMARK VINA RESULT:      -8.9      0.000      0.000
REMARK  Name = 
REMARK  6 active torsions:
REMARK  status: ('A' for Active; 'I' for Inactive)
REMARK    1  A    between atoms: C_1  and  O_2
REMARK    2  A    between atoms: O_2  and  C_3
REMARK    3  A    between atoms: C_8  and  N_9
REMARK    4  A    between atoms: N_9  and  C_10
REMARK    5  A    between atoms: N_22  and  C_23
REMARK    6  A    between atoms: N_26  and  C_27
REMARK                            x       y       z     vdW  Elec       q    Type
REMARK                         _______ _______ _______ _____ _____    ______ ____
ROOT
ATOM      1  C   UNL     1       1.978   7.349  20.222  0.00  0.00    +0.000 C 
ATOM      2  C   UNL     1       1.293   7.530  21.359  0.00  0.00    +0.000 C 
ATOM      3  C   UNL     1       0.274   8.588  21.469  0.00  0.00    +0.000 C 
ATOM      4  O   UNL     1      -0.745   8.390  22.114  0.00  0.00    +0.000 OA
ATOM      5  C   UNL     1       0.430   9.779  20.623  0.00  0.00    +0.000 A 
ATOM      6  C   UNL     1       1.175   9.635  19.457  0.00  0.00    +0.000 A 
ATOM      7  C   UNL     1       1.191  10.682  18.559  0.00  0.00    +0.000 A 
ATOM      8  N   UNL     1       0.523  11.838  18.763  0.00  0.00    +0.000 NA
ATOM      9  C   UNL     1      -0.173  11.986  19.920  0.00  0.00    +0.000 A 
ATOM     10  C   UNL     1      -0.223  10.991  20.880  0.00  0.00    +0.000 A 
ATOM     11  C   UNL     1      -0.852  11.336  22.161  0.00  0.00    +0.000 A 
ATOM     12  O   UNL     1      -0.469  10.796  23.195  0.00  0.00    +0.000 OA
ATOM     13  N   UNL     1      -1.758  12.381  22.135  0.00  0.00    +0.000 N 
ATOM     14  C   UNL     1      -2.522  12.637  23.342  0.00  0.00    +0.000 C 
ATOM     15  C   UNL     1      -1.659  13.425  21.226  0.00  0.00    +0.000 A 
ATOM     16  O   UNL     1      -2.240  14.497  21.404  0.00  0.00    +0.000 OA
ATOM     17  N   UNL     1      -0.835  13.208  20.136  0.00  0.00    +0.000 N 
ATOM     18  C   UNL     1      -0.642  14.260  19.149  0.00  0.00    +0.000 C 
ATOM     19  C   UNL     1       1.939   8.416  19.171  0.00  0.00    +0.000 C 
ATOM     20  O   UNL     1       2.569   8.294  18.125  0.00  0.00    +0.000 OA
ENDROOT
BRANCH   1  21
ATOM     21  N   UNL     1       2.741   6.235  19.901  0.00  0.00    +0.000 N 
ATOM     22  H   UNL     1       3.505   6.507  19.271  0.00  0.00    +0.000 HD
BRANCH  21  28
ATOM     23  C   UNL     1       2.517   4.339  18.220  0.00  0.00    +0.000 A 
ATOM     24  C   UNL     1       1.883   3.130  17.897  0.00  0.00    +0.000 A 
ATOM     25  C   UNL     1       1.007   2.518  18.791  0.00  0.00    +0.000 A 
ATOM     26  C   UNL     1       0.743   3.112  20.020  0.00  0.00    +0.000 A 
ATOM     27  C   UNL     1       1.341   4.331  20.340  0.00  0.00    +0.000 A 
ATOM     28  C   UNL     1       2.230   4.974  19.456  0.00  0.00    +0.000 A 
BRANCH  23  30
ATOM     29  C   UNL     1       4.446   4.143  16.804  0.00  0.00    +0.000 C 
ATOM     30  O   UNL     1       3.415   4.935  17.376  0.00  0.00    +0.000 OA
ENDBRANCH  23  30
ENDBRANCH  21  28
ENDBRANCH   1  21
TORSDOF 3
ENDMDL
MODEL 2
REMARK VINA RESULT:      -8.3      1.022      1.731
REMARK  Name = 
REMARK  6 active torsions:
REMARK  status: ('A' for Active; 'I' for Inactive)
REMARK    1  A    between atoms: C_1  and  O_2
REMARK    2  A    between atoms: O_2  and  C_3
REMARK    3  A    between atoms: C_8  and  N_9
REMARK    4  A    between atoms: N_9  and  C_10
REMARK    5  A    between atoms: N_22  and  C_23
REMARK    6  A    between atoms: N_26  and  C_27
REMARK                            x       y       z     vdW  Elec       q    Type
REMARK                         _______ _______ _______ _____ _____    ______ ____
ROOT
ATOM      1  C   UNL     1       2.186   7.150  20.098  0.00  0.00    +0.000 C 
ATOM      2  C   UNL     1       1.429   7.295  21.193  0.00  0.00    +0.000 C 
ATOM      3  C   UNL     1       0.367   8.314  21.251  0.00  0.00    +0.000 C 
ATOM      4  O   UNL     1      -0.681   8.072  21.831  0.00  0.00    +0.000 OA
ATOM      5  C   UNL     1       0.528   9.518  20.425  0.00  0.00    +0.000 A 
ATOM      6  C   UNL     1       1.346   9.413  19.304  0.00  0.00    +0.000 A 
ATOM      7  C   UNL     1       1.376  10.468  18.417  0.00  0.00    +0.000 A 
ATOM      8  N   UNL     1       0.654  11.598  18.589  0.00  0.00    +0.000 NA
ATOM      9  C   UNL     1      -0.114  11.709  19.704  0.00  0.00    +0.000 A 
ATOM     10  C   UNL     1      -0.184  10.702  20.652  0.00  0.00    +0.000 A 
ATOM     11  C   UNL     1      -0.900  11.011  21.896  0.00  0.00    +0.000 A 
ATOM     12  O   UNL     1      -0.559  10.476  22.946  0.00  0.00    +0.000 OA
ATOM     13  N   UNL     1      -1.841  12.023  21.823  0.00  0.00    +0.000 N 
ATOM     14  C   UNL     1      -2.685  12.239  22.984  0.00  0.00    +0.000 C 
ATOM     15  C   UNL     1      -1.727  13.079  20.930  0.00  0.00    +0.000 A 
ATOM     16  O   UNL     1      -2.358  14.127  21.081  0.00  0.00    +0.000 OA
ATOM     17  N   UNL     1      -0.833  12.903  19.890  0.00  0.00    +0.000 N 
ATOM     18  C   UNL     1      -0.621  13.971  18.923  0.00  0.00    +0.000 C 
ATOM     19  C   UNL     1       2.170   8.226  19.055  0.00  0.00    +0.000 C 
ATOM     20  O   UNL     1       2.866   8.137  18.048  0.00  0.00    +0.000 OA
ENDROOT
BRANCH   1  21
ATOM     21  N   UNL     1       3.008   6.068  19.815  0.00  0.00    +0.000 N 
ATOM     22  H   UNL     1       3.859   6.394  19.341  0.00  0.00    +0.000 HD
BRANCH  21  28
ATOM     23  C   UNL     1       1.943   3.759  19.822  0.00  0.00    +0.000 A 
ATOM     24  C   UNL     1       1.662   2.597  19.089  0.00  0.00    +0.000 A 
ATOM     25  C   UNL     1       1.974   2.513  17.733  0.00  0.00    +0.000 A 
ATOM     26  C   UNL     1       2.582   3.586  17.093  0.00  0.00    +0.000 A 
ATOM     27  C   UNL     1       2.898   4.734  17.818  0.00  0.00    +0.000 A 
ATOM     28  C   UNL     1       2.596   4.848  19.190  0.00  0.00    +0.000 A 
BRANCH  23  30
ATOM     29  C   UNL     1       1.589   2.716  21.956  0.00  0.00    +0.000 C 
ATOM     30  O   UNL     1       1.606   3.881  21.143  0.00  0.00    +0.000 OA
ENDBRANCH  23  30
ENDBRANCH  21  28
ENDBRANCH   1  21
TORSDOF 3
ENDMDL
MODEL 3
REMARK VINA RESULT:      -8.3      2.400      7.836
REMARK  Name = 
REMARK  6 active torsions:
REMARK  status: ('A' for Active; 'I' for Inactive)
REMARK    1  A    between atoms: C_1  and  O_2
REMARK    2  A    between atoms: O_2  and  C_3
REMARK    3  A    between atoms: C_8  and  N_9
REMARK    4  A    between atoms: N_9  and  C_10
REMARK    5  A    between atoms: N_22  and  C_23
REMARK    6  A    between atoms: N_26  and  C_27
REMARK                            x       y       z     vdW  Elec       q    Type
REMARK                         _______ _______ _______ _____ _____    ______ ____
ROOT
ATOM      1  C   UNL     1       0.807   9.876  19.285  0.00  0.00    +0.000 C 
ATOM      2  C   UNL     1       0.459   8.994  20.231  0.00  0.00    +0.000 C 
ATOM      3  C   UNL     1       1.292   7.812  20.508  0.00  0.00    +0.000 C 
ATOM      4  O   UNL     1       1.420   7.410  21.655  0.00  0.00    +0.000 OA
ATOM      5  C   UNL     1       2.111   7.279  19.411  0.00  0.00    +0.000 A 
ATOM      6  C   UNL     1       2.451   8.159  18.389  0.00  0.00    +0.000 A 
ATOM      7  C   UNL     1       3.360   7.738  17.440  0.00  0.00    +0.000 A 
ATOM      8  N   UNL     1       3.927   6.512  17.455  0.00  0.00    +0.000 NA
ATOM      9  C   UNL     1       3.562   5.645  18.435  0.00  0.00    +0.000 A 
ATOM     10  C   UNL     1       2.643   5.984  19.412  0.00  0.00    +0.000 A 
ATOM     11  C   UNL     1       2.195   4.907  20.304  0.00  0.00    +0.000 A 
ATOM     12  O   UNL     1       1.062   4.934  20.774  0.00  0.00    +0.000 OA
ATOM     13  N   UNL     1       3.053   3.830  20.441  0.00  0.00    +0.000 N 
ATOM     14  C   UNL     1       2.724   2.831  21.440  0.00  0.00    +0.000 C 
ATOM     15  C   UNL     1       3.917   3.437  19.427  0.00  0.00    +0.000 A 
ATOM     16  O   UNL     1       4.427   2.316  19.408  0.00  0.00    +0.000 OA
ATOM     17  N   UNL     1       4.134   4.359  18.420  0.00  0.00    +0.000 N 
ATOM     18  C   UNL     1       4.996   4.021  17.296  0.00  0.00    +0.000 C 
ATOM     19  C   UNL     1       1.867   9.501  18.295  0.00  0.00    +0.000 C 
ATOM     20  O   UNL     1       2.199  10.276  17.403  0.00  0.00    +0.000 OA
ENDROOT
BRANCH   1  21
ATOM     21  N   UNL     1       0.276  11.149  19.124  0.00  0.00    +0.000 N 
ATOM     22  H   UNL     1       0.782  11.814  19.721  0.00  0.00    +0.000 HD
BRANCH  21  28
ATOM     23  C   UNL     1      -2.101  11.114  18.221  0.00  0.00    +0.000 A 
ATOM     24  C   UNL     1      -3.417  11.579  18.369  0.00  0.00    +0.000 A 
ATOM     25  C   UNL     1      -3.781  12.364  19.461  0.00  0.00    +0.000 A 
ATOM     26  C   UNL     1      -2.832  12.705  20.418  0.00  0.00    +0.000 A 
ATOM     27  C   UNL     1      -1.513  12.277  20.266  0.00  0.00    +0.000 A 
ATOM     28  C   UNL     1      -1.115  11.484  19.171  0.00  0.00    +0.000 A 
BRANCH  23  30
ATOM     29  C   UNL     1      -2.665  10.063  16.137  0.00  0.00    +0.000 C 
ATOM     30  O   UNL     1      -1.731  10.306  17.180  0.00  0.00    +0.000 OA
ENDBRANCH  23  30
ENDBRANCH  21  28
ENDBRANCH   1  21
TORSDOF 3
ENDMDL
MODEL 4
REMARK VINA RESULT:      -8.3      2.145      3.898
REMARK  Name = 
REMARK  6 active torsions:
REMARK  status: ('A' for Active; 'I' for Inactive)
REMARK    1  A    between atoms: C_1  and  O_2
REMARK    2  A    between atoms: O_2  and  C_3
REMARK    3  A    between atoms: C_8  and  N_9
REMARK    4  A    between atoms: N_9  and  C_10
REMARK    5  A    between atoms: N_22  and  C_23
REMARK    6  A    between atoms: N_26  and  C_27
REMARK                            x       y       z     vdW  Elec       q    Type
REMARK                         _______ _______ _______ _____ _____    ______ ____
ROOT
ATOM      1  C   UNL     1       2.790   6.473  18.342  0.00  0.00    +0.000 C 
ATOM      2  C   UNL     1       2.478   7.496  17.536  0.00  0.00    +0.000 C 
ATOM      3  C   UNL     1       2.042   8.790  18.088  0.00  0.00    +0.000 C 
ATOM      4  O   UNL     1       2.385   9.831  17.547  0.00  0.00    +0.000 OA
ATOM      5  C   UNL     1       1.378   8.786  19.398  0.00  0.00    +0.000 A 
ATOM      6  C   UNL     1       1.645   7.713  20.241  0.00  0.00    +0.000 A 
ATOM      7  C   UNL     1       1.178   7.769  21.538  0.00  0.00    +0.000 A 
ATOM      8  N   UNL     1       0.470   8.813  22.022  0.00  0.00    +0.000 NA
ATOM      9  C   UNL     1       0.181   9.841  21.183  0.00  0.00    +0.000 A 
ATOM     10  C   UNL     1       0.597   9.852  19.863  0.00  0.00    +0.000 A 
ATOM     11  C   UNL     1       0.070  10.924  19.010  0.00  0.00    +0.000 A 
ATOM     12  O   UNL     1      -0.099  10.725  17.811  0.00  0.00    +0.000 OA
ATOM     13  N   UNL     1      -0.349  12.071  19.660  0.00  0.00    +0.000 N 
ATOM     14  C   UNL     1      -0.714  13.212  18.840  0.00  0.00    +0.000 C 
ATOM     15  C   UNL     1      -0.846  12.050  20.956  0.00  0.00    +0.000 A 
ATOM     16  O   UNL     1      -1.515  12.980  21.409  0.00  0.00    +0.000 OA
ATOM     17  N   UNL     1      -0.587  10.906  21.688  0.00  0.00    +0.000 N 
ATOM     18  C   UNL     1      -1.100  10.778  23.045  0.00  0.00    +0.000 C 
ATOM     19  C   UNL     1       2.394   6.537  19.786  0.00  0.00    +0.000 C 
ATOM     20  O   UNL     1       2.646   5.610  20.550  0.00  0.00    +0.000 OA
ENDROOT
BRANCH   1  21
ATOM     21  N   UNL     1       3.471   5.322  17.970  0.00  0.00    +0.000 N 
ATOM     22  H   UNL     1       3.119   4.521  18.508  0.00  0.00    +0.000 HD
BRANCH  21  28
ATOM     23  C   UNL     1       5.611   4.712  16.738  0.00  0.00    +0.000 A 
ATOM     24  C   UNL     1       7.005   4.577  16.810  0.00  0.00    +0.000 A 
ATOM     25  C   UNL     1       7.703   4.950  17.957  0.00  0.00    +0.000 A 
ATOM     26  C   UNL     1       7.015   5.453  19.055  0.00  0.00    +0.000 A 
ATOM     27  C   UNL     1       5.625   5.561  19.009  0.00  0.00    +0.000 A 
ATOM     28  C   UNL     1       4.892   5.191  17.863  0.00  0.00    +0.000 A 
BRANCH  23  30
ATOM     29  C   UNL     1       5.618   4.229  14.386  0.00  0.00    +0.000 C 
ATOM     30  O   UNL     1       4.909   4.393  15.607  0.00  0.00    +0.000 OA
ENDBRANCH  23  30
ENDBRANCH  21  28
ENDBRANCH   1  21
TORSDOF 3
ENDMDL
MODEL 5
REMARK VINA RESULT:      -8.3      2.183      3.833
REMARK  Name = 
REMARK  6 active torsions:
REMARK  status: ('A' for Active; 'I' for Inactive)
REMARK    1  A    between atoms: C_1  and  O_2
REMARK    2  A    between atoms: O_2  and  C_3
REMARK    3  A    between atoms: C_8  and  N_9
REMARK    4  A    between atoms: N_9  and  C_10
REMARK    5  A    between atoms: N_22  and  C_23
REMARK    6  A    between atoms: N_26  and  C_27
REMARK                            x       y       z     vdW  Elec       q    Type
REMARK                         _______ _______ _______ _____ _____    ______ ____
ROOT
ATOM      1  C   UNL     1       2.571   7.424  18.366  0.00  0.00    +0.000 C 
ATOM      2  C   UNL     1       2.332   8.543  17.670  0.00  0.00    +0.000 C 
ATOM      3  C   UNL     1       1.875   9.771  18.343  0.00  0.00    +0.000 C 
ATOM      4  O   UNL     1       2.270  10.861  17.957  0.00  0.00    +0.000 OA
ATOM      5  C   UNL     1       1.118   9.625  19.593  0.00  0.00    +0.000 A 
ATOM      6  C   UNL     1       1.310   8.453  20.317  0.00  0.00    +0.000 A 
ATOM      7  C   UNL     1       0.752   8.364  21.576  0.00  0.00    +0.000 A 
ATOM      8  N   UNL     1       0.025   9.359  22.131  0.00  0.00    +0.000 NA
ATOM      9  C   UNL     1      -0.189  10.486  21.404  0.00  0.00    +0.000 A 
ATOM     10  C   UNL     1       0.321  10.645  20.128  0.00  0.00    +0.000 A 
ATOM     11  C   UNL     1      -0.129  11.823  19.376  0.00  0.00    +0.000 A 
ATOM     12  O   UNL     1      -0.214  11.772  18.153  0.00  0.00    +0.000 OA
ATOM     13  N   UNL     1      -0.578  12.893  20.129  0.00  0.00    +0.000 N 
ATOM     14  C   UNL     1      -0.867  14.132  19.430  0.00  0.00    +0.000 C 
ATOM     15  C   UNL     1      -1.166  12.728  21.375  0.00  0.00    +0.000 A 
ATOM     16  O   UNL     1      -1.853  13.612  21.890  0.00  0.00    +0.000 OA
ATOM     17  N   UNL     1      -0.977  11.499  21.981  0.00  0.00    +0.000 N 
ATOM     18  C   UNL     1      -1.587  11.222  23.273  0.00  0.00    +0.000 C 
ATOM     19  C   UNL     1       2.073   7.324  19.776  0.00  0.00    +0.000 C 
ATOM     20  O   UNL     1       2.257   6.307  20.438  0.00  0.00    +0.000 OA
ENDROOT
BRANCH   1  21
ATOM     21  N   UNL     1       3.261   6.311  17.906  0.00  0.00    +0.000 N 
ATOM     22  H   UNL     1       2.792   5.455  18.226  0.00  0.00    +0.000 HD
BRANCH  21  28
ATOM     23  C   UNL     1       5.328   5.167  18.846  0.00  0.00    +0.000 A 
ATOM     24  C   UNL     1       6.730   5.130  18.885  0.00  0.00    +0.000 A 
ATOM     25  C   UNL     1       7.492   5.971  18.076  0.00  0.00    +0.000 A 
ATOM     26  C   UNL     1       6.863   6.870  17.223  0.00  0.00    +0.000 A 
ATOM     27  C   UNL     1       5.470   6.941  17.200  0.00  0.00    +0.000 A 
ATOM     28  C   UNL     1       4.674   6.104  18.007  0.00  0.00    +0.000 A 
BRANCH  23  30
ATOM     29  C   UNL     1       4.203   3.057  19.057  0.00  0.00    +0.000 C 
ATOM     30  O   UNL     1       4.560   4.321  19.599  0.00  0.00    +0.000 OA
ENDBRANCH  23  30
ENDBRANCH  21  28
ENDBRANCH   1  21
TORSDOF 3
ENDMDL
MODEL 6
REMARK VINA RESULT:      -8.3      2.127      4.162
REMARK  Name = 
REMARK  6 active torsions:
REMARK  status: ('A' for Active; 'I' for Inactive)
REMARK    1  A    between atoms: C_1  and  O_2
REMARK    2  A    between atoms: O_2  and  C_3
REMARK    3  A    between atoms: C_8  and  N_9
REMARK    4  A    between atoms: N_9  and  C_10
REMARK    5  A    between atoms: N_22  and  C_23
REMARK    6  A    between atoms: N_26  and  C_27
REMARK                            x       y       z     vdW  Elec       q    Type
REMARK                         _______ _______ _______ _____ _____    ______ ____
ROOT
ATOM      1  C   UNL     1       2.904   6.042  18.403  0.00  0.00    +0.000 C 
ATOM      2  C   UNL     1       2.547   6.986  17.523  0.00  0.00    +0.000 C 
ATOM      3  C   UNL     1       2.127   8.323  17.976  0.00  0.00    +0.000 C 
ATOM      4  O   UNL     1       2.435   9.312  17.327  0.00  0.00    +0.000 OA
ATOM      5  C   UNL     1       1.523   8.436  19.310  0.00  0.00    +0.000 A 
ATOM      6  C   UNL     1       1.838   7.445  20.234  0.00  0.00    +0.000 A 
ATOM      7  C   UNL     1       1.431   7.617  21.541  0.00  0.00    +0.000 A 
ATOM      8  N   UNL     1       0.737   8.698  21.960  0.00  0.00    +0.000 NA
ATOM      9  C   UNL     1       0.401   9.644  21.046  0.00  0.00    +0.000 A 
ATOM     10  C   UNL     1       0.755   9.536  19.712  0.00  0.00    +0.000 A 
ATOM     11  C   UNL     1       0.181  10.525  18.791  0.00  0.00    +0.000 A 
ATOM     12  O   UNL     1      -0.041  10.216  17.624  0.00  0.00    +0.000 OA
ATOM     13  N   UNL     1      -0.217  11.724  19.353  0.00  0.00    +0.000 N 
ATOM     14  C   UNL     1      -0.629  12.784  18.451  0.00  0.00    +0.000 C 
ATOM     15  C   UNL     1      -0.653  11.819  20.667  0.00  0.00    +0.000 A 
ATOM     16  O   UNL     1      -1.308  12.784  21.066  0.00  0.00    +0.000 OA
ATOM     17  N   UNL     1      -0.352  10.747  21.488  0.00  0.00    +0.000 N 
ATOM     18  C   UNL     1      -0.800  10.742  22.873  0.00  0.00    +0.000 C 
ATOM     19  C   UNL     1       2.575   6.236  19.852  0.00  0.00    +0.000 C 
ATOM     20  O   UNL     1       2.869   5.383  20.685  0.00  0.00    +0.000 OA
ENDROOT
BRANCH   1  21
ATOM     21  N   UNL     1       3.577   4.865  18.106  0.00  0.00    +0.000 N 
ATOM     22  H   UNL     1       3.695   4.307  18.960  0.00  0.00    +0.000 HD
BRANCH  21  28
ATOM     23  C   UNL     1       6.106   4.868  17.840  0.00  0.00    +0.000 A 
ATOM     24  C   UNL     1       7.190   4.815  16.951  0.00  0.00    +0.000 A 
ATOM     25  C   UNL     1       6.988   4.614  15.587  0.00  0.00    +0.000 A 
ATOM     26  C   UNL     1       5.698   4.474  15.089  0.00  0.00    +0.000 A 
ATOM     27  C   UNL     1       4.610   4.559  15.957  0.00  0.00    +0.000 A 
ATOM     28  C   UNL     1       4.783   4.763  17.341  0.00  0.00    +0.000 A 
BRANCH  23  30
ATOM     29  C   UNL     1       7.475   5.632  19.658  0.00  0.00    +0.000 C 
ATOM     30  O   UNL     1       6.282   5.021  19.189  0.00  0.00    +0.000 OA
ENDBRANCH  23  30
ENDBRANCH  21  28
ENDBRANCH   1  21
TORSDOF 3
ENDMDL
MODEL 7
REMARK VINA RESULT:      -8.2      2.186      7.993
REMARK  Name = 
REMARK  6 active torsions:
REMARK  status: ('A' for Active; 'I' for Inactive)
REMARK    1  A    between atoms: C_1  and  O_2
REMARK    2  A    between atoms: O_2  and  C_3
REMARK    3  A    between atoms: C_8  and  N_9
REMARK    4  A    between atoms: N_9  and  C_10
REMARK    5  A    between atoms: N_22  and  C_23
REMARK    6  A    between atoms: N_26  and  C_27
REMARK                            x       y       z     vdW  Elec       q    Type
REMARK                         _______ _______ _______ _____ _____    ______ ____
ROOT
ATOM      1  C   UNL     1       0.833   9.859  19.341  0.00  0.00    +0.000 C 
ATOM      2  C   UNL     1       0.491   8.969  20.282  0.00  0.00    +0.000 C 
ATOM      3  C   UNL     1       1.321   7.780  20.539  0.00  0.00    +0.000 C 
ATOM      4  O   UNL     1       1.459   7.367  21.681  0.00  0.00    +0.000 OA
ATOM      5  C   UNL     1       2.126   7.255  19.429  0.00  0.00    +0.000 A 
ATOM      6  C   UNL     1       2.461   8.143  18.412  0.00  0.00    +0.000 A 
ATOM      7  C   UNL     1       3.358   7.728  17.450  0.00  0.00    +0.000 A 
ATOM      8  N   UNL     1       3.920   6.499  17.448  0.00  0.00    +0.000 NA
ATOM      9  C   UNL     1       3.561   5.624  18.422  0.00  0.00    +0.000 A 
ATOM     10  C   UNL     1       2.653   5.957  19.412  0.00  0.00    +0.000 A 
ATOM     11  C   UNL     1       2.209   4.873  20.298  0.00  0.00    +0.000 A 
ATOM     12  O   UNL     1       1.080   4.901  20.779  0.00  0.00    +0.000 OA
ATOM     13  N   UNL     1       3.063   3.792  20.416  0.00  0.00    +0.000 N 
ATOM     14  C   UNL     1       2.739   2.785  21.409  0.00  0.00    +0.000 C 
ATOM     15  C   UNL     1       3.915   3.405  19.390  0.00  0.00    +0.000 A 
ATOM     16  O   UNL     1       4.420   2.281  19.355  0.00  0.00    +0.000 OA
ATOM     17  N   UNL     1       4.126   4.336  18.389  0.00  0.00    +0.000 N 
ATOM     18  C   UNL     1       4.976   4.005  17.254  0.00  0.00    +0.000 C 
ATOM     19  C   UNL     1       1.882   9.489  18.337  0.00  0.00    +0.000 C 
ATOM     20  O   UNL     1       2.208  10.271  17.449  0.00  0.00    +0.000 OA
ENDROOT
BRANCH   1  21
ATOM     21  N   UNL     1       0.306  11.135  19.198  0.00  0.00    +0.000 N 
ATOM     22  H   UNL     1       0.704  11.757  19.912  0.00  0.00    +0.000 HD
BRANCH  21  28
ATOM     23  C   UNL     1      -1.875  12.179  19.985  0.00  0.00    +0.000 A 
ATOM     24  C   UNL     1      -3.245  12.353  19.739  0.00  0.00    +0.000 A 
ATOM     25  C   UNL     1      -3.833  11.861  18.575  0.00  0.00    +0.000 A 
ATOM     26  C   UNL     1      -3.060  11.178  17.643  0.00  0.00    +0.000 A 
ATOM     27  C   UNL     1      -1.704  10.969  17.891  0.00  0.00    +0.000 A 
ATOM     28  C   UNL     1      -1.082  11.454  19.059  0.00  0.00    +0.000 A 
BRANCH  23  30
ATOM     29  C   UNL     1      -1.213  11.896  22.275  0.00  0.00    +0.000 C 
ATOM     30  O   UNL     1      -1.268  12.691  21.100  0.00  0.00    +0.000 OA
ENDBRANCH  23  30
ENDBRANCH  21  28
ENDBRANCH   1  21
TORSDOF 3
ENDMDL
MODEL 8
REMARK VINA RESULT:      -8.0      1.096      1.148
REMARK  Name = 
REMARK  6 active torsions:
REMARK  status: ('A' for Active; 'I' for Inactive)
REMARK    1  A    between atoms: C_1  and  O_2
REMARK    2  A    between atoms: O_2  and  C_3
REMARK    3  A    between atoms: C_8  and  N_9
REMARK    4  A    between atoms: N_9  and  C_10
REMARK    5  A    between atoms: N_22  and  C_23
REMARK    6  A    between atoms: N_26  and  C_27
REMARK                            x       y       z     vdW  Elec       q    Type
REMARK                         _______ _______ _______ _____ _____    ______ ____
ROOT
ATOM      1  C   UNL     1       2.430   7.257  19.367  0.00  0.00    +0.000 C 
ATOM      2  C   UNL     1       1.874   7.279  20.586  0.00  0.00    +0.000 C 
ATOM      3  C   UNL     1       0.816   8.249  20.918  0.00  0.00    +0.000 C 
ATOM      4  O   UNL     1      -0.107   7.919  21.647  0.00  0.00    +0.000 OA
ATOM      5  C   UNL     1       0.802   9.524  20.188  0.00  0.00    +0.000 A 
ATOM      6  C   UNL     1       1.412   9.545  18.938  0.00  0.00    +0.000 A 
ATOM      7  C   UNL     1       1.263  10.673  18.158  0.00  0.00    +0.000 A 
ATOM      8  N   UNL     1       0.558  11.755  18.554  0.00  0.00    +0.000 NA
ATOM      9  C   UNL     1      -0.004  11.742  19.790  0.00  0.00    +0.000 A 
ATOM     10  C   UNL     1       0.116  10.657  20.641  0.00  0.00    +0.000 A 
ATOM     11  C   UNL     1      -0.377  10.832  22.013  0.00  0.00    +0.000 A 
ATOM     12  O   UNL     1       0.155  10.223  22.936  0.00  0.00    +0.000 OA
ATOM     13  N   UNL     1      -1.338  11.810  22.197  0.00  0.00    +0.000 N 
ATOM     14  C   UNL     1      -1.969  11.895  23.501  0.00  0.00    +0.000 C 
ATOM     15  C   UNL     1      -1.407  12.942  21.396  0.00  0.00    +0.000 A 
ATOM     16  O   UNL     1      -2.024  13.949  21.748  0.00  0.00    +0.000 OA
ATOM     17  N   UNL     1      -0.706  12.889  20.205  0.00  0.00    +0.000 N 
ATOM     18  C   UNL     1      -0.691  14.042  19.317  0.00  0.00    +0.000 C 
ATOM     19  C   UNL     1       2.206   8.415  18.444  0.00  0.00    +0.000 C 
ATOM     20  O   UNL     1       2.716   8.439  17.327  0.00  0.00    +0.000 OA
ENDROOT
BRANCH   1  21
ATOM     21  N   UNL     1       3.213   6.234  18.849  0.00  0.00    +0.000 N 
ATOM     22  H   UNL     1       3.435   6.432  17.866  0.00  0.00    +0.000 HD
BRANCH  21  28
ATOM     23  C   UNL     1       3.892   3.812  19.218  0.00  0.00    +0.000 A 
ATOM     24  C   UNL     1       3.481   2.471  19.240  0.00  0.00    +0.000 A 
ATOM     25  C   UNL     1       2.141   2.129  19.062  0.00  0.00    +0.000 A 
ATOM     26  C   UNL     1       1.194   3.123  18.850  0.00  0.00    +0.000 A 
ATOM     27  C   UNL     1       1.594   4.458  18.794  0.00  0.00    +0.000 A 
ATOM     28  C   UNL     1       2.942   4.834  18.968  0.00  0.00    +0.000 A 
BRANCH  23  30
ATOM     29  C   UNL     1       6.026   4.437  18.312  0.00  0.00    +0.000 C 
ATOM     30  O   UNL     1       5.195   4.174  19.434  0.00  0.00    +0.000 OA
ENDBRANCH  23  30
ENDBRANCH  21  28
ENDBRANCH   1  21
TORSDOF 3
ENDMDL
MODEL 9
REMARK VINA RESULT:      -8.0      2.127      8.065
REMARK  Name = 
REMARK  6 active torsions:
REMARK  status: ('A' for Active; 'I' for Inactive)
REMARK    1  A    between atoms: C_1  and  O_2
REMARK    2  A    between atoms: O_2  and  C_3
REMARK    3  A    between atoms: C_8  and  N_9
REMARK    4  A    between atoms: N_9  and  C_10
REMARK    5  A    between atoms: N_22  and  C_23
REMARK    6  A    between atoms: N_26  and  C_27
REMARK                            x       y       z     vdW  Elec       q    Type
REMARK                         _______ _______ _______ _____ _____    ______ ____
ROOT
ATOM      1  C   UNL     1       0.965   9.980  19.230  0.00  0.00    +0.000 C 
ATOM      2  C   UNL     1       0.584   9.120  20.183  0.00  0.00    +0.000 C 
ATOM      3  C   UNL     1       1.369   7.906  20.467  0.00  0.00    +0.000 C 
ATOM      4  O   UNL     1       1.484   7.509  21.617  0.00  0.00    +0.000 OA
ATOM      5  C   UNL     1       2.162   7.332  19.372  0.00  0.00    +0.000 A 
ATOM      6  C   UNL     1       2.535   8.190  18.342  0.00  0.00    +0.000 A 
ATOM      7  C   UNL     1       3.422   7.725  17.394  0.00  0.00    +0.000 A 
ATOM      8  N   UNL     1       3.939   6.476  17.417  0.00  0.00    +0.000 NA
ATOM      9  C   UNL     1       3.542   5.632  18.404  0.00  0.00    +0.000 A 
ATOM     10  C   UNL     1       2.641   6.016  19.382  0.00  0.00    +0.000 A 
ATOM     11  C   UNL     1       2.152   4.965  20.283  0.00  0.00    +0.000 A 
ATOM     12  O   UNL     1       1.022   5.043  20.756  0.00  0.00    +0.000 OA
ATOM     13  N   UNL     1       2.965   3.856  20.426  0.00  0.00    +0.000 N 
ATOM     14  C   UNL     1       2.598   2.879  21.434  0.00  0.00    +0.000 C 
ATOM     15  C   UNL     1       3.809   3.420  19.414  0.00  0.00    +0.000 A 
ATOM     16  O   UNL     1       4.272   2.278  19.402  0.00  0.00    +0.000 OA
ATOM     17  N   UNL     1       4.060   4.324  18.398  0.00  0.00    +0.000 N 
ATOM     18  C   UNL     1       4.905   3.943  17.275  0.00  0.00    +0.000 C 
ATOM     19  C   UNL     1       2.006   9.554  18.239  0.00  0.00    +0.000 C 
ATOM     20  O   UNL     1       2.366  10.308  17.340  0.00  0.00    +0.000 OA
ENDROOT
BRANCH   1  21
ATOM     21  N   UNL     1       0.485  11.271  19.060  0.00  0.00    +0.000 N 
ATOM     22  H   UNL     1       1.215  11.860  18.641  0.00  0.00    +0.000 HD
BRANCH  21  28
ATOM     23  C   UNL     1       0.410  12.708  21.157  0.00  0.00    +0.000 A 
ATOM     24  C   UNL     1      -0.397  13.377  22.089  0.00  0.00    +0.000 A 
ATOM     25  C   UNL     1      -1.780  13.441  21.925  0.00  0.00    +0.000 A 
ATOM     26  C   UNL     1      -2.378  12.827  20.830  0.00  0.00    +0.000 A 
ATOM     27  C   UNL     1      -1.590  12.131  19.914  0.00  0.00    +0.000 A 
ATOM     28  C   UNL     1      -0.190  12.048  20.055  0.00  0.00    +0.000 A 
BRANCH  23  30
ATOM     29  C   UNL     1       2.532  13.769  20.791  0.00  0.00    +0.000 C 
ATOM     30  O   UNL     1       1.773  12.670  21.274  0.00  0.00    +0.000 OA
ENDBRANCH  23  30
ENDBRANCH  21  28
ENDBRANCH   1  21
TORSDOF 3
ENDMDL
