MODEL 1
REMARK VINA RESULT:      -7.2      0.000      0.000
REMARK  Name = 
REMARK  7 active torsions:
REMARK  status: ('A' for Active; 'I' for Inactive)
REMARK    1  A    between atoms: C_1  and  C_2
REMARK    2  A    between atoms: C_4  and  C_5
REMARK    3  A    between atoms: N_13  and  C_14
REMARK    4  A    between atoms: N_13  and  N_15
REMARK    5  A    between atoms: C_16  and  C_18
REMARK    6  A    between atoms: C_25  and  S_26
REMARK    7  A    between atoms: S_26  and  C_27
REMARK                            x       y       z     vdW  Elec       q    Type
REMARK                         _______ _______ _______ _____ _____    ______ ____
ROOT
ATOM      1  C   UNL     1      -6.146  11.286  17.755  0.00  0.00    +0.000 C 
ATOM      2  C   UNL     1      -5.227  11.755  18.850  0.00  0.00    +0.000 A 
ATOM      3  C   UNL     1      -5.856  12.356  19.944  0.00  0.00    +0.000 A 
ATOM      4  C   UNL     1      -5.116  12.883  20.989  0.00  0.00    +0.000 A 
ATOM      5  N   UNL     1      -3.762  12.866  20.953  0.00  0.00    +0.000 NA
ATOM      6  C   UNL     1      -3.095  12.255  19.913  0.00  0.00    +0.000 A 
ATOM      7  N   UNL     1      -1.683  12.385  19.919  0.00  0.00    +0.000 N 
ATOM      8  C   UNL     1      -1.126  13.433  20.775  0.00  0.00    +0.000 C 
ATOM      9  C   UNL     1      -3.813  11.689  18.834  0.00  0.00    +0.000 A 
ENDROOT
BRANCH   4  10
ATOM     10  C   UNL     1      -5.796  13.552  22.125  0.00  0.00    +0.000 A 
ATOM     11  C   UNL     1      -6.946  12.982  22.722  0.00  0.00    +0.000 A 
ATOM     12  C   UNL     1      -7.686  13.655  23.697  0.00  0.00    +0.000 A 
ATOM     13  C   UNL     1      -7.280  14.912  24.125  0.00  0.00    +0.000 A 
ATOM     14  C   UNL     1      -6.126  15.481  23.591  0.00  0.00    +0.000 A 
ATOM     15  C   UNL     1      -5.390  14.807  22.605  0.00  0.00    +0.000 A 
ENDBRANCH   4  10
BRANCH   7  16
ATOM     16  N   UNL     1      -0.867  11.223  19.859  0.00  0.00    +0.000 N 
ATOM     17  C   UNL     1       0.384  11.150  19.256  0.00  0.00    +0.000 C 
ATOM     18  O   UNL     1       0.989  12.068  18.719  0.00  0.00    +0.000 OA
ATOM     19  H   UNL     1      -1.234  10.419  20.358  0.00  0.00    +0.000 HD
BRANCH  17  20
ATOM     20  C   UNL     1       1.024   9.801  19.361  0.00  0.00    +0.000 A 
ATOM     21  C   UNL     1       0.977   9.063  20.554  0.00  0.00    +0.000 A 
ATOM     22  C   UNL     1       1.604   7.814  20.632  0.00  0.00    +0.000 A 
ATOM     23  C   UNL     1       2.276   7.300  19.522  0.00  0.00    +0.000 A 
ATOM     24 CL   UNL     1       3.051   5.768  19.628  0.00  0.00    +0.000 Cl
ATOM     25  C   UNL     1       2.320   8.021  18.330  0.00  0.00    +0.000 A 
ATOM     26  C   UNL     1       1.690   9.268  18.247  0.00  0.00    +0.000 A 
ENDBRANCH  17  20
ENDBRANCH   7  16
BRANCH   9  27
ATOM     27  S   UNL     1      -2.966  11.066  17.388  0.00  0.00    +0.000 S 
ATOM     28  C   UNL     1      -4.159  11.050  16.083  0.00  0.00    +0.000 C 
ATOM     29  O   UNL     1      -1.881  11.961  17.013  0.00  0.00    +0.000 OA
ATOM     30  O   UNL     1      -2.646   9.666  17.579  0.00  0.00    +0.000 OA
ENDBRANCH   9  27
TORSDOF 4
ENDMDL
MODEL 2
REMARK VINA RESULT:      -7.1      1.184      1.684
REMARK  Name = 
REMARK  7 active torsions:
REMARK  status: ('A' for Active; 'I' for Inactive)
REMARK    1  A    between atoms: C_1  and  C_2
REMARK    2  A    between atoms: C_4  and  C_5
REMARK    3  A    between atoms: N_13  and  C_14
REMARK    4  A    between atoms: N_13  and  N_15
REMARK    5  A    between atoms: C_16  and  C_18
REMARK    6  A    between atoms: C_25  and  S_26
REMARK    7  A    between atoms: S_26  and  C_27
REMARK                            x       y       z     vdW  Elec       q    Type
REMARK                         _______ _______ _______ _____ _____    ______ ____
ROOT
ATOM      1  C   UNL     1      -6.009  11.386  18.872  0.00  0.00    +0.000 C 
ATOM      2  C   UNL     1      -4.789  12.012  19.492  0.00  0.00    +0.000 A 
ATOM      3  C   UNL     1      -5.030  12.809  20.615  0.00  0.00    +0.000 A 
ATOM      4  C   UNL     1      -3.997  13.488  21.241  0.00  0.00    +0.000 A 
ATOM      5  N   UNL     1      -2.736  13.429  20.750  0.00  0.00    +0.000 NA
ATOM      6  C   UNL     1      -2.441  12.631  19.665  0.00  0.00    +0.000 A 
ATOM      7  N   UNL     1      -1.116  12.723  19.168  0.00  0.00    +0.000 N 
ATOM      8  C   UNL     1      -0.338  13.888  19.593  0.00  0.00    +0.000 C 
ATOM      9  C   UNL     1      -3.464  11.907  19.008  0.00  0.00    +0.000 A 
ENDROOT
BRANCH   4  10
ATOM     10  C   UNL     1      -4.274  14.359  22.409  0.00  0.00    +0.000 A 
ATOM     11  C   UNL     1      -5.602  14.679  22.779  0.00  0.00    +0.000 A 
ATOM     12  C   UNL     1      -5.889  15.606  23.784  0.00  0.00    +0.000 A 
ATOM     13  C   UNL     1      -4.851  16.221  24.471  0.00  0.00    +0.000 A 
ATOM     14  C   UNL     1      -3.532  15.892  24.163  0.00  0.00    +0.000 A 
ATOM     15  C   UNL     1      -3.247  14.969  23.146  0.00  0.00    +0.000 A 
ENDBRANCH   4  10
BRANCH   7  16
ATOM     16  N   UNL     1      -0.331  11.547  19.033  0.00  0.00    +0.000 N 
ATOM     17  C   UNL     1       0.125  10.760  20.086  0.00  0.00    +0.000 C 
ATOM     18  O   UNL     1      -0.103  10.931  21.276  0.00  0.00    +0.000 OA
ATOM     19  H   UNL     1      -0.159  11.257  18.076  0.00  0.00    +0.000 HD
BRANCH  17  20
ATOM     20  C   UNL     1       0.917   9.568  19.646  0.00  0.00    +0.000 A 
ATOM     21  C   UNL     1       1.310   9.408  18.308  0.00  0.00    +0.000 A 
ATOM     22  C   UNL     1       2.031   8.272  17.919  0.00  0.00    +0.000 A 
ATOM     23  C   UNL     1       2.359   7.298  18.863  0.00  0.00    +0.000 A 
ATOM     24 CL   UNL     1       3.238   5.902  18.376  0.00  0.00    +0.000 Cl
ATOM     25  C   UNL     1       1.981   7.452  20.196  0.00  0.00    +0.000 A 
ATOM     26  C   UNL     1       1.265   8.589  20.588  0.00  0.00    +0.000 A 
ENDBRANCH  17  20
ENDBRANCH   7  16
BRANCH   9  27
ATOM     27  S   UNL     1      -3.137  11.024  17.488  0.00  0.00    +0.000 S 
ATOM     28  C   UNL     1      -4.533  11.306  16.441  0.00  0.00    +0.000 C 
ATOM     29  O   UNL     1      -1.952  11.560  16.836  0.00  0.00    +0.000 OA
ATOM     30  O   UNL     1      -3.178   9.597  17.739  0.00  0.00    +0.000 OA
ENDBRANCH   9  27
TORSDOF 4
ENDMDL
MODEL 3
REMARK VINA RESULT:      -7.1      3.618      8.643
REMARK  Name = 
REMARK  7 active torsions:
REMARK  status: ('A' for Active; 'I' for Inactive)
REMARK    1  A    between atoms: C_1  and  C_2
REMARK    2  A    between atoms: C_4  and  C_5
REMARK    3  A    between atoms: N_13  and  C_14
REMARK    4  A    between atoms: N_13  and  N_15
REMARK    5  A    between atoms: C_16  and  C_18
REMARK    6  A    between atoms: C_25  and  S_26
REMARK    7  A    between atoms: S_26  and  C_27
REMARK                            x       y       z     vdW  Elec       q    Type
REMARK                         _______ _______ _______ _____ _____    ______ ____
ROOT
ATOM      1  C   UNL     1       0.293   9.273  23.658  0.00  0.00    +0.000 C 
ATOM      2  C   UNL     1       0.422   9.380  22.163  0.00  0.00    +0.000 A 
ATOM      3  C   UNL     1       1.160   8.362  21.551  0.00  0.00    +0.000 A 
ATOM      4  C   UNL     1       1.401   8.379  20.187  0.00  0.00    +0.000 A 
ATOM      5  N   UNL     1       0.962   9.407  19.422  0.00  0.00    +0.000 NA
ATOM      6  C   UNL     1       0.201  10.417  19.971  0.00  0.00    +0.000 A 
ATOM      7  N   UNL     1      -0.117  11.495  19.107  0.00  0.00    +0.000 N 
ATOM      8  C   UNL     1       0.681  11.613  17.886  0.00  0.00    +0.000 C 
ATOM      9  C   UNL     1      -0.083  10.428  21.357  0.00  0.00    +0.000 A 
ENDROOT
BRANCH   4  10
ATOM     10  C   UNL     1       2.218   7.313  19.558  0.00  0.00    +0.000 A 
ATOM     11  C   UNL     1       2.914   7.547  18.349  0.00  0.00    +0.000 A 
ATOM     12  C   UNL     1       3.575   6.525  17.664  0.00  0.00    +0.000 A 
ATOM     13  C   UNL     1       3.583   5.239  18.186  0.00  0.00    +0.000 A 
ATOM     14  C   UNL     1       2.947   4.984  19.399  0.00  0.00    +0.000 A 
ATOM     15  C   UNL     1       2.275   6.011  20.080  0.00  0.00    +0.000 A 
ENDBRANCH   4  10
BRANCH   7  16
ATOM     16  N   UNL     1      -1.473  11.876  18.925  0.00  0.00    +0.000 N 
ATOM     17  C   UNL     1      -2.458  11.086  18.343  0.00  0.00    +0.000 C 
ATOM     18  O   UNL     1      -2.327   9.941  17.931  0.00  0.00    +0.000 OA
ATOM     19  H   UNL     1      -1.719  12.779  19.317  0.00  0.00    +0.000 HD
BRANCH  17  20
ATOM     20  C   UNL     1      -3.805  11.739  18.299  0.00  0.00    +0.000 A 
ATOM     21  C   UNL     1      -4.326  12.412  19.415  0.00  0.00    +0.000 A 
ATOM     22  C   UNL     1      -5.597  12.994  19.355  0.00  0.00    +0.000 A 
ATOM     23  C   UNL     1      -6.349  12.906  18.182  0.00  0.00    +0.000 A 
ATOM     24 CL   UNL     1      -7.914  13.616  18.118  0.00  0.00    +0.000 Cl
ATOM     25  C   UNL     1      -5.838  12.248  17.065  0.00  0.00    +0.000 A 
ATOM     26  C   UNL     1      -4.564  11.669  17.121  0.00  0.00    +0.000 A 
ENDBRANCH  17  20
ENDBRANCH   7  16
BRANCH   9  27
ATOM     27  S   UNL     1      -0.900  11.824  22.119  0.00  0.00    +0.000 S 
ATOM     28  C   UNL     1       0.039  13.254  21.669  0.00  0.00    +0.000 C 
ATOM     29  O   UNL     1      -2.248  11.970  21.593  0.00  0.00    +0.000 OA
ATOM     30  O   UNL     1      -0.744  11.750  23.558  0.00  0.00    +0.000 OA
ENDBRANCH   9  27
TORSDOF 4
ENDMDL
MODEL 4
REMARK VINA RESULT:      -7.0      1.250      1.736
REMARK  Name = 
REMARK  7 active torsions:
REMARK  status: ('A' for Active; 'I' for Inactive)
REMARK    1  A    between atoms: C_1  and  C_2
REMARK    2  A    between atoms: C_4  and  C_5
REMARK    3  A    between atoms: N_13  and  C_14
REMARK    4  A    between atoms: N_13  and  N_15
REMARK    5  A    between atoms: C_16  and  C_18
REMARK    6  A    between atoms: C_25  and  S_26
REMARK    7  A    between atoms: S_26  and  C_27
REMARK                            x       y       z     vdW  Elec       q    Type
REMARK                         _______ _______ _______ _____ _____    ______ ____
ROOT
ATOM      1  C   UNL     1      -5.988  11.480  18.898  0.00  0.00    +0.000 C 
ATOM      2  C   UNL     1      -4.743  12.111  19.461  0.00  0.00    +0.000 A 
ATOM      3  C   UNL     1      -4.944  12.962  20.552  0.00  0.00    +0.000 A 
ATOM      4  C   UNL     1      -3.885  13.650  21.122  0.00  0.00    +0.000 A 
ATOM      5  N   UNL     1      -2.638  13.546  20.606  0.00  0.00    +0.000 NA
ATOM      6  C   UNL     1      -2.382  12.695  19.552  0.00  0.00    +0.000 A 
ATOM      7  N   UNL     1      -1.067  12.741  19.022  0.00  0.00    +0.000 N 
ATOM      8  C   UNL     1      -0.260  13.909  19.375  0.00  0.00    +0.000 C 
ATOM      9  C   UNL     1      -3.431  11.961  18.952  0.00  0.00    +0.000 A 
ENDROOT
BRANCH   4  10
ATOM     10  C   UNL     1      -4.120  14.578  22.255  0.00  0.00    +0.000 A 
ATOM     11  C   UNL     1      -3.051  15.297  22.840  0.00  0.00    +0.000 A 
ATOM     12  C   UNL     1      -3.219  16.068  23.993  0.00  0.00    +0.000 A 
ATOM     13  C   UNL     1      -4.473  16.166  24.580  0.00  0.00    +0.000 A 
ATOM     14  C   UNL     1      -5.557  15.509  24.001  0.00  0.00    +0.000 A 
ATOM     15  C   UNL     1      -5.383  14.727  22.849  0.00  0.00    +0.000 A 
ENDBRANCH   4  10
BRANCH   7  16
ATOM     16  N   UNL     1      -0.305  11.546  18.923  0.00  0.00    +0.000 N 
ATOM     17  C   UNL     1       0.282  10.877  19.991  0.00  0.00    +0.000 C 
ATOM     18  O   UNL     1       0.209  11.184  21.174  0.00  0.00    +0.000 OA
ATOM     19  H   UNL     1      -0.257  11.147  17.991  0.00  0.00    +0.000 HD
BRANCH  17  20
ATOM     20  C   UNL     1       1.011   9.632  19.593  0.00  0.00    +0.000 A 
ATOM     21  C   UNL     1       1.246   8.598  20.514  0.00  0.00    +0.000 A 
ATOM     22  C   UNL     1       1.951   7.454  20.121  0.00  0.00    +0.000 A 
ATOM     23  C   UNL     1       2.422   7.340  18.812  0.00  0.00    +0.000 A 
ATOM     24 CL   UNL     1       3.294   5.936  18.339  0.00  0.00    +0.000 Cl
ATOM     25  C   UNL     1       2.186   8.357  17.888  0.00  0.00    +0.000 A 
ATOM     26  C   UNL     1       1.477   9.500  18.276  0.00  0.00    +0.000 A 
ENDBRANCH  17  20
ENDBRANCH   7  16
BRANCH   9  27
ATOM     27  S   UNL     1      -3.155  11.004  17.467  0.00  0.00    +0.000 S 
ATOM     28  C   UNL     1      -4.619  11.173  16.490  0.00  0.00    +0.000 C 
ATOM     29  O   UNL     1      -2.031  11.546  16.718  0.00  0.00    +0.000 OA
ATOM     30  O   UNL     1      -3.124   9.593  17.799  0.00  0.00    +0.000 OA
ENDBRANCH   9  27
TORSDOF 4
ENDMDL
MODEL 5
REMARK VINA RESULT:      -6.9      1.842      2.432
REMARK  Name = 
REMARK  7 active torsions:
REMARK  status: ('A' for Active; 'I' for Inactive)
REMARK    1  A    between atoms: C_1  and  C_2
REMARK    2  A    between atoms: C_4  and  C_5
REMARK    3  A    between atoms: N_13  and  C_14
REMARK    4  A    between atoms: N_13  and  N_15
REMARK    5  A    between atoms: C_16  and  C_18
REMARK    6  A    between atoms: C_25  and  S_26
REMARK    7  A    between atoms: S_26  and  C_27
REMARK                            x       y       z     vdW  Elec       q    Type
REMARK                         _______ _______ _______ _____ _____    ______ ____
ROOT
ATOM      1  C   UNL     1      -5.279  12.017  19.566  0.00  0.00    +0.000 C 
ATOM      2  C   UNL     1      -3.933  12.445  20.084  0.00  0.00    +0.000 A 
ATOM      3  C   UNL     1      -3.958  13.214  21.251  0.00  0.00    +0.000 A 
ATOM      4  C   UNL     1      -2.788  13.720  21.795  0.00  0.00    +0.000 A 
ATOM      5  N   UNL     1      -1.598  13.515  21.183  0.00  0.00    +0.000 NA
ATOM      6  C   UNL     1      -1.516  12.736  20.049  0.00  0.00    +0.000 A 
ATOM      7  N   UNL     1      -0.242  12.673  19.429  0.00  0.00    +0.000 N 
ATOM      8  C   UNL     1       0.725  13.702  19.813  0.00  0.00    +0.000 C 
ATOM      9  C   UNL     1      -2.684  12.186  19.471  0.00  0.00    +0.000 A 
ENDROOT
BRANCH   4  10
ATOM     10  C   UNL     1      -2.834  14.566  23.013  0.00  0.00    +0.000 A 
ATOM     11  C   UNL     1      -1.748  14.596  23.920  0.00  0.00    +0.000 A 
ATOM     12  C   UNL     1      -1.820  15.273  25.140  0.00  0.00    +0.000 A 
ATOM     13  C   UNL     1      -2.975  15.966  25.477  0.00  0.00    +0.000 A 
ATOM     14  C   UNL     1      -4.045  15.996  24.585  0.00  0.00    +0.000 A 
ATOM     15  C   UNL     1      -3.974  15.307  23.364  0.00  0.00    +0.000 A 
ENDBRANCH   4  10
BRANCH   7  16
ATOM     16  N   UNL     1       0.359  11.409  19.180  0.00  0.00    +0.000 N 
ATOM     17  C   UNL     1       0.735  10.492  20.155  0.00  0.00    +0.000 C 
ATOM     18  O   UNL     1       0.580  10.608  21.364  0.00  0.00    +0.000 OA
ATOM     19  H   UNL     1       0.450  11.167  18.199  0.00  0.00    +0.000 HD
BRANCH  17  20
ATOM     20  C   UNL     1       1.328   9.235  19.601  0.00  0.00    +0.000 A 
ATOM     21  C   UNL     1       1.601   8.132  20.426  0.00  0.00    +0.000 A 
ATOM     22  C   UNL     1       2.178   6.976  19.886  0.00  0.00    +0.000 A 
ATOM     23  C   UNL     1       2.482   6.919  18.525  0.00  0.00    +0.000 A 
ATOM     24 CL   UNL     1       3.198   5.499  17.871  0.00  0.00    +0.000 Cl
ATOM     25  C   UNL     1       2.207   8.005  17.696  0.00  0.00    +0.000 A 
ATOM     26  C   UNL     1       1.626   9.161  18.232  0.00  0.00    +0.000 A 
ENDBRANCH  17  20
ENDBRANCH   7  16
BRANCH   9  27
ATOM     27  S   UNL     1      -2.622  11.337  17.898  0.00  0.00    +0.000 S 
ATOM     28  C   UNL     1      -4.256  11.419  17.227  0.00  0.00    +0.000 C 
ATOM     29  O   UNL     1      -1.713  12.020  16.990  0.00  0.00    +0.000 OA
ATOM     30  O   UNL     1      -2.413   9.920  18.120  0.00  0.00    +0.000 OA
ENDBRANCH   9  27
TORSDOF 4
ENDMDL
MODEL 6
REMARK VINA RESULT:      -6.8      0.911      1.524
REMARK  Name = 
REMARK  7 active torsions:
REMARK  status: ('A' for Active; 'I' for Inactive)
REMARK    1  A    between atoms: C_1  and  C_2
REMARK    2  A    between atoms: C_4  and  C_5
REMARK    3  A    between atoms: N_13  and  C_14
REMARK    4  A    between atoms: N_13  and  N_15
REMARK    5  A    between atoms: C_16  and  C_18
REMARK    6  A    between atoms: C_25  and  S_26
REMARK    7  A    between atoms: S_26  and  C_27
REMARK                            x       y       z     vdW  Elec       q    Type
REMARK                         _______ _______ _______ _____ _____    ______ ____
ROOT
ATOM      1  C   UNL     1      -5.986  11.623  17.319  0.00  0.00    +0.000 C 
ATOM      2  C   UNL     1      -5.247  11.939  18.591  0.00  0.00    +0.000 A 
ATOM      3  C   UNL     1      -6.041  12.392  19.649  0.00  0.00    +0.000 A 
ATOM      4  C   UNL     1      -5.473  12.772  20.854  0.00  0.00    +0.000 A 
ATOM      5  N   UNL     1      -4.129  12.755  21.018  0.00  0.00    +0.000 NA
ATOM      6  C   UNL     1      -3.304  12.285  20.017  0.00  0.00    +0.000 A 
ATOM      7  N   UNL     1      -1.911  12.408  20.251  0.00  0.00    +0.000 N 
ATOM      8  C   UNL     1      -1.505  13.331  21.312  0.00  0.00    +0.000 C 
ATOM      9  C   UNL     1      -3.846  11.870  18.778  0.00  0.00    +0.000 A 
ENDROOT
BRANCH   4  10
ATOM     10  C   UNL     1      -6.325  13.286  21.953  0.00  0.00    +0.000 A 
ATOM     11  C   UNL     1      -6.904  14.576  21.883  0.00  0.00    +0.000 A 
ATOM     12  C   UNL     1      -7.593  15.139  22.960  0.00  0.00    +0.000 A 
ATOM     13  C   UNL     1      -7.749  14.414  24.133  0.00  0.00    +0.000 A 
ATOM     14  C   UNL     1      -7.232  13.122  24.218  0.00  0.00    +0.000 A 
ATOM     15  C   UNL     1      -6.531  12.563  23.138  0.00  0.00    +0.000 A 
ENDBRANCH   4  10
BRANCH   7  16
ATOM     16  N   UNL     1      -1.077  11.261  20.160  0.00  0.00    +0.000 N 
ATOM     17  C   UNL     1       0.276  11.276  19.838  0.00  0.00    +0.000 C 
ATOM     18  O   UNL     1       0.963  12.264  19.619  0.00  0.00    +0.000 OA
ATOM     19  H   UNL     1      -1.525  10.388  20.415  0.00  0.00    +0.000 HD
BRANCH  17  20
ATOM     20  C   UNL     1       0.907   9.919  19.834  0.00  0.00    +0.000 A 
ATOM     21  C   UNL     1       1.515   9.401  18.680  0.00  0.00    +0.000 A 
ATOM     22  C   UNL     1       2.078   8.119  18.697  0.00  0.00    +0.000 A 
ATOM     23  C   UNL     1       2.035   7.354  19.863  0.00  0.00    +0.000 A 
ATOM     24 CL   UNL     1       2.721   5.777  19.874  0.00  0.00    +0.000 Cl
ATOM     25  C   UNL     1       1.441   7.863  21.017  0.00  0.00    +0.000 A 
ATOM     26  C   UNL     1       0.882   9.146  21.005  0.00  0.00    +0.000 A 
ENDBRANCH  17  20
ENDBRANCH   7  16
BRANCH   9  27
ATOM     27  S   UNL     1      -2.783  11.443  17.405  0.00  0.00    +0.000 S 
ATOM     28  C   UNL     1      -2.304   9.759  17.655  0.00  0.00    +0.000 C 
ATOM     29  O   UNL     1      -3.515  11.535  16.151  0.00  0.00    +0.000 OA
ATOM     30  O   UNL     1      -1.536  12.174  17.511  0.00  0.00    +0.000 OA
ENDBRANCH   9  27
TORSDOF 4
ENDMDL
MODEL 7
REMARK VINA RESULT:      -6.8      0.949      1.191
REMARK  Name = 
REMARK  7 active torsions:
REMARK  status: ('A' for Active; 'I' for Inactive)
REMARK    1  A    between atoms: C_1  and  C_2
REMARK    2  A    between atoms: C_4  and  C_5
REMARK    3  A    between atoms: N_13  and  C_14
REMARK    4  A    between atoms: N_13  and  N_15
REMARK    5  A    between atoms: C_16  and  C_18
REMARK    6  A    between atoms: C_25  and  S_26
REMARK    7  A    between atoms: S_26  and  C_27
REMARK                            x       y       z     vdW  Elec       q    Type
REMARK                         _______ _______ _______ _____ _____    ______ ____
ROOT
ATOM      1  C   UNL     1      -5.979  11.802  18.634  0.00  0.00    +0.000 C 
ATOM      2  C   UNL     1      -4.829  12.276  19.480  0.00  0.00    +0.000 A 
ATOM      3  C   UNL     1      -5.179  13.068  20.577  0.00  0.00    +0.000 A 
ATOM      4  C   UNL     1      -4.207  13.616  21.399  0.00  0.00    +0.000 A 
ATOM      5  N   UNL     1      -2.893  13.431  21.130  0.00  0.00    +0.000 NA
ATOM      6  C   UNL     1      -2.496  12.631  20.079  0.00  0.00    +0.000 A 
ATOM      7  N   UNL     1      -1.103  12.590  19.822  0.00  0.00    +0.000 N 
ATOM      8  C   UNL     1      -0.294  13.652  20.422  0.00  0.00    +0.000 C 
ATOM      9  C   UNL     1      -3.457  12.039  19.227  0.00  0.00    +0.000 A 
ENDROOT
BRANCH   4  10
ATOM     10  C   UNL     1      -4.593  14.486  22.537  0.00  0.00    +0.000 A 
ATOM     11  C   UNL     1      -5.882  15.068  22.603  0.00  0.00    +0.000 A 
ATOM     12  C   UNL     1      -6.225  15.999  23.587  0.00  0.00    +0.000 A 
ATOM     13  C   UNL     1      -5.294  16.354  24.553  0.00  0.00    +0.000 A 
ATOM     14  C   UNL     1      -4.032  15.764  24.544  0.00  0.00    +0.000 A 
ATOM     15  C   UNL     1      -3.687  14.836  23.549  0.00  0.00    +0.000 A 
ENDBRANCH   4  10
BRANCH   7  16
ATOM     16  N   UNL     1      -0.431  11.338  19.775  0.00  0.00    +0.000 N 
ATOM     17  C   UNL     1       0.717  11.070  19.038  0.00  0.00    +0.000 C 
ATOM     18  O   UNL     1       1.345  11.864  18.350  0.00  0.00    +0.000 OA
ATOM     19  H   UNL     1      -0.815  10.626  20.387  0.00  0.00    +0.000 HD
BRANCH  17  20
ATOM     20  C   UNL     1       1.216   9.667  19.193  0.00  0.00    +0.000 A 
ATOM     21  C   UNL     1       1.084   8.976  20.407  0.00  0.00    +0.000 A 
ATOM     22  C   UNL     1       1.581   7.673  20.532  0.00  0.00    +0.000 A 
ATOM     23  C   UNL     1       2.208   7.059  19.447  0.00  0.00    +0.000 A 
ATOM     24 CL   UNL     1       2.823   5.461  19.610  0.00  0.00    +0.000 Cl
ATOM     25  C   UNL     1       2.336   7.734  18.234  0.00  0.00    +0.000 A 
ATOM     26  C   UNL     1       1.836   9.035  18.105  0.00  0.00    +0.000 A 
ENDBRANCH  17  20
ENDBRANCH   7  16
BRANCH   9  27
ATOM     27  S   UNL     1      -2.962  11.160  17.751  0.00  0.00    +0.000 S 
ATOM     28  C   UNL     1      -4.383  11.117  16.699  0.00  0.00    +0.000 C 
ATOM     29  O   UNL     1      -1.899  11.880  17.066  0.00  0.00    +0.000 OA
ATOM     30  O   UNL     1      -2.730   9.765  18.071  0.00  0.00    +0.000 OA
ENDBRANCH   9  27
TORSDOF 4
ENDMDL
MODEL 8
REMARK VINA RESULT:      -6.8      0.988      1.599
REMARK  Name = 
REMARK  7 active torsions:
REMARK  status: ('A' for Active; 'I' for Inactive)
REMARK    1  A    between atoms: C_1  and  C_2
REMARK    2  A    between atoms: C_4  and  C_5
REMARK    3  A    between atoms: N_13  and  C_14
REMARK    4  A    between atoms: N_13  and  N_15
REMARK    5  A    between atoms: C_16  and  C_18
REMARK    6  A    between atoms: C_25  and  S_26
REMARK    7  A    between atoms: S_26  and  C_27
REMARK                            x       y       z     vdW  Elec       q    Type
REMARK                         _______ _______ _______ _____ _____    ______ ____
ROOT
ATOM      1  C   UNL     1      -5.683  11.272  17.300  0.00  0.00    +0.000 C 
ATOM      2  C   UNL     1      -4.846  11.684  18.481  0.00  0.00    +0.000 A 
ATOM      3  C   UNL     1      -5.560  12.164  19.583  0.00  0.00    +0.000 A 
ATOM      4  C   UNL     1      -4.902  12.630  20.709  0.00  0.00    +0.000 A 
ATOM      5  N   UNL     1      -3.549  12.671  20.749  0.00  0.00    +0.000 NA
ATOM      6  C   UNL     1      -2.799  12.178  19.703  0.00  0.00    +0.000 A 
ATOM      7  N   UNL     1      -1.397  12.365  19.800  0.00  0.00    +0.000 N 
ATOM      8  C   UNL     1      -0.935  13.358  20.771  0.00  0.00    +0.000 C 
ATOM      9  C   UNL     1      -3.432  11.677  18.541  0.00  0.00    +0.000 A 
ENDROOT
BRANCH   4  10
ATOM     10  C   UNL     1      -5.672  13.172  21.855  0.00  0.00    +0.000 A 
ATOM     11  C   UNL     1      -5.147  14.213  22.657  0.00  0.00    +0.000 A 
ATOM     12  C   UNL     1      -5.786  14.645  23.822  0.00  0.00    +0.000 A 
ATOM     13  C   UNL     1      -6.989  14.066  24.204  0.00  0.00    +0.000 A 
ATOM     14  C   UNL     1      -7.557  13.071  23.410  0.00  0.00    +0.000 A 
ATOM     15  C   UNL     1      -6.907  12.632  22.246  0.00  0.00    +0.000 A 
ENDBRANCH   4  10
BRANCH   7  16
ATOM     16  N   UNL     1      -0.528  11.246  19.691  0.00  0.00    +0.000 N 
ATOM     17  C   UNL     1      -0.272  10.326  20.702  0.00  0.00    +0.000 C 
ATOM     18  O   UNL     1      -0.773  10.311  21.819  0.00  0.00    +0.000 OA
ATOM     19  H   UNL     1      -0.126  11.107  18.770  0.00  0.00    +0.000 HD
BRANCH  17  20
ATOM     20  C   UNL     1       0.673   9.237  20.300  0.00  0.00    +0.000 A 
ATOM     21  C   UNL     1       1.299   9.244  19.043  0.00  0.00    +0.000 A 
ATOM     22  C   UNL     1       2.161   8.201  18.682  0.00  0.00    +0.000 A 
ATOM     23  C   UNL     1       2.399   7.153  19.573  0.00  0.00    +0.000 A 
ATOM     24 CL   UNL     1       3.454   5.872  19.120  0.00  0.00    +0.000 Cl
ATOM     25  C   UNL     1       1.789   7.143  20.827  0.00  0.00    +0.000 A 
ATOM     26  C   UNL     1       0.931   8.187  21.192  0.00  0.00    +0.000 A 
ENDBRANCH  17  20
ENDBRANCH   7  16
BRANCH   9  27
ATOM     27  S   UNL     1      -2.481  11.214  17.100  0.00  0.00    +0.000 S 
ATOM     28  C   UNL     1      -3.629  11.122  15.757  0.00  0.00    +0.000 C 
ATOM     29  O   UNL     1      -1.493  12.239  16.796  0.00  0.00    +0.000 OA
ATOM     30  O   UNL     1      -2.012   9.851  17.246  0.00  0.00    +0.000 OA
ENDBRANCH   9  27
TORSDOF 4
ENDMDL
MODEL 9
REMARK VINA RESULT:      -6.7      3.306      5.702
REMARK  Name = 
REMARK  7 active torsions:
REMARK  status: ('A' for Active; 'I' for Inactive)
REMARK    1  A    between atoms: C_1  and  C_2
REMARK    2  A    between atoms: C_4  and  C_5
REMARK    3  A    between atoms: N_13  and  C_14
REMARK    4  A    between atoms: N_13  and  N_15
REMARK    5  A    between atoms: C_16  and  C_18
REMARK    6  A    between atoms: C_25  and  S_26
REMARK    7  A    between atoms: S_26  and  C_27
REMARK                            x       y       z     vdW  Elec       q    Type
REMARK                         _______ _______ _______ _____ _____    ______ ____
ROOT
ATOM      1  C   UNL     1      -0.396  14.584  23.108  0.00  0.00    +0.000 C 
ATOM      2  C   UNL     1      -0.344  14.304  21.630  0.00  0.00    +0.000 A 
ATOM      3  C   UNL     1      -0.077  15.412  20.820  0.00  0.00    +0.000 A 
ATOM      4  C   UNL     1      -0.062  15.297  19.440  0.00  0.00    +0.000 A 
ATOM      5  N   UNL     1      -0.349  14.115  18.843  0.00  0.00    +0.000 NA
ATOM      6  C   UNL     1      -0.585  12.986  19.598  0.00  0.00    +0.000 A 
ATOM      7  N   UNL     1      -0.978  11.829  18.878  0.00  0.00    +0.000 N 
ATOM      8  C   UNL     1      -1.448  12.038  17.508  0.00  0.00    +0.000 C 
ATOM      9  C   UNL     1      -0.592  13.056  21.011  0.00  0.00    +0.000 A 
ENDROOT
BRANCH   4  10
ATOM     10  C   UNL     1       0.185  16.489  18.593  0.00  0.00    +0.000 A 
ATOM     11  C   UNL     1      -0.878  17.343  18.211  0.00  0.00    +0.000 A 
ATOM     12  C   UNL     1      -0.698  18.389  17.303  0.00  0.00    +0.000 A 
ATOM     13  C   UNL     1       0.561  18.630  16.770  0.00  0.00    +0.000 A 
ATOM     14  C   UNL     1       1.638  17.838  17.161  0.00  0.00    +0.000 A 
ATOM     15  C   UNL     1       1.452  16.781  18.066  0.00  0.00    +0.000 A 
ENDBRANCH   4  10
BRANCH   7  16
ATOM     16  N   UNL     1      -0.251  10.618  19.039  0.00  0.00    +0.000 N 
ATOM     17  C   UNL     1       1.092  10.440  18.726  0.00  0.00    +0.000 C 
ATOM     18  O   UNL     1       1.861  11.291  18.301  0.00  0.00    +0.000 OA
ATOM     19  H   UNL     1      -0.772   9.864  19.475  0.00  0.00    +0.000 HD
BRANCH  17  20
ATOM     20  C   UNL     1       1.598   9.062  19.016  0.00  0.00    +0.000 A 
ATOM     21  C   UNL     1       1.357   8.442  20.253  0.00  0.00    +0.000 A 
ATOM     22  C   UNL     1       1.862   7.161  20.507  0.00  0.00    +0.000 A 
ATOM     23  C   UNL     1       2.607   6.499  19.530  0.00  0.00    +0.000 A 
ATOM     24 CL   UNL     1       3.231   4.929  19.853  0.00  0.00    +0.000 Cl
ATOM     25  C   UNL     1       2.845   7.102  18.296  0.00  0.00    +0.000 A 
ATOM     26  C   UNL     1       2.336   8.380  18.037  0.00  0.00    +0.000 A 
ENDBRANCH  17  20
ENDBRANCH   7  16
BRANCH   9  27
ATOM     27  S   UNL     1      -1.086  11.652  22.001  0.00  0.00    +0.000 S 
ATOM     28  C   UNL     1      -2.385  12.222  23.056  0.00  0.00    +0.000 C 
ATOM     29  O   UNL     1      -1.609  10.593  21.151  0.00  0.00    +0.000 OA
ATOM     30  O   UNL     1      -0.020  11.309  22.922  0.00  0.00    +0.000 OA
ENDBRANCH   9  27
TORSDOF 4
ENDMDL
