MODEL 1
REMARK VINA RESULT:      -9.3      0.000      0.000
REMARK  Name = 
REMARK  4 active torsions:
REMARK  status: ('A' for Active; 'I' for Inactive)
REMARK    1  A    between atoms: C_1  and  C_2
REMARK    2  A    between atoms: C_4  and  N_5
REMARK    3  A    between atoms: N_5  and  C_6
REMARK    4  A    between atoms: C_15  and  C_16
REMARK                            x       y       z     vdW  Elec       q    Type
REMARK                         _______ _______ _______ _____ _____    ______ ____
ROOT
ATOM      1  C   UNL     1       7.880   6.793  18.518  0.00  0.00    +0.000 C 
ATOM      2  C   UNL     1       7.273   5.880  17.482  0.00  0.00    +0.000 A 
ATOM      3  C   UNL     1       6.306   4.852  17.970  0.00  0.00    +0.000 A 
ATOM      4  C   UNL     1       5.762   4.039  17.042  0.00  0.00    +0.000 A 
ATOM      5  N   UNL     1       6.133   4.232  15.697  0.00  0.00    +0.000 N 
ATOM      6  N   UNL     1       5.732   3.534  14.598  0.00  0.00    +0.000 NA
ATOM      7  C   UNL     1       6.458   4.100  13.611  0.00  0.00    +0.000 A 
ATOM      8  N   UNL     1       7.272   5.131  14.035  0.00  0.00    +0.000 NA
ATOM      9  C   UNL     1       7.063   5.206  15.329  0.00  0.00    +0.000 A 
ATOM     10  N   UNL     1       7.630   6.044  16.243  0.00  0.00    +0.000 NA
ENDROOT
BRANCH   7  11
ATOM     11  C   UNL     1       6.418   3.663  12.162  0.00  0.00    +0.000 C 
ATOM     12  F   UNL     1       7.152   4.467  11.344  0.00  0.00    +0.000 F 
ATOM     13  F   UNL     1       6.900   2.403  11.992  0.00  0.00    +0.000 F 
ATOM     14  F   UNL     1       5.151   3.668  11.661  0.00  0.00    +0.000 F 
ENDBRANCH   7  11
BRANCH   4  15
ATOM     15  N   UNL     1       4.846   3.023  17.335  0.00  0.00    +0.000 N 
ATOM     16  H   UNL     1       5.333   2.187  17.683  0.00  0.00    +0.000 HD
BRANCH  15  17
ATOM     17  C   UNL     1       3.695   3.254  18.133  0.00  0.00    +0.000 A 
ATOM     18  C   UNL     1       2.558   3.809  17.529  0.00  0.00    +0.000 A 
ATOM     19  C   UNL     1       1.399   4.038  18.276  0.00  0.00    +0.000 A 
ATOM     20  C   UNL     1       1.365   3.680  19.618  0.00  0.00    +0.000 A 
ATOM     21  F   UNL     1       0.260   3.912  20.338  0.00  0.00    +0.000 F 
ATOM     22  C   UNL     1       2.461   3.081  20.222  0.00  0.00    +0.000 A 
ATOM     23  C   UNL     1       3.619   2.857  19.476  0.00  0.00    +0.000 A 
ENDBRANCH  15  17
ENDBRANCH   4  15
TORSDOF 3
ENDMDL
MODEL 2
REMARK VINA RESULT:      -9.2      0.311      1.363
REMARK  Name = 
REMARK  4 active torsions:
REMARK  status: ('A' for Active; 'I' for Inactive)
REMARK    1  A    between atoms: C_1  and  C_2
REMARK    2  A    between atoms: C_4  and  N_5
REMARK    3  A    between atoms: N_5  and  C_6
REMARK    4  A    between atoms: C_15  and  C_16
REMARK                            x       y       z     vdW  Elec       q    Type
REMARK                         _______ _______ _______ _____ _____    ______ ____
ROOT
ATOM      1  C   UNL     1       7.966   7.152  18.309  0.00  0.00    +0.000 C 
ATOM      2  C   UNL     1       7.333   6.144  17.384  0.00  0.00    +0.000 A 
ATOM      3  C   UNL     1       6.464   5.103  18.010  0.00  0.00    +0.000 A 
ATOM      4  C   UNL     1       5.896   4.205  17.181  0.00  0.00    +0.000 A 
ATOM      5  N   UNL     1       6.153   4.325  15.801  0.00  0.00    +0.000 N 
ATOM      6  N   UNL     1       5.710   3.536  14.784  0.00  0.00    +0.000 NA
ATOM      7  C   UNL     1       6.327   4.071  13.709  0.00  0.00    +0.000 A 
ATOM      8  N   UNL     1       7.113   5.167  14.002  0.00  0.00    +0.000 NA
ATOM      9  C   UNL     1       6.998   5.318  15.301  0.00  0.00    +0.000 A 
ATOM     10  N   UNL     1       7.586   6.242  16.113  0.00  0.00    +0.000 NA
ENDROOT
BRANCH   7  11
ATOM     11  C   UNL     1       6.201   3.537  12.297  0.00  0.00    +0.000 C 
ATOM     12  F   UNL     1       6.393   2.191  12.220  0.00  0.00    +0.000 F 
ATOM     13  F   UNL     1       4.973   3.780  11.765  0.00  0.00    +0.000 F 
ATOM     14  F   UNL     1       7.111   4.100  11.455  0.00  0.00    +0.000 F 
ENDBRANCH   7  11
BRANCH   4  15
ATOM     15  N   UNL     1       5.062   3.166  17.609  0.00  0.00    +0.000 N 
ATOM     16  H   UNL     1       5.597   2.469  18.143  0.00  0.00    +0.000 HD
BRANCH  15  17
ATOM     17  C   UNL     1       3.831   3.413  18.271  0.00  0.00    +0.000 A 
ATOM     18  C   UNL     1       3.778   3.281  19.665  0.00  0.00    +0.000 A 
ATOM     19  C   UNL     1       2.589   3.531  20.356  0.00  0.00    +0.000 A 
ATOM     20  C   UNL     1       1.462   3.945  19.656  0.00  0.00    +0.000 A 
ATOM     21  F   UNL     1       0.319   4.172  20.316  0.00  0.00    +0.000 F 
ATOM     22  C   UNL     1       1.507   4.133  18.283  0.00  0.00    +0.000 A 
ATOM     23  C   UNL     1       2.694   3.879  17.593  0.00  0.00    +0.000 A 
ENDBRANCH  15  17
ENDBRANCH   4  15
TORSDOF 3
ENDMDL
MODEL 3
REMARK VINA RESULT:      -8.9      0.917      1.293
REMARK  Name = 
REMARK  4 active torsions:
REMARK  status: ('A' for Active; 'I' for Inactive)
REMARK    1  A    between atoms: C_1  and  C_2
REMARK    2  A    between atoms: C_4  and  N_5
REMARK    3  A    between atoms: N_5  and  C_6
REMARK    4  A    between atoms: C_15  and  C_16
REMARK                            x       y       z     vdW  Elec       q    Type
REMARK                         _______ _______ _______ _____ _____    ______ ____
ROOT
ATOM      1  C   UNL     1       7.671   5.749  19.147  0.00  0.00    +0.000 C 
ATOM      2  C   UNL     1       6.976   5.251  17.906  0.00  0.00    +0.000 A 
ATOM      3  C   UNL     1       5.560   4.802  18.057  0.00  0.00    +0.000 A 
ATOM      4  C   UNL     1       4.939   4.360  16.945  0.00  0.00    +0.000 A 
ATOM      5  N   UNL     1       5.663   4.370  15.737  0.00  0.00    +0.000 N 
ATOM      6  N   UNL     1       5.258   3.963  14.502  0.00  0.00    +0.000 NA
ATOM      7  C   UNL     1       6.373   4.127  13.759  0.00  0.00    +0.000 A 
ATOM      8  N   UNL     1       7.445   4.639  14.464  0.00  0.00    +0.000 NA
ATOM      9  C   UNL     1       6.994   4.787  15.688  0.00  0.00    +0.000 A 
ATOM     10  N   UNL     1       7.650   5.240  16.794  0.00  0.00    +0.000 NA
ENDROOT
BRANCH   7  11
ATOM     11  C   UNL     1       6.480   3.782  12.289  0.00  0.00    +0.000 C 
ATOM     12  F   UNL     1       6.954   2.524  12.072  0.00  0.00    +0.000 F 
ATOM     13  F   UNL     1       5.278   3.852  11.657  0.00  0.00    +0.000 F 
ATOM     14  F   UNL     1       7.321   4.624  11.626  0.00  0.00    +0.000 F 
ENDBRANCH   7  11
BRANCH   4  15
ATOM     15  N   UNL     1       3.618   3.901  16.919  0.00  0.00    +0.000 N 
ATOM     16  H   UNL     1       3.516   3.132  16.244  0.00  0.00    +0.000 HD
BRANCH  15  17
ATOM     17  C   UNL     1       2.911   3.573  18.106  0.00  0.00    +0.000 A 
ATOM     18  C   UNL     1       2.216   4.588  18.778  0.00  0.00    +0.000 A 
ATOM     19  C   UNL     1       1.495   4.304  19.941  0.00  0.00    +0.000 A 
ATOM     20  C   UNL     1       1.442   2.998  20.413  0.00  0.00    +0.000 A 
ATOM     21  F   UNL     1       0.763   2.727  21.535  0.00  0.00    +0.000 F 
ATOM     22  C   UNL     1       2.078   1.969  19.734  0.00  0.00    +0.000 A 
ATOM     23  C   UNL     1       2.801   2.255  18.575  0.00  0.00    +0.000 A 
ENDBRANCH  15  17
ENDBRANCH   4  15
TORSDOF 3
ENDMDL
MODEL 4
REMARK VINA RESULT:      -8.8      1.071      1.357
REMARK  Name = 
REMARK  4 active torsions:
REMARK  status: ('A' for Active; 'I' for Inactive)
REMARK    1  A    between atoms: C_1  and  C_2
REMARK    2  A    between atoms: C_4  and  N_5
REMARK    3  A    between atoms: N_5  and  C_6
REMARK    4  A    between atoms: C_15  and  C_16
REMARK                            x       y       z     vdW  Elec       q    Type
REMARK                         _______ _______ _______ _____ _____    ______ ____
ROOT
ATOM      1  C   UNL     1       8.153   7.714  18.495  0.00  0.00    +0.000 C 
ATOM      2  C   UNL     1       7.503   6.600  17.713  0.00  0.00    +0.000 A 
ATOM      3  C   UNL     1       6.834   5.521  18.500  0.00  0.00    +0.000 A 
ATOM      4  C   UNL     1       6.251   4.529  17.799  0.00  0.00    +0.000 A 
ATOM      5  N   UNL     1       6.304   4.594  16.393  0.00  0.00    +0.000 N 
ATOM      6  N   UNL     1       5.807   3.711  15.483  0.00  0.00    +0.000 NA
ATOM      7  C   UNL     1       6.216   4.239  14.310  0.00  0.00    +0.000 A 
ATOM      8  N   UNL     1       6.922   5.418  14.441  0.00  0.00    +0.000 NA
ATOM      9  C   UNL     1       6.971   5.630  15.736  0.00  0.00    +0.000 A 
ATOM     10  N   UNL     1       7.570   6.649  16.416  0.00  0.00    +0.000 NA
ENDROOT
BRANCH   7  11
ATOM     11  C   UNL     1       5.952   3.616  12.954  0.00  0.00    +0.000 C 
ATOM     12  F   UNL     1       6.727   4.146  11.967  0.00  0.00    +0.000 F 
ATOM     13  F   UNL     1       6.190   2.277  12.950  0.00  0.00    +0.000 F 
ATOM     14  F   UNL     1       4.661   3.786  12.556  0.00  0.00    +0.000 F 
ENDBRANCH   7  11
BRANCH   4  15
ATOM     15  N   UNL     1       5.590   3.444  18.384  0.00  0.00    +0.000 N 
ATOM     16  H   UNL     1       5.924   3.292  19.344  0.00  0.00    +0.000 HD
BRANCH  15  17
ATOM     17  C   UNL     1       4.175   3.322  18.361  0.00  0.00    +0.000 A 
ATOM     18  C   UNL     1       3.603   2.072  18.631  0.00  0.00    +0.000 A 
ATOM     19  C   UNL     1       2.214   1.914  18.633  0.00  0.00    +0.000 A 
ATOM     20  C   UNL     1       1.398   3.014  18.398  0.00  0.00    +0.000 A 
ATOM     21  F   UNL     1       0.067   2.861  18.386  0.00  0.00    +0.000 F 
ATOM     22  C   UNL     1       1.943   4.271  18.180  0.00  0.00    +0.000 A 
ATOM     23  C   UNL     1       3.330   4.426  18.175  0.00  0.00    +0.000 A 
ENDBRANCH  15  17
ENDBRANCH   4  15
TORSDOF 3
ENDMDL
MODEL 5
REMARK VINA RESULT:      -8.8      1.180      1.613
REMARK  Name = 
REMARK  4 active torsions:
REMARK  status: ('A' for Active; 'I' for Inactive)
REMARK    1  A    between atoms: C_1  and  C_2
REMARK    2  A    between atoms: C_4  and  N_5
REMARK    3  A    between atoms: N_5  and  C_6
REMARK    4  A    between atoms: C_15  and  C_16
REMARK                            x       y       z     vdW  Elec       q    Type
REMARK                         _______ _______ _______ _____ _____    ______ ____
ROOT
ATOM      1  C   UNL     1       7.910   5.707  19.396  0.00  0.00    +0.000 C 
ATOM      2  C   UNL     1       7.073   5.315  18.204  0.00  0.00    +0.000 A 
ATOM      3  C   UNL     1       5.597   5.226  18.412  0.00  0.00    +0.000 A 
ATOM      4  C   UNL     1       4.851   4.879  17.345  0.00  0.00    +0.000 A 
ATOM      5  N   UNL     1       5.514   4.645  16.124  0.00  0.00    +0.000 N 
ATOM      6  N   UNL     1       4.981   4.273  14.928  0.00  0.00    +0.000 NA
ATOM      7  C   UNL     1       6.077   4.124  14.153  0.00  0.00    +0.000 A 
ATOM      8  N   UNL     1       7.263   4.407  14.801  0.00  0.00    +0.000 NA
ATOM      9  C   UNL     1       6.903   4.730  16.021  0.00  0.00    +0.000 A 
ATOM     10  N   UNL     1       7.686   5.079  17.082  0.00  0.00    +0.000 NA
ENDROOT
BRANCH   7  11
ATOM     11  C   UNL     1       6.047   3.676  12.707  0.00  0.00    +0.000 C 
ATOM     12  F   UNL     1       4.828   3.846  12.124  0.00  0.00    +0.000 F 
ATOM     13  F   UNL     1       6.937   4.362  11.940  0.00  0.00    +0.000 F 
ATOM     14  F   UNL     1       6.351   2.356  12.574  0.00  0.00    +0.000 F 
ENDBRANCH   7  11
BRANCH   4  15
ATOM     15  N   UNL     1       3.459   4.746  17.376  0.00  0.00    +0.000 N 
ATOM     16  H   UNL     1       3.123   4.264  16.533  0.00  0.00    +0.000 HD
BRANCH  15  17
ATOM     17  C   UNL     1       2.777   4.229  18.509  0.00  0.00    +0.000 A 
ATOM     18  C   UNL     1       2.818   2.848  18.747  0.00  0.00    +0.000 A 
ATOM     19  C   UNL     1       2.173   2.301  19.860  0.00  0.00    +0.000 A 
ATOM     20  C   UNL     1       1.516   3.139  20.753  0.00  0.00    +0.000 A 
ATOM     21  F   UNL     1       0.886   2.615  21.813  0.00  0.00    +0.000 F 
ATOM     22  C   UNL     1       1.508   4.514  20.565  0.00  0.00    +0.000 A 
ATOM     23  C   UNL     1       2.149   5.058  19.451  0.00  0.00    +0.000 A 
ENDBRANCH  15  17
ENDBRANCH   4  15
TORSDOF 3
ENDMDL
MODEL 6
REMARK VINA RESULT:      -8.7      0.672      1.205
REMARK  Name = 
REMARK  4 active torsions:
REMARK  status: ('A' for Active; 'I' for Inactive)
REMARK    1  A    between atoms: C_1  and  C_2
REMARK    2  A    between atoms: C_4  and  N_5
REMARK    3  A    between atoms: N_5  and  C_6
REMARK    4  A    between atoms: C_15  and  C_16
REMARK                            x       y       z     vdW  Elec       q    Type
REMARK                         _______ _______ _______ _____ _____    ______ ____
ROOT
ATOM      1  C   UNL     1       7.728   6.140  18.928  0.00  0.00    +0.000 C 
ATOM      2  C   UNL     1       7.067   5.492  17.738  0.00  0.00    +0.000 A 
ATOM      3  C   UNL     1       5.771   4.792  17.981  0.00  0.00    +0.000 A 
ATOM      4  C   UNL     1       5.181   4.216  16.915  0.00  0.00    +0.000 A 
ATOM      5  N   UNL     1       5.819   4.331  15.665  0.00  0.00    +0.000 N 
ATOM      6  N   UNL     1       5.426   3.826  14.462  0.00  0.00    +0.000 NA
ATOM      7  C   UNL     1       6.446   4.177  13.651  0.00  0.00    +0.000 A 
ATOM      8  N   UNL     1       7.443   4.896  14.282  0.00  0.00    +0.000 NA
ATOM      9  C   UNL     1       7.044   4.987  15.529  0.00  0.00    +0.000 A 
ATOM     10  N   UNL     1       7.666   5.580  16.587  0.00  0.00    +0.000 NA
ENDROOT
BRANCH   7  11
ATOM     11  C   UNL     1       6.530   3.823  12.181  0.00  0.00    +0.000 C 
ATOM     12  F   UNL     1       7.314   4.682  11.472  0.00  0.00    +0.000 F 
ATOM     13  F   UNL     1       7.047   2.580  11.982  0.00  0.00    +0.000 F 
ATOM     14  F   UNL     1       5.308   3.839  11.580  0.00  0.00    +0.000 F 
ENDBRANCH   7  11
BRANCH   4  15
ATOM     15  N   UNL     1       3.969   3.519  16.976  0.00  0.00    +0.000 N 
ATOM     16  H   UNL     1       4.069   2.584  16.560  0.00  0.00    +0.000 HD
BRANCH  15  17
ATOM     17  C   UNL     1       3.221   3.414  18.178  0.00  0.00    +0.000 A 
ATOM     18  C   UNL     1       3.699   2.582  19.199  0.00  0.00    +0.000 A 
ATOM     19  C   UNL     1       3.000   2.464  20.403  0.00  0.00    +0.000 A 
ATOM     20  C   UNL     1       1.840   3.203  20.599  0.00  0.00    +0.000 A 
ATOM     21  F   UNL     1       1.161   3.080  21.747  0.00  0.00    +0.000 F 
ATOM     22  C   UNL     1       1.377   4.073  19.622  0.00  0.00    +0.000 A 
ATOM     23  C   UNL     1       2.074   4.187  18.418  0.00  0.00    +0.000 A 
ENDBRANCH  15  17
ENDBRANCH   4  15
TORSDOF 3
ENDMDL
MODEL 7
REMARK VINA RESULT:      -8.7      1.149      1.492
REMARK  Name = 
REMARK  4 active torsions:
REMARK  status: ('A' for Active; 'I' for Inactive)
REMARK    1  A    between atoms: C_1  and  C_2
REMARK    2  A    between atoms: C_4  and  N_5
REMARK    3  A    between atoms: N_5  and  C_6
REMARK    4  A    between atoms: C_15  and  C_16
REMARK                            x       y       z     vdW  Elec       q    Type
REMARK                         _______ _______ _______ _____ _____    ______ ____
ROOT
ATOM      1  C   UNL     1       8.192   7.875  18.499  0.00  0.00    +0.000 C 
ATOM      2  C   UNL     1       7.543   6.738  17.752  0.00  0.00    +0.000 A 
ATOM      3  C   UNL     1       6.915   5.659  18.571  0.00  0.00    +0.000 A 
ATOM      4  C   UNL     1       6.333   4.646  17.901  0.00  0.00    +0.000 A 
ATOM      5  N   UNL     1       6.349   4.690  16.493  0.00  0.00    +0.000 N 
ATOM      6  N   UNL     1       5.844   3.785  15.610  0.00  0.00    +0.000 NA
ATOM      7  C   UNL     1       6.212   4.302  14.419  0.00  0.00    +0.000 A 
ATOM      8  N   UNL     1       6.899   5.495  14.514  0.00  0.00    +0.000 NA
ATOM      9  C   UNL     1       6.978   5.728  15.803  0.00  0.00    +0.000 A 
ATOM     10  N   UNL     1       7.575   6.768  16.452  0.00  0.00    +0.000 NA
ENDROOT
BRANCH   7  11
ATOM     11  C   UNL     1       5.925   3.654  13.080  0.00  0.00    +0.000 C 
ATOM     12  F   UNL     1       4.638   3.828  12.671  0.00  0.00    +0.000 F 
ATOM     13  F   UNL     1       6.713   4.152  12.090  0.00  0.00    +0.000 F 
ATOM     14  F   UNL     1       6.136   2.309  13.108  0.00  0.00    +0.000 F 
ENDBRANCH   7  11
BRANCH   4  15
ATOM     15  N   UNL     1       5.708   3.558  18.520  0.00  0.00    +0.000 N 
ATOM     16  H   UNL     1       6.045   3.448  19.485  0.00  0.00    +0.000 HD
BRANCH  15  17
ATOM     17  C   UNL     1       4.299   3.386  18.497  0.00  0.00    +0.000 A 
ATOM     18  C   UNL     1       3.485   4.446  18.916  0.00  0.00    +0.000 A 
ATOM     19  C   UNL     1       2.093   4.323  18.894  0.00  0.00    +0.000 A 
ATOM     20  C   UNL     1       1.515   3.151  18.421  0.00  0.00    +0.000 A 
ATOM     21  F   UNL     1       0.182   3.027  18.412  0.00  0.00    +0.000 F 
ATOM     22  C   UNL     1       2.302   2.109  17.952  0.00  0.00    +0.000 A 
ATOM     23  C   UNL     1       3.692   2.232  17.978  0.00  0.00    +0.000 A 
ENDBRANCH  15  17
ENDBRANCH   4  15
TORSDOF 3
ENDMDL
MODEL 8
REMARK VINA RESULT:      -8.6      0.929      1.604
REMARK  Name = 
REMARK  4 active torsions:
REMARK  status: ('A' for Active; 'I' for Inactive)
REMARK    1  A    between atoms: C_1  and  C_2
REMARK    2  A    between atoms: C_4  and  N_5
REMARK    3  A    between atoms: N_5  and  C_6
REMARK    4  A    between atoms: C_15  and  C_16
REMARK                            x       y       z     vdW  Elec       q    Type
REMARK                         _______ _______ _______ _____ _____    ______ ____
ROOT
ATOM      1  C   UNL     1       7.724   6.829  18.376  0.00  0.00    +0.000 C 
ATOM      2  C   UNL     1       6.994   6.008  17.344  0.00  0.00    +0.000 A 
ATOM      3  C   UNL     1       5.707   5.378  17.765  0.00  0.00    +0.000 A 
ATOM      4  C   UNL     1       5.054   4.648  16.840  0.00  0.00    +0.000 A 
ATOM      5  N   UNL     1       5.624   4.548  15.556  0.00  0.00    +0.000 N 
ATOM      6  N   UNL     1       5.162   3.862  14.474  0.00  0.00    +0.000 NA
ATOM      7  C   UNL     1       6.139   4.059  13.563  0.00  0.00    +0.000 A 
ATOM      8  N   UNL     1       7.174   4.854  14.015  0.00  0.00    +0.000 NA
ATOM      9  C   UNL     1       6.845   5.152  15.251  0.00  0.00    +0.000 A 
ATOM     10  N   UNL     1       7.529   5.899  16.164  0.00  0.00    +0.000 NA
ENDROOT
BRANCH   7  11
ATOM     11  C   UNL     1       6.139   3.470  12.168  0.00  0.00    +0.000 C 
ATOM     12  F   UNL     1       6.088   2.109  12.167  0.00  0.00    +0.000 F 
ATOM     13  F   UNL     1       5.077   3.894  11.432  0.00  0.00    +0.000 F 
ATOM     14  F   UNL     1       7.258   3.809  11.471  0.00  0.00    +0.000 F 
ENDBRANCH   7  11
BRANCH   4  15
ATOM     15  N   UNL     1       3.843   3.990  17.078  0.00  0.00    +0.000 N 
ATOM     16  H   UNL     1       3.828   3.077  16.605  0.00  0.00    +0.000 HD
BRANCH  15  17
ATOM     17  C   UNL     1       3.309   3.844  18.385  0.00  0.00    +0.000 A 
ATOM     18  C   UNL     1       3.800   2.817  19.202  0.00  0.00    +0.000 A 
ATOM     19  C   UNL     1       3.312   2.649  20.501  0.00  0.00    +0.000 A 
ATOM     20  C   UNL     1       2.357   3.530  20.995  0.00  0.00    +0.000 A 
ATOM     21  F   UNL     1       1.879   3.362  22.234  0.00  0.00    +0.000 F 
ATOM     22  C   UNL     1       1.896   4.586  20.221  0.00  0.00    +0.000 A 
ATOM     23  C   UNL     1       2.381   4.749  18.923  0.00  0.00    +0.000 A 
ENDBRANCH  15  17
ENDBRANCH   4  15
TORSDOF 3
ENDMDL
MODEL 9
REMARK VINA RESULT:      -8.6      1.092      1.423
REMARK  Name = 
REMARK  4 active torsions:
REMARK  status: ('A' for Active; 'I' for Inactive)
REMARK    1  A    between atoms: C_1  and  C_2
REMARK    2  A    between atoms: C_4  and  N_5
REMARK    3  A    between atoms: N_5  and  C_6
REMARK    4  A    between atoms: C_15  and  C_16
REMARK                            x       y       z     vdW  Elec       q    Type
REMARK                         _______ _______ _______ _____ _____    ______ ____
ROOT
ATOM      1  C   UNL     1       7.908   7.063  18.385  0.00  0.00    +0.000 C 
ATOM      2  C   UNL     1       7.091   6.277  17.391  0.00  0.00    +0.000 A 
ATOM      3  C   UNL     1       5.726   5.850  17.823  0.00  0.00    +0.000 A 
ATOM      4  C   UNL     1       4.997   5.151  16.932  0.00  0.00    +0.000 A 
ATOM      5  N   UNL     1       5.566   4.893  15.669  0.00  0.00    +0.000 N 
ATOM      6  N   UNL     1       5.033   4.202  14.623  0.00  0.00    +0.000 NA
ATOM      7  C   UNL     1       6.040   4.210  13.724  0.00  0.00    +0.000 A 
ATOM      8  N   UNL     1       7.164   4.891  14.148  0.00  0.00    +0.000 NA
ATOM      9  C   UNL     1       6.860   5.311  15.354  0.00  0.00    +0.000 A 
ATOM     10  N   UNL     1       7.624   6.021  16.233  0.00  0.00    +0.000 NA
ENDROOT
BRANCH   7  11
ATOM     11  C   UNL     1       5.983   3.535  12.370  0.00  0.00    +0.000 C 
ATOM     12  F   UNL     1       4.789   3.710  11.740  0.00  0.00    +0.000 F 
ATOM     13  F   UNL     1       6.936   4.005  11.522  0.00  0.00    +0.000 F 
ATOM     14  F   UNL     1       6.170   2.189  12.462  0.00  0.00    +0.000 F 
ENDBRANCH   7  11
BRANCH   4  15
ATOM     15  N   UNL     1       3.706   4.673  17.183  0.00  0.00    +0.000 N 
ATOM     16  H   UNL     1       3.459   3.930  16.518  0.00  0.00    +0.000 HD
BRANCH  15  17
ATOM     17  C   UNL     1       3.285   4.290  18.484  0.00  0.00    +0.000 A 
ATOM     18  C   UNL     1       2.331   5.078  19.142  0.00  0.00    +0.000 A 
ATOM     19  C   UNL     1       1.878   4.727  20.417  0.00  0.00    +0.000 A 
ATOM     20  C   UNL     1       2.355   3.569  21.019  0.00  0.00    +0.000 A 
ATOM     21  F   UNL     1       1.933   3.239  22.246  0.00  0.00    +0.000 F 
ATOM     22  C   UNL     1       3.260   2.747  20.364  0.00  0.00    +0.000 A 
ATOM     23  C   UNL     1       3.714   3.101  19.092  0.00  0.00    +0.000 A 
ENDBRANCH  15  17
ENDBRANCH   4  15
TORSDOF 3
ENDMDL
