MODEL 1
REMARK VINA RESULT:      -6.5      0.000      0.000
REMARK  Name = 
REMARK  8 active torsions:
REMARK  status: ('A' for Active; 'I' for Inactive)
REMARK    1  A    between atoms: C_2  and  C_4
REMARK    2  A    between atoms: C_4  and  S_5
REMARK    3  A    between atoms: S_5  and  C_6
REMARK    4  A    between atoms: C_10  and  N_11
REMARK    5  A    between atoms: N_11  and  C_12
REMARK    6  A    between atoms: C_12  and  C_13
REMARK    7  A    between atoms: C_13  and  C_14
REMARK    8  A    between atoms: C_13  and  O_15
REMARK                            x       y       z     vdW  Elec       q    Type
REMARK                         _______ _______ _______ _____ _____    ______ ____
ROOT
ATOM      1  C   UNL     1       6.006   5.013  16.409  0.00  0.00    +0.000 C 
ATOM      2  C   UNL     1       6.032   4.139  17.426  0.00  0.00    +0.000 C 
ATOM      3  C   UNL     1       5.243   4.331  18.660  0.00  0.00    +0.000 C 
ATOM      4  O   UNL     1       5.287   3.514  19.579  0.00  0.00    +0.000 OA
ATOM      5  C   UNL     1       4.337   5.528  18.739  0.00  0.00    +0.000 C 
ATOM      6  C   UNL     1       4.314   6.383  17.715  0.00  0.00    +0.000 C 
ATOM      7  C   UNL     1       5.111   6.201  16.492  0.00  0.00    +0.000 C 
ATOM      8  O   UNL     1       4.980   7.035  15.600  0.00  0.00    +0.000 OA
ENDROOT
BRANCH   5   9
ATOM      9  N   UNL     1       3.568   5.676  19.892  0.00  0.00    +0.000 N 
ATOM     10  H   UNL     1       4.061   5.310  20.711  0.00  0.00    +0.000 HD
BRANCH   9  11
ATOM     11  C   UNL     1       2.128   5.394  19.937  0.00  0.00    +0.000 C 
BRANCH  11  12
ATOM     12  C   UNL     1       1.821   3.918  20.265  0.00  0.00    +0.000 C 
ATOM     13  C   UNL     1       2.275   3.471  21.649  0.00  0.00    +0.000 C 
BRANCH  12  14
ATOM     14  O   UNL     1       0.422   3.661  20.118  0.00  0.00    +0.000 OA
ATOM     15  H   UNL     1       0.089   3.337  20.973  0.00  0.00    +0.000 HD
ENDBRANCH  12  14
ENDBRANCH  11  12
ENDBRANCH   9  11
ENDBRANCH   5   9
BRANCH   1  16
ATOM     16  S   UNL     1       6.878   4.685  14.939  0.00  0.00    +0.000 S 
BRANCH  16  17
ATOM     17  C   UNL     1       5.620   3.941  13.846  0.00  0.00    +0.000 C 
BRANCH  17  19
ATOM     18  C   UNL     1       5.749   2.530  11.769  0.00  0.00    +0.000 C 
ATOM     19  C   UNL     1       6.199   3.551  12.511  0.00  0.00    +0.000 C 
ATOM     20 CL   UNL     1       7.436   4.581  11.867  0.00  0.00    +0.000 Cl
ENDBRANCH  17  19
ENDBRANCH  16  17
ENDBRANCH   1  16
TORSDOF 7
ENDMDL
MODEL 2
REMARK VINA RESULT:      -6.3      1.075      1.221
REMARK  Name = 
REMARK  8 active torsions:
REMARK  status: ('A' for Active; 'I' for Inactive)
REMARK    1  A    between atoms: C_2  and  C_4
REMARK    2  A    between atoms: C_4  and  S_5
REMARK    3  A    between atoms: S_5  and  C_6
REMARK    4  A    between atoms: C_10  and  N_11
REMARK    5  A    between atoms: N_11  and  C_12
REMARK    6  A    between atoms: C_12  and  C_13
REMARK    7  A    between atoms: C_13  and  C_14
REMARK    8  A    between atoms: C_13  and  O_15
REMARK                            x       y       z     vdW  Elec       q    Type
REMARK                         _______ _______ _______ _____ _____    ______ ____
ROOT
ATOM      1  C   UNL     1       6.059   5.077  16.335  0.00  0.00    +0.000 C 
ATOM      2  C   UNL     1       6.093   4.212  17.358  0.00  0.00    +0.000 C 
ATOM      3  C   UNL     1       5.315   4.414  18.598  0.00  0.00    +0.000 C 
ATOM      4  O   UNL     1       5.365   3.605  19.523  0.00  0.00    +0.000 OA
ATOM      5  C   UNL     1       4.410   5.613  18.675  0.00  0.00    +0.000 C 
ATOM      6  C   UNL     1       4.380   6.460  17.645  0.00  0.00    +0.000 C 
ATOM      7  C   UNL     1       5.166   6.267  16.416  0.00  0.00    +0.000 C 
ATOM      8  O   UNL     1       5.029   7.094  15.519  0.00  0.00    +0.000 OA
ENDROOT
BRANCH   5   9
ATOM      9  N   UNL     1       3.652   5.771  19.833  0.00  0.00    +0.000 N 
ATOM     10  H   UNL     1       3.998   5.167  20.584  0.00  0.00    +0.000 HD
BRANCH   9  11
ATOM     11  C   UNL     1       2.186   5.865  19.826  0.00  0.00    +0.000 C 
BRANCH  11  12
ATOM     12  C   UNL     1       1.506   4.582  20.348  0.00  0.00    +0.000 C 
ATOM     13  C   UNL     1       1.389   3.465  19.319  0.00  0.00    +0.000 C 
BRANCH  12  14
ATOM     14  O   UNL     1       2.195   4.095  21.503  0.00  0.00    +0.000 OA
ATOM     15  H   UNL     1       3.097   4.460  21.484  0.00  0.00    +0.000 HD
ENDBRANCH  12  14
ENDBRANCH  11  12
ENDBRANCH   9  11
ENDBRANCH   5   9
BRANCH   1  16
ATOM     16  S   UNL     1       6.918   4.736  14.860  0.00  0.00    +0.000 S 
BRANCH  16  17
ATOM     17  C   UNL     1       5.694   3.845  13.842  0.00  0.00    +0.000 C 
BRANCH  17  19
ATOM     18  C   UNL     1       7.234   4.228  11.891  0.00  0.00    +0.000 C 
ATOM     19  C   UNL     1       6.217   3.563  12.458  0.00  0.00    +0.000 C 
ATOM     20 CL   UNL     1       5.526   2.209  11.625  0.00  0.00    +0.000 Cl
ENDBRANCH  17  19
ENDBRANCH  16  17
ENDBRANCH   1  16
TORSDOF 7
ENDMDL
MODEL 3
REMARK VINA RESULT:      -6.3      3.648      6.632
REMARK  Name = 
REMARK  8 active torsions:
REMARK  status: ('A' for Active; 'I' for Inactive)
REMARK    1  A    between atoms: C_2  and  C_4
REMARK    2  A    between atoms: C_4  and  S_5
REMARK    3  A    between atoms: S_5  and  C_6
REMARK    4  A    between atoms: C_10  and  N_11
REMARK    5  A    between atoms: N_11  and  C_12
REMARK    6  A    between atoms: C_12  and  C_13
REMARK    7  A    between atoms: C_13  and  C_14
REMARK    8  A    between atoms: C_13  and  O_15
REMARK                            x       y       z     vdW  Elec       q    Type
REMARK                         _______ _______ _______ _____ _____    ______ ____
ROOT
ATOM      1  C   UNL     1       3.383   5.071  19.205  0.00  0.00    +0.000 C 
ATOM      2  C   UNL     1       4.674   5.121  19.564  0.00  0.00    +0.000 C 
ATOM      3  C   UNL     1       5.766   4.692  18.666  0.00  0.00    +0.000 C 
ATOM      4  O   UNL     1       6.942   4.747  19.020  0.00  0.00    +0.000 OA
ATOM      5  C   UNL     1       5.403   4.239  17.279  0.00  0.00    +0.000 C 
ATOM      6  C   UNL     1       4.114   4.204  16.934  0.00  0.00    +0.000 C 
ATOM      7  C   UNL     1       3.024   4.616  17.833  0.00  0.00    +0.000 C 
ATOM      8  O   UNL     1       1.879   4.576  17.392  0.00  0.00    +0.000 OA
ENDROOT
BRANCH   5   9
ATOM      9  N   UNL     1       6.444   3.875  16.429  0.00  0.00    +0.000 N 
ATOM     10  H   UNL     1       7.113   3.265  16.909  0.00  0.00    +0.000 HD
BRANCH   9  11
ATOM     11  C   UNL     1       7.105   4.819  15.519  0.00  0.00    +0.000 C 
BRANCH  11  12
ATOM     12  C   UNL     1       6.641   4.658  14.056  0.00  0.00    +0.000 C 
ATOM     13  C   UNL     1       7.658   5.111  13.017  0.00  0.00    +0.000 C 
BRANCH  12  14
ATOM     14  O   UNL     1       6.275   3.299  13.803  0.00  0.00    +0.000 OA
ATOM     15  H   UNL     1       7.029   2.738  14.058  0.00  0.00    +0.000 HD
ENDBRANCH  12  14
ENDBRANCH  11  12
ENDBRANCH   9  11
ENDBRANCH   5   9
BRANCH   1  16
ATOM     16  S   UNL     1       2.146   5.684  20.266  0.00  0.00    +0.000 S 
BRANCH  16  17
ATOM     17  C   UNL     1       0.977   4.292  20.417  0.00  0.00    +0.000 C 
BRANCH  17  19
ATOM     18  C   UNL     1       2.244   2.661  21.852  0.00  0.00    +0.000 C 
ATOM     19  C   UNL     1       1.688   2.989  20.677  0.00  0.00    +0.000 C 
ATOM     20 CL   UNL     1       1.656   1.816  19.402  0.00  0.00    +0.000 Cl
ENDBRANCH  17  19
ENDBRANCH  16  17
ENDBRANCH   1  16
TORSDOF 7
ENDMDL
MODEL 4
REMARK VINA RESULT:      -6.2      3.800      5.892
REMARK  Name = 
REMARK  8 active torsions:
REMARK  status: ('A' for Active; 'I' for Inactive)
REMARK    1  A    between atoms: C_2  and  C_4
REMARK    2  A    between atoms: C_4  and  S_5
REMARK    3  A    between atoms: S_5  and  C_6
REMARK    4  A    between atoms: C_10  and  N_11
REMARK    5  A    between atoms: N_11  and  C_12
REMARK    6  A    between atoms: C_12  and  C_13
REMARK    7  A    between atoms: C_13  and  C_14
REMARK    8  A    between atoms: C_13  and  O_15
REMARK                            x       y       z     vdW  Elec       q    Type
REMARK                         _______ _______ _______ _____ _____    ______ ____
ROOT
ATOM      1  C   UNL     1       2.591   4.422  17.746  0.00  0.00    +0.000 C 
ATOM      2  C   UNL     1       3.509   3.744  17.042  0.00  0.00    +0.000 C 
ATOM      3  C   UNL     1       4.746   4.371  16.536  0.00  0.00    +0.000 C 
ATOM      4  O   UNL     1       5.572   3.727  15.892  0.00  0.00    +0.000 OA
ATOM      5  C   UNL     1       4.999   5.813  16.882  0.00  0.00    +0.000 C 
ATOM      6  C   UNL     1       4.081   6.472  17.592  0.00  0.00    +0.000 C 
ATOM      7  C   UNL     1       2.840   5.851  18.083  0.00  0.00    +0.000 C 
ATOM      8  O   UNL     1       2.086   6.547  18.757  0.00  0.00    +0.000 OA
ENDROOT
BRANCH   5   9
ATOM      9  N   UNL     1       6.188   6.382  16.433  0.00  0.00    +0.000 N 
ATOM     10  H   UNL     1       6.578   5.849  15.650  0.00  0.00    +0.000 HD
BRANCH   9  11
ATOM     11  C   UNL     1       7.230   6.883  17.338  0.00  0.00    +0.000 C 
BRANCH  11  12
ATOM     12  C   UNL     1       7.841   5.769  18.215  0.00  0.00    +0.000 C 
ATOM     13  C   UNL     1       7.076   5.488  19.502  0.00  0.00    +0.000 C 
BRANCH  12  14
ATOM     14  O   UNL     1       7.964   4.561  17.461  0.00  0.00    +0.000 OA
ATOM     15  H   UNL     1       8.737   4.077  17.802  0.00  0.00    +0.000 HD
ENDBRANCH  12  14
ENDBRANCH  11  12
ENDBRANCH   9  11
ENDBRANCH   5   9
BRANCH   1  16
ATOM     16  S   UNL     1       1.200   3.606  18.402  0.00  0.00    +0.000 S 
BRANCH  16  17
ATOM     17  C   UNL     1       1.911   2.161  19.261  0.00  0.00    +0.000 C 
BRANCH  17  19
ATOM     18  C   UNL     1       2.281   3.043  21.587  0.00  0.00    +0.000 C 
ATOM     19  C   UNL     1       2.767   2.571  20.430  0.00  0.00    +0.000 C 
ATOM     20 CL   UNL     1       4.471   2.282  20.287  0.00  0.00    +0.000 Cl
ENDBRANCH  17  19
ENDBRANCH  16  17
ENDBRANCH   1  16
TORSDOF 7
ENDMDL
MODEL 5
REMARK VINA RESULT:      -6.2      1.848      2.289
REMARK  Name = 
REMARK  8 active torsions:
REMARK  status: ('A' for Active; 'I' for Inactive)
REMARK    1  A    between atoms: C_2  and  C_4
REMARK    2  A    between atoms: C_4  and  S_5
REMARK    3  A    between atoms: S_5  and  C_6
REMARK    4  A    between atoms: C_10  and  N_11
REMARK    5  A    between atoms: N_11  and  C_12
REMARK    6  A    between atoms: C_12  and  C_13
REMARK    7  A    between atoms: C_13  and  C_14
REMARK    8  A    between atoms: C_13  and  O_15
REMARK                            x       y       z     vdW  Elec       q    Type
REMARK                         _______ _______ _______ _____ _____    ______ ____
ROOT
ATOM      1  C   UNL     1       5.610   4.454  17.379  0.00  0.00    +0.000 C 
ATOM      2  C   UNL     1       4.463   3.997  16.857  0.00  0.00    +0.000 C 
ATOM      3  C   UNL     1       3.175   4.076  17.575  0.00  0.00    +0.000 C 
ATOM      4  O   UNL     1       2.137   3.648  17.074  0.00  0.00    +0.000 OA
ATOM      5  C   UNL     1       3.156   4.751  18.919  0.00  0.00    +0.000 C 
ATOM      6  C   UNL     1       4.304   5.210  19.421  0.00  0.00    +0.000 C 
ATOM      7  C   UNL     1       5.591   5.117  18.713  0.00  0.00    +0.000 C 
ATOM      8  O   UNL     1       6.575   5.608  19.258  0.00  0.00    +0.000 OA
ENDROOT
BRANCH   5   9
ATOM      9  N   UNL     1       1.928   4.855  19.568  0.00  0.00    +0.000 N 
ATOM     10  H   UNL     1       1.403   5.668  19.233  0.00  0.00    +0.000 HD
BRANCH   9  11
ATOM     11  C   UNL     1       1.763   4.642  21.012  0.00  0.00    +0.000 C 
BRANCH  11  12
ATOM     12  C   UNL     1       1.502   3.163  21.368  0.00  0.00    +0.000 C 
ATOM     13  C   UNL     1       1.169   2.275  20.175  0.00  0.00    +0.000 C 
BRANCH  12  14
ATOM     14  O   UNL     1       2.626   2.619  22.066  0.00  0.00    +0.000 OA
ATOM     15  H   UNL     1       2.512   2.820  23.012  0.00  0.00    +0.000 HD
ENDBRANCH  12  14
ENDBRANCH  11  12
ENDBRANCH   9  11
ENDBRANCH   5   9
BRANCH   1  16
ATOM     16  S   UNL     1       7.079   4.426  16.446  0.00  0.00    +0.000 S 
BRANCH  16  17
ATOM     17  C   UNL     1       6.698   5.478  15.005  0.00  0.00    +0.000 C 
BRANCH  17  19
ATOM     18  C   UNL     1       6.139   3.674  13.345  0.00  0.00    +0.000 C 
ATOM     19  C   UNL     1       6.875   4.734  13.707  0.00  0.00    +0.000 C 
ATOM     20 CL   UNL     1       8.018   5.392  12.582  0.00  0.00    +0.000 Cl
ENDBRANCH  17  19
ENDBRANCH  16  17
ENDBRANCH   1  16
TORSDOF 7
ENDMDL
MODEL 6
REMARK VINA RESULT:      -6.1      4.204      6.407
REMARK  Name = 
REMARK  8 active torsions:
REMARK  status: ('A' for Active; 'I' for Inactive)
REMARK    1  A    between atoms: C_2  and  C_4
REMARK    2  A    between atoms: C_4  and  S_5
REMARK    3  A    between atoms: S_5  and  C_6
REMARK    4  A    between atoms: C_10  and  N_11
REMARK    5  A    between atoms: N_11  and  C_12
REMARK    6  A    between atoms: C_12  and  C_13
REMARK    7  A    between atoms: C_13  and  C_14
REMARK    8  A    between atoms: C_13  and  O_15
REMARK                            x       y       z     vdW  Elec       q    Type
REMARK                         _______ _______ _______ _____ _____    ______ ____
ROOT
ATOM      1  C   UNL     1       3.103   3.197  18.377  0.00  0.00    +0.000 C 
ATOM      2  C   UNL     1       4.355   3.219  18.853  0.00  0.00    +0.000 C 
ATOM      3  C   UNL     1       5.264   4.366  18.650  0.00  0.00    +0.000 C 
ATOM      4  O   UNL     1       6.410   4.360  19.096  0.00  0.00    +0.000 OA
ATOM      5  C   UNL     1       4.728   5.571  17.928  0.00  0.00    +0.000 C 
ATOM      6  C   UNL     1       3.475   5.538  17.469  0.00  0.00    +0.000 C 
ATOM      7  C   UNL     1       2.575   4.390  17.657  0.00  0.00    +0.000 C 
ATOM      8  O   UNL     1       1.431   4.488  17.222  0.00  0.00    +0.000 OA
ENDROOT
BRANCH   5   9
ATOM      9  N   UNL     1       5.581   6.661  17.778  0.00  0.00    +0.000 N 
ATOM     10  H   UNL     1       5.052   7.522  17.607  0.00  0.00    +0.000 HD
BRANCH   9  11
ATOM     11  C   UNL     1       6.823   6.607  16.995  0.00  0.00    +0.000 C 
BRANCH  11  12
ATOM     12  C   UNL     1       8.003   7.305  17.704  0.00  0.00    +0.000 C 
ATOM     13  C   UNL     1       7.855   8.815  17.839  0.00  0.00    +0.000 C 
BRANCH  12  14
ATOM     14  O   UNL     1       8.211   6.730  18.996  0.00  0.00    +0.000 OA
ATOM     15  H   UNL     1       9.102   6.338  19.006  0.00  0.00    +0.000 HD
ENDBRANCH  12  14
ENDBRANCH  11  12
ENDBRANCH   9  11
ENDBRANCH   5   9
BRANCH   1  16
ATOM     16  S   UNL     1       2.045   1.861  18.733  0.00  0.00    +0.000 S 
BRANCH  16  17
ATOM     17  C   UNL     1       0.734   2.608  19.758  0.00  0.00    +0.000 C 
BRANCH  17  19
ATOM     18  C   UNL     1       1.984   2.888  21.922  0.00  0.00    +0.000 C 
ATOM     19  C   UNL     1       1.304   3.416  20.895  0.00  0.00    +0.000 C 
ATOM     20 CL   UNL     1       1.166   5.139  20.772  0.00  0.00    +0.000 Cl
ENDBRANCH  17  19
ENDBRANCH  16  17
ENDBRANCH   1  16
TORSDOF 7
ENDMDL
MODEL 7
REMARK VINA RESULT:      -6.1      3.271      5.835
REMARK  Name = 
REMARK  8 active torsions:
REMARK  status: ('A' for Active; 'I' for Inactive)
REMARK    1  A    between atoms: C_2  and  C_4
REMARK    2  A    between atoms: C_4  and  S_5
REMARK    3  A    between atoms: S_5  and  C_6
REMARK    4  A    between atoms: C_10  and  N_11
REMARK    5  A    between atoms: N_11  and  C_12
REMARK    6  A    between atoms: C_12  and  C_13
REMARK    7  A    between atoms: C_13  and  C_14
REMARK    8  A    between atoms: C_13  and  O_15
REMARK                            x       y       z     vdW  Elec       q    Type
REMARK                         _______ _______ _______ _____ _____    ______ ____
ROOT
ATOM      1  C   UNL     1       4.023   5.101  19.035  0.00  0.00    +0.000 C 
ATOM      2  C   UNL     1       5.251   4.576  19.146  0.00  0.00    +0.000 C 
ATOM      3  C   UNL     1       6.310   4.811  18.143  0.00  0.00    +0.000 C 
ATOM      4  O   UNL     1       7.429   4.317  18.267  0.00  0.00    +0.000 OA
ATOM      5  C   UNL     1       5.999   5.723  16.988  0.00  0.00    +0.000 C 
ATOM      6  C   UNL     1       4.775   6.246  16.897  0.00  0.00    +0.000 C 
ATOM      7  C   UNL     1       3.714   6.000  17.888  0.00  0.00    +0.000 C 
ATOM      8  O   UNL     1       2.638   6.565  17.718  0.00  0.00    +0.000 OA
ENDROOT
BRANCH   5   9
ATOM      9  N   UNL     1       7.018   5.969  16.071  0.00  0.00    +0.000 N 
ATOM     10  H   UNL     1       7.192   6.973  15.975  0.00  0.00    +0.000 HD
BRANCH   9  11
ATOM     11  C   UNL     1       7.133   5.259  14.791  0.00  0.00    +0.000 C 
BRANCH  11  12
ATOM     12  C   UNL     1       6.045   4.179  14.610  0.00  0.00    +0.000 C 
ATOM     13  C   UNL     1       5.886   3.676  13.180  0.00  0.00    +0.000 C 
BRANCH  12  14
ATOM     14  O   UNL     1       6.300   3.072  15.478  0.00  0.00    +0.000 OA
ATOM     15  H   UNL     1       6.496   3.429  16.363  0.00  0.00    +0.000 HD
ENDBRANCH  12  14
ENDBRANCH  11  12
ENDBRANCH   9  11
ENDBRANCH   5   9
BRANCH   1  16
ATOM     16  S   UNL     1       2.847   4.872  20.298  0.00  0.00    +0.000 S 
BRANCH  16  17
ATOM     17  C   UNL     1       2.763   3.060  20.489  0.00  0.00    +0.000 C 
BRANCH  17  19
ATOM     18  C   UNL     1       1.004   2.547  18.766  0.00  0.00    +0.000 C 
ATOM     19  C   UNL     1       2.247   2.390  19.242  0.00  0.00    +0.000 C 
ATOM     20 CL   UNL     1       3.391   1.468  18.322  0.00  0.00    +0.000 Cl
ENDBRANCH  17  19
ENDBRANCH  16  17
ENDBRANCH   1  16
TORSDOF 7
ENDMDL
MODEL 8
REMARK VINA RESULT:      -6.1      2.956      3.657
REMARK  Name = 
REMARK  8 active torsions:
REMARK  status: ('A' for Active; 'I' for Inactive)
REMARK    1  A    between atoms: C_2  and  C_4
REMARK    2  A    between atoms: C_4  and  S_5
REMARK    3  A    between atoms: S_5  and  C_6
REMARK    4  A    between atoms: C_10  and  N_11
REMARK    5  A    between atoms: N_11  and  C_12
REMARK    6  A    between atoms: C_12  and  C_13
REMARK    7  A    between atoms: C_13  and  C_14
REMARK    8  A    between atoms: C_13  and  O_15
REMARK                            x       y       z     vdW  Elec       q    Type
REMARK                         _______ _______ _______ _____ _____    ______ ____
ROOT
ATOM      1  C   UNL     1       4.413   5.557  16.978  0.00  0.00    +0.000 C 
ATOM      2  C   UNL     1       4.246   4.229  16.920  0.00  0.00    +0.000 C 
ATOM      3  C   UNL     1       3.150   3.533  17.625  0.00  0.00    +0.000 C 
ATOM      4  O   UNL     1       3.020   2.312  17.557  0.00  0.00    +0.000 OA
ATOM      5  C   UNL     1       2.158   4.369  18.386  0.00  0.00    +0.000 C 
ATOM      6  C   UNL     1       2.331   5.691  18.425  0.00  0.00    +0.000 C 
ATOM      7  C   UNL     1       3.432   6.384  17.736  0.00  0.00    +0.000 C 
ATOM      8  O   UNL     1       3.469   7.608  17.814  0.00  0.00    +0.000 OA
ENDROOT
BRANCH   5   9
ATOM      9  N   UNL     1       1.106   3.705  19.013  0.00  0.00    +0.000 N 
ATOM     10  H   UNL     1       0.231   3.833  18.496  0.00  0.00    +0.000 HD
BRANCH   9  11
ATOM     11  C   UNL     1       0.902   3.718  20.467  0.00  0.00    +0.000 C 
BRANCH  11  12
ATOM     12  C   UNL     1       1.599   2.538  21.176  0.00  0.00    +0.000 C 
ATOM     13  C   UNL     1       3.121   2.614  21.180  0.00  0.00    +0.000 C 
BRANCH  12  14
ATOM     14  O   UNL     1       1.125   2.421  22.519  0.00  0.00    +0.000 OA
ATOM     15  H   UNL     1       1.446   1.573  22.874  0.00  0.00    +0.000 HD
ENDBRANCH  12  14
ENDBRANCH  11  12
ENDBRANCH   9  11
ENDBRANCH   5   9
BRANCH   1  16
ATOM     16  S   UNL     1       5.662   6.333  16.046  0.00  0.00    +0.000 S 
BRANCH  16  17
ATOM     17  C   UNL     1       6.827   6.946  17.309  0.00  0.00    +0.000 C 
BRANCH  17  19
ATOM     18  C   UNL     1       7.739   5.846  19.378  0.00  0.00    +0.000 C 
ATOM     19  C   UNL     1       7.480   5.817  18.063  0.00  0.00    +0.000 C 
ATOM     20 CL   UNL     1       7.785   4.360  17.175  0.00  0.00    +0.000 Cl
ENDBRANCH  17  19
ENDBRANCH  16  17
ENDBRANCH   1  16
TORSDOF 7
ENDMDL
MODEL 9
REMARK VINA RESULT:      -6.0      1.480      2.301
REMARK  Name = 
REMARK  8 active torsions:
REMARK  status: ('A' for Active; 'I' for Inactive)
REMARK    1  A    between atoms: C_2  and  C_4
REMARK    2  A    between atoms: C_4  and  S_5
REMARK    3  A    between atoms: S_5  and  C_6
REMARK    4  A    between atoms: C_10  and  N_11
REMARK    5  A    between atoms: N_11  and  C_12
REMARK    6  A    between atoms: C_12  and  C_13
REMARK    7  A    between atoms: C_13  and  C_14
REMARK    8  A    between atoms: C_13  and  O_15
REMARK                            x       y       z     vdW  Elec       q    Type
REMARK                         _______ _______ _______ _____ _____    ______ ____
ROOT
ATOM      1  C   UNL     1       5.367   5.450  17.145  0.00  0.00    +0.000 C 
ATOM      2  C   UNL     1       4.240   6.168  17.042  0.00  0.00    +0.000 C 
ATOM      3  C   UNL     1       3.289   6.320  18.161  0.00  0.00    +0.000 C 
ATOM      4  O   UNL     1       2.260   6.983  18.039  0.00  0.00    +0.000 OA
ATOM      5  C   UNL     1       3.642   5.686  19.478  0.00  0.00    +0.000 C 
ATOM      6  C   UNL     1       4.772   4.983  19.568  0.00  0.00    +0.000 C 
ATOM      7  C   UNL     1       5.713   4.818  18.449  0.00  0.00    +0.000 C 
ATOM      8  O   UNL     1       6.740   4.180  18.660  0.00  0.00    +0.000 OA
ENDROOT
BRANCH   5   9
ATOM      9  N   UNL     1       2.756   5.871  20.537  0.00  0.00    +0.000 N 
ATOM     10  H   UNL     1       3.255   5.916  21.430  0.00  0.00    +0.000 HD
BRANCH   9  11
ATOM     11  C   UNL     1       1.479   5.154  20.649  0.00  0.00    +0.000 C 
BRANCH  11  12
ATOM     12  C   UNL     1       1.630   3.634  20.428  0.00  0.00    +0.000 C 
ATOM     13  C   UNL     1       2.259   2.885  21.596  0.00  0.00    +0.000 C 
BRANCH  12  14
ATOM     14  O   UNL     1       0.360   3.053  20.120  0.00  0.00    +0.000 OA
ATOM     15  H   UNL     1       0.335   2.888  19.161  0.00  0.00    +0.000 HD
ENDBRANCH  12  14
ENDBRANCH  11  12
ENDBRANCH   9  11
ENDBRANCH   5   9
BRANCH   1  16
ATOM     16  S   UNL     1       6.501   5.389  15.824  0.00  0.00    +0.000 S 
BRANCH  16  17
ATOM     17  C   UNL     1       5.742   4.210  14.657  0.00  0.00    +0.000 C 
BRANCH  17  19
ATOM     18  C   UNL     1       7.551   4.924  13.063  0.00  0.00    +0.000 C 
ATOM     19  C   UNL     1       6.459   4.194  13.332  0.00  0.00    +0.000 C 
ATOM     20 CL   UNL     1       5.891   3.059  12.152  0.00  0.00    +0.000 Cl
ENDBRANCH  17  19
ENDBRANCH  16  17
ENDBRANCH   1  16
TORSDOF 7
ENDMDL
