MODEL 1
REMARK VINA RESULT:      -6.0      0.000      0.000
REMARK  Name = 
REMARK  14 active torsions:
REMARK  status: ('A' for Active; 'I' for Inactive)
REMARK    1  A    between atoms: C_1  and  C_2
REMARK    2  A    between atoms: C_2  and  C_3
REMARK    3  A    between atoms: C_3  and  C_4
REMARK    4  A    between atoms: C_4  and  C_5
REMARK    5  A    between atoms: C_5  and  C_6
REMARK    6  A    between atoms: C_6  and  C_7
REMARK    7  A    between atoms: C_7  and  C_8
REMARK    8  A    between atoms: C_7  and  C_11
REMARK    9  A    between atoms: N_9  and  O_10
REMARK   10  A    between atoms: C_11  and  C_12
REMARK   11  A    between atoms: C_11  and  O_13
REMARK   12  A    between atoms: C_11  and  C_14
REMARK   13  A    between atoms: C_14  and  C_15
REMARK   14  A    between atoms: C_15  and  C_16
REMARK                            x       y       z     vdW  Elec       q    Type
REMARK                         _______ _______ _______ _____ _____    ______ ____
ROOT
ATOM      1  C   UNL     1       6.092   5.706  18.128  0.00  0.00    +0.000 C 
ENDROOT
BRANCH   1   2
ATOM      2  C   UNL     1       7.408   5.439  18.838  0.00  0.00    +0.000 C 
ATOM      3  N   UNL     1       7.492   5.415  20.131  0.00  0.00    +0.000 NA
BRANCH   3   4
ATOM      4  O   UNL     1       8.811   5.128  20.498  0.00  0.00    +0.000 OA
ATOM      5  H   UNL     1       8.786   4.160  20.635  0.00  0.00    +0.000 HD
ENDBRANCH   3   4
ENDBRANCH   1   2
BRANCH   1   6
ATOM      6  C   UNL     1       6.331   5.827  16.583  0.00  0.00    +0.000 C 
ATOM      7  C   UNL     1       5.184   6.602  15.913  0.00  0.00    +0.000 C 
BRANCH   6   8
ATOM      8  O   UNL     1       7.549   6.527  16.321  0.00  0.00    +0.000 OA
ATOM      9  H   UNL     1       8.259   5.871  16.186  0.00  0.00    +0.000 HD
ENDBRANCH   6   8
BRANCH   6  10
ATOM     10  C   UNL     1       6.473   4.418  15.947  0.00  0.00    +0.000 C 
BRANCH  10  11
ATOM     11  C   UNL     1       5.528   4.130  14.773  0.00  0.00    +0.000 C 
ATOM     12  C   UNL     1       6.306   3.884  13.488  0.00  0.00    +0.000 C 
ENDBRANCH  10  11
ENDBRANCH   6  10
ENDBRANCH   1   6
BRANCH   1  13
ATOM     13  C   UNL     1       5.043   4.641  18.523  0.00  0.00    +0.000 C 
BRANCH  13  14
ATOM     14  C   UNL     1       3.811   5.180  19.263  0.00  0.00    +0.000 C 
BRANCH  14  15
ATOM     15  C   UNL     1       2.692   5.632  18.323  0.00  0.00    +0.000 C 
BRANCH  15  16
ATOM     16  C   UNL     1       1.884   4.437  17.821  0.00  0.00    +0.000 C 
BRANCH  16  18
ATOM     17  C   UNL     1       1.438   2.181  18.833  0.00  0.00    +0.000 C 
ATOM     18  C   UNL     1       1.231   3.678  18.975  0.00  0.00    +0.000 C 
ENDBRANCH  16  18
ENDBRANCH  15  16
ENDBRANCH  14  15
ENDBRANCH  13  14
ENDBRANCH   1  13
TORSDOF 11
ENDMDL
MODEL 2
REMARK VINA RESULT:      -5.9      1.630      4.934
REMARK  Name = 
REMARK  14 active torsions:
REMARK  status: ('A' for Active; 'I' for Inactive)
REMARK    1  A    between atoms: C_1  and  C_2
REMARK    2  A    between atoms: C_2  and  C_3
REMARK    3  A    between atoms: C_3  and  C_4
REMARK    4  A    between atoms: C_4  and  C_5
REMARK    5  A    between atoms: C_5  and  C_6
REMARK    6  A    between atoms: C_6  and  C_7
REMARK    7  A    between atoms: C_7  and  C_8
REMARK    8  A    between atoms: C_7  and  C_11
REMARK    9  A    between atoms: N_9  and  O_10
REMARK   10  A    between atoms: C_11  and  C_12
REMARK   11  A    between atoms: C_11  and  O_13
REMARK   12  A    between atoms: C_11  and  C_14
REMARK   13  A    between atoms: C_14  and  C_15
REMARK   14  A    between atoms: C_15  and  C_16
REMARK                            x       y       z     vdW  Elec       q    Type
REMARK                         _______ _______ _______ _____ _____    ______ ____
ROOT
ATOM      1  C   UNL     1       5.470   4.722  18.229  0.00  0.00    +0.000 C 
ENDROOT
BRANCH   1   2
ATOM      2  C   UNL     1       6.325   5.189  19.394  0.00  0.00    +0.000 C 
ATOM      3  N   UNL     1       7.616   5.078  19.380  0.00  0.00    +0.000 NA
BRANCH   3   4
ATOM      4  O   UNL     1       8.134   5.607  20.567  0.00  0.00    +0.000 OA
ATOM      5  H   UNL     1       7.747   6.505  20.583  0.00  0.00    +0.000 HD
ENDBRANCH   3   4
ENDBRANCH   1   2
BRANCH   1   6
ATOM      6  C   UNL     1       4.386   3.706  18.732  0.00  0.00    +0.000 C 
ATOM      7  C   UNL     1       3.706   3.002  17.547  0.00  0.00    +0.000 C 
BRANCH   6   8
ATOM      8  O   UNL     1       4.987   2.704  19.555  0.00  0.00    +0.000 OA
ATOM      9  H   UNL     1       5.130   1.905  19.014  0.00  0.00    +0.000 HD
ENDBRANCH   6   8
BRANCH   6  10
ATOM     10  C   UNL     1       3.329   4.434  19.605  0.00  0.00    +0.000 C 
BRANCH  10  11
ATOM     11  C   UNL     1       1.910   3.852  19.538  0.00  0.00    +0.000 C 
ATOM     12  C   UNL     1       1.489   3.274  20.882  0.00  0.00    +0.000 C 
ENDBRANCH  10  11
ENDBRANCH   6  10
ENDBRANCH   1   6
BRANCH   1  13
ATOM     13  C   UNL     1       4.891   5.935  17.466  0.00  0.00    +0.000 C 
BRANCH  13  14
ATOM     14  C   UNL     1       5.190   5.964  15.961  0.00  0.00    +0.000 C 
BRANCH  14  15
ATOM     15  C   UNL     1       6.321   5.017  15.552  0.00  0.00    +0.000 C 
BRANCH  15  16
ATOM     16  C   UNL     1       5.796   3.895  14.657  0.00  0.00    +0.000 C 
BRANCH  16  18
ATOM     17  C   UNL     1       5.529   3.465  12.196  0.00  0.00    +0.000 C 
ATOM     18  C   UNL     1       6.485   3.899  13.293  0.00  0.00    +0.000 C 
ENDBRANCH  16  18
ENDBRANCH  15  16
ENDBRANCH  14  15
ENDBRANCH  13  14
ENDBRANCH   1  13
TORSDOF 11
ENDMDL
MODEL 3
REMARK VINA RESULT:      -5.9      2.836      5.779
REMARK  Name = 
REMARK  14 active torsions:
REMARK  status: ('A' for Active; 'I' for Inactive)
REMARK    1  A    between atoms: C_1  and  C_2
REMARK    2  A    between atoms: C_2  and  C_3
REMARK    3  A    between atoms: C_3  and  C_4
REMARK    4  A    between atoms: C_4  and  C_5
REMARK    5  A    between atoms: C_5  and  C_6
REMARK    6  A    between atoms: C_6  and  C_7
REMARK    7  A    between atoms: C_7  and  C_8
REMARK    8  A    between atoms: C_7  and  C_11
REMARK    9  A    between atoms: N_9  and  O_10
REMARK   10  A    between atoms: C_11  and  C_12
REMARK   11  A    between atoms: C_11  and  O_13
REMARK   12  A    between atoms: C_11  and  C_14
REMARK   13  A    between atoms: C_14  and  C_15
REMARK   14  A    between atoms: C_15  and  C_16
REMARK                            x       y       z     vdW  Elec       q    Type
REMARK                         _______ _______ _______ _____ _____    ______ ____
ROOT
ATOM      1  C   UNL     1       3.279   3.469  17.816  0.00  0.00    +0.000 C 
ENDROOT
BRANCH   1   2
ATOM      2  C   UNL     1       3.867   2.433  18.758  0.00  0.00    +0.000 C 
ATOM      3  N   UNL     1       4.841   2.719  19.564  0.00  0.00    +0.000 NA
BRANCH   3   4
ATOM      4  O   UNL     1       5.158   1.585  20.319  0.00  0.00    +0.000 OA
ATOM      5  H   UNL     1       5.246   0.893  19.633  0.00  0.00    +0.000 HD
ENDBRANCH   3   4
ENDBRANCH   1   2
BRANCH   1   6
ATOM      6  C   UNL     1       1.879   3.940  18.342  0.00  0.00    +0.000 C 
ATOM      7  C   UNL     1       2.002   5.267  19.110  0.00  0.00    +0.000 C 
BRANCH   6   8
ATOM      8  O   UNL     1       0.979   4.143  17.250  0.00  0.00    +0.000 OA
ATOM      9  H   UNL     1       1.389   4.772  16.627  0.00  0.00    +0.000 HD
ENDBRANCH   6   8
BRANCH   6  10
ATOM     10  C   UNL     1       1.249   2.850  19.250  0.00  0.00    +0.000 C 
BRANCH  10  11
ATOM     11  C   UNL     1       0.879   3.309  20.667  0.00  0.00    +0.000 C 
ATOM     12  C   UNL     1       1.737   2.611  21.712  0.00  0.00    +0.000 C 
ENDBRANCH  10  11
ENDBRANCH   6  10
ENDBRANCH   1   6
BRANCH   1  13
ATOM     13  C   UNL     1       4.286   4.620  17.587  0.00  0.00    +0.000 C 
BRANCH  13  14
ATOM     14  C   UNL     1       5.041   4.571  16.252  0.00  0.00    +0.000 C 
BRANCH  14  15
ATOM     15  C   UNL     1       5.366   5.957  15.690  0.00  0.00    +0.000 C 
BRANCH  15  16
ATOM     16  C   UNL     1       5.757   6.921  16.807  0.00  0.00    +0.000 C 
BRANCH  16  18
ATOM     17  C   UNL     1       7.827   8.029  17.704  0.00  0.00    +0.000 C 
ATOM     18  C   UNL     1       7.212   6.723  17.233  0.00  0.00    +0.000 C 
ENDBRANCH  16  18
ENDBRANCH  15  16
ENDBRANCH  14  15
ENDBRANCH  13  14
ENDBRANCH   1  13
TORSDOF 11
ENDMDL
MODEL 4
REMARK VINA RESULT:      -5.9      2.124      2.422
REMARK  Name = 
REMARK  14 active torsions:
REMARK  status: ('A' for Active; 'I' for Inactive)
REMARK    1  A    between atoms: C_1  and  C_2
REMARK    2  A    between atoms: C_2  and  C_3
REMARK    3  A    between atoms: C_3  and  C_4
REMARK    4  A    between atoms: C_4  and  C_5
REMARK    5  A    between atoms: C_5  and  C_6
REMARK    6  A    between atoms: C_6  and  C_7
REMARK    7  A    between atoms: C_7  and  C_8
REMARK    8  A    between atoms: C_7  and  C_11
REMARK    9  A    between atoms: N_9  and  O_10
REMARK   10  A    between atoms: C_11  and  C_12
REMARK   11  A    between atoms: C_11  and  O_13
REMARK   12  A    between atoms: C_11  and  C_14
REMARK   13  A    between atoms: C_14  and  C_15
REMARK   14  A    between atoms: C_15  and  C_16
REMARK                            x       y       z     vdW  Elec       q    Type
REMARK                         _______ _______ _______ _____ _____    ______ ____
ROOT
ATOM      1  C   UNL     1       5.279   5.040  18.324  0.00  0.00    +0.000 C 
ENDROOT
BRANCH   1   2
ATOM      2  C   UNL     1       4.722   3.659  18.623  0.00  0.00    +0.000 C 
ATOM      3  N   UNL     1       5.130   2.964  19.638  0.00  0.00    +0.000 NA
BRANCH   3   4
ATOM      4  O   UNL     1       4.430   1.753  19.674  0.00  0.00    +0.000 OA
ATOM      5  H   UNL     1       4.473   1.457  18.743  0.00  0.00    +0.000 HD
ENDBRANCH   3   4
ENDBRANCH   1   2
BRANCH   1   6
ATOM      6  C   UNL     1       6.530   4.922  17.385  0.00  0.00    +0.000 C 
ATOM      7  C   UNL     1       7.032   6.314  16.967  0.00  0.00    +0.000 C 
BRANCH   6   8
ATOM      8  O   UNL     1       7.597   4.251  18.059  0.00  0.00    +0.000 OA
ATOM      9  H   UNL     1       7.727   4.674  18.929  0.00  0.00    +0.000 HD
ENDBRANCH   6   8
BRANCH   6  10
ATOM     10  C   UNL     1       6.185   4.075  16.130  0.00  0.00    +0.000 C 
BRANCH  10  11
ATOM     11  C   UNL     1       6.031   4.868  14.826  0.00  0.00    +0.000 C 
ATOM     12  C   UNL     1       6.254   3.978  13.612  0.00  0.00    +0.000 C 
ENDBRANCH  10  11
ENDBRANCH   6  10
ENDBRANCH   1   6
BRANCH   1  13
ATOM     13  C   UNL     1       4.165   5.963  17.777  0.00  0.00    +0.000 C 
BRANCH  13  14
ATOM     14  C   UNL     1       2.742   5.604  18.225  0.00  0.00    +0.000 C 
BRANCH  14  15
ATOM     15  C   UNL     1       2.327   6.292  19.527  0.00  0.00    +0.000 C 
BRANCH  15  16
ATOM     16  C   UNL     1       2.134   5.270  20.646  0.00  0.00    +0.000 C 
BRANCH  16  18
ATOM     17  C   UNL     1       1.338   2.934  21.117  0.00  0.00    +0.000 C 
ATOM     18  C   UNL     1       1.181   4.152  20.224  0.00  0.00    +0.000 C 
ENDBRANCH  16  18
ENDBRANCH  15  16
ENDBRANCH  14  15
ENDBRANCH  13  14
ENDBRANCH   1  13
TORSDOF 11
ENDMDL
MODEL 5
REMARK VINA RESULT:      -5.9      2.259      2.895
REMARK  Name = 
REMARK  14 active torsions:
REMARK  status: ('A' for Active; 'I' for Inactive)
REMARK    1  A    between atoms: C_1  and  C_2
REMARK    2  A    between atoms: C_2  and  C_3
REMARK    3  A    between atoms: C_3  and  C_4
REMARK    4  A    between atoms: C_4  and  C_5
REMARK    5  A    between atoms: C_5  and  C_6
REMARK    6  A    between atoms: C_6  and  C_7
REMARK    7  A    between atoms: C_7  and  C_8
REMARK    8  A    between atoms: C_7  and  C_11
REMARK    9  A    between atoms: N_9  and  O_10
REMARK   10  A    between atoms: C_11  and  C_12
REMARK   11  A    between atoms: C_11  and  O_13
REMARK   12  A    between atoms: C_11  and  C_14
REMARK   13  A    between atoms: C_14  and  C_15
REMARK   14  A    between atoms: C_15  and  C_16
REMARK                            x       y       z     vdW  Elec       q    Type
REMARK                         _______ _______ _______ _____ _____    ______ ____
ROOT
ATOM      1  C   UNL     1       3.901   4.399  17.154  0.00  0.00    +0.000 C 
ENDROOT
BRANCH   1   2
ATOM      2  C   UNL     1       3.323   5.399  18.140  0.00  0.00    +0.000 C 
ATOM      3  N   UNL     1       3.743   5.470  19.364  0.00  0.00    +0.000 NA
BRANCH   3   4
ATOM      4  O   UNL     1       3.049   6.488  20.027  0.00  0.00    +0.000 OA
ATOM      5  H   UNL     1       3.669   6.734  20.743  0.00  0.00    +0.000 HD
ENDBRANCH   3   4
ENDBRANCH   1   2
BRANCH   1   6
ATOM      6  C   UNL     1       5.301   4.892  16.648  0.00  0.00    +0.000 C 
ATOM      7  C   UNL     1       5.182   6.266  15.967  0.00  0.00    +0.000 C 
BRANCH   6   8
ATOM      8  O   UNL     1       6.210   5.020  17.743  0.00  0.00    +0.000 OA
ATOM      9  H   UNL     1       6.965   4.422  17.588  0.00  0.00    +0.000 HD
ENDBRANCH   6   8
BRANCH   6  10
ATOM     10  C   UNL     1       5.915   3.857  15.668  0.00  0.00    +0.000 C 
BRANCH  10  11
ATOM     11  C   UNL     1       6.491   4.443  14.371  0.00  0.00    +0.000 C 
ATOM     12  C   UNL     1       5.980   3.686  13.153  0.00  0.00    +0.000 C 
ENDBRANCH  10  11
ENDBRANCH   6  10
ENDBRANCH   1   6
BRANCH   1  13
ATOM     13  C   UNL     1       3.917   2.982  17.772  0.00  0.00    +0.000 C 
BRANCH  13  14
ATOM     14  C   UNL     1       2.585   2.224  17.702  0.00  0.00    +0.000 C 
BRANCH  14  15
ATOM     15  C   UNL     1       1.979   1.937  19.078  0.00  0.00    +0.000 C 
BRANCH  15  16
ATOM     16  C   UNL     1       0.791   2.856  19.354  0.00  0.00    +0.000 C 
BRANCH  16  18
ATOM     17  C   UNL     1       1.983   2.999  21.561  0.00  0.00    +0.000 C 
ATOM     18  C   UNL     1       1.007   3.683  20.621  0.00  0.00    +0.000 C 
ENDBRANCH  16  18
ENDBRANCH  15  16
ENDBRANCH  14  15
ENDBRANCH  13  14
ENDBRANCH   1  13
TORSDOF 11
ENDMDL
MODEL 6
REMARK VINA RESULT:      -5.7      1.307      1.642
REMARK  Name = 
REMARK  14 active torsions:
REMARK  status: ('A' for Active; 'I' for Inactive)
REMARK    1  A    between atoms: C_1  and  C_2
REMARK    2  A    between atoms: C_2  and  C_3
REMARK    3  A    between atoms: C_3  and  C_4
REMARK    4  A    between atoms: C_4  and  C_5
REMARK    5  A    between atoms: C_5  and  C_6
REMARK    6  A    between atoms: C_6  and  C_7
REMARK    7  A    between atoms: C_7  and  C_8
REMARK    8  A    between atoms: C_7  and  C_11
REMARK    9  A    between atoms: N_9  and  O_10
REMARK   10  A    between atoms: C_11  and  C_12
REMARK   11  A    between atoms: C_11  and  O_13
REMARK   12  A    between atoms: C_11  and  C_14
REMARK   13  A    between atoms: C_14  and  C_15
REMARK   14  A    between atoms: C_15  and  C_16
REMARK                            x       y       z     vdW  Elec       q    Type
REMARK                         _______ _______ _______ _____ _____    ______ ____
ROOT
ATOM      1  C   UNL     1       5.673   5.691  17.880  0.00  0.00    +0.000 C 
ENDROOT
BRANCH   1   2
ATOM      2  C   UNL     1       6.834   5.832  18.849  0.00  0.00    +0.000 C 
ATOM      3  N   UNL     1       6.880   5.165  19.959  0.00  0.00    +0.000 NA
BRANCH   3   4
ATOM      4  O   UNL     1       8.066   5.478  20.632  0.00  0.00    +0.000 OA
ATOM      5  H   UNL     1       8.170   4.719  21.240  0.00  0.00    +0.000 HD
ENDBRANCH   3   4
ENDBRANCH   1   2
BRANCH   1   6
ATOM      6  C   UNL     1       6.060   4.713  16.717  0.00  0.00    +0.000 C 
ATOM      7  C   UNL     1       7.574   4.443  16.711  0.00  0.00    +0.000 C 
BRANCH   6   8
ATOM      8  O   UNL     1       5.388   3.461  16.875  0.00  0.00    +0.000 OA
ATOM      9  H   UNL     1       5.677   3.061  17.717  0.00  0.00    +0.000 HD
ENDBRANCH   6   8
BRANCH   6  10
ATOM     10  C   UNL     1       5.612   5.296  15.350  0.00  0.00    +0.000 C 
BRANCH  10  11
ATOM     11  C   UNL     1       5.185   4.260  14.302  0.00  0.00    +0.000 C 
ATOM     12  C   UNL     1       6.335   3.921  13.364  0.00  0.00    +0.000 C 
ENDBRANCH  10  11
ENDBRANCH   6  10
ENDBRANCH   1   6
BRANCH   1  13
ATOM     13  C   UNL     1       4.385   5.293  18.638  0.00  0.00    +0.000 C 
BRANCH  13  14
ATOM     14  C   UNL     1       3.089   5.903  18.088  0.00  0.00    +0.000 C 
BRANCH  14  15
ATOM     15  C   UNL     1       2.000   4.863  17.817  0.00  0.00    +0.000 C 
BRANCH  15  16
ATOM     16  C   UNL     1       2.317   3.544  18.517  0.00  0.00    +0.000 C 
BRANCH  16  18
ATOM     17  C   UNL     1       1.181   3.551  20.758  0.00  0.00    +0.000 C 
ATOM     18  C   UNL     1       1.125   3.040  19.329  0.00  0.00    +0.000 C 
ENDBRANCH  16  18
ENDBRANCH  15  16
ENDBRANCH  14  15
ENDBRANCH  13  14
ENDBRANCH   1  13
TORSDOF 11
ENDMDL
MODEL 7
REMARK VINA RESULT:      -5.7      2.252      3.953
REMARK  Name = 
REMARK  14 active torsions:
REMARK  status: ('A' for Active; 'I' for Inactive)
REMARK    1  A    between atoms: C_1  and  C_2
REMARK    2  A    between atoms: C_2  and  C_3
REMARK    3  A    between atoms: C_3  and  C_4
REMARK    4  A    between atoms: C_4  and  C_5
REMARK    5  A    between atoms: C_5  and  C_6
REMARK    6  A    between atoms: C_6  and  C_7
REMARK    7  A    between atoms: C_7  and  C_8
REMARK    8  A    between atoms: C_7  and  C_11
REMARK    9  A    between atoms: N_9  and  O_10
REMARK   10  A    between atoms: C_11  and  C_12
REMARK   11  A    between atoms: C_11  and  O_13
REMARK   12  A    between atoms: C_11  and  C_14
REMARK   13  A    between atoms: C_14  and  C_15
REMARK   14  A    between atoms: C_15  and  C_16
REMARK                            x       y       z     vdW  Elec       q    Type
REMARK                         _______ _______ _______ _____ _____    ______ ____
ROOT
ATOM      1  C   UNL     1       4.612   4.085  17.438  0.00  0.00    +0.000 C 
ENDROOT
BRANCH   1   2
ATOM      2  C   UNL     1       5.506   4.306  16.230  0.00  0.00    +0.000 C 
ATOM      3  N   UNL     1       6.790   4.439  16.347  0.00  0.00    +0.000 NA
BRANCH   3   4
ATOM      4  O   UNL     1       7.350   4.608  15.077  0.00  0.00    +0.000 OA
ATOM      5  H   UNL     1       8.145   4.040  15.120  0.00  0.00    +0.000 HD
ENDBRANCH   3   4
ENDBRANCH   1   2
BRANCH   1   6
ATOM      6  C   UNL     1       4.383   5.440  18.192  0.00  0.00    +0.000 C 
ATOM      7  C   UNL     1       4.427   5.231  19.715  0.00  0.00    +0.000 C 
BRANCH   6   8
ATOM      8  O   UNL     1       5.401   6.381  17.845  0.00  0.00    +0.000 OA
ATOM      9  H   UNL     1       5.169   7.244  18.237  0.00  0.00    +0.000 HD
ENDBRANCH   6   8
BRANCH   6  10
ATOM     10  C   UNL     1       3.025   6.067  17.774  0.00  0.00    +0.000 C 
BRANCH  10  11
ATOM     11  C   UNL     1       2.505   7.178  18.695  0.00  0.00    +0.000 C 
ATOM     12  C   UNL     1       2.104   8.411  17.897  0.00  0.00    +0.000 C 
ENDBRANCH  10  11
ENDBRANCH   6  10
ENDBRANCH   1   6
BRANCH   1  13
ATOM     13  C   UNL     1       3.308   3.368  17.017  0.00  0.00    +0.000 C 
BRANCH  13  14
ATOM     14  C   UNL     1       3.056   2.017  17.699  0.00  0.00    +0.000 C 
BRANCH  14  15
ATOM     15  C   UNL     1       2.332   2.144  19.042  0.00  0.00    +0.000 C 
BRANCH  15  16
ATOM     16  C   UNL     1       1.130   3.079  18.927  0.00  0.00    +0.000 C 
BRANCH  16  18
ATOM     17  C   UNL     1       1.682   3.268  21.371  0.00  0.00    +0.000 C 
ATOM     18  C   UNL     1       0.925   3.886  20.209  0.00  0.00    +0.000 C 
ENDBRANCH  16  18
ENDBRANCH  15  16
ENDBRANCH  14  15
ENDBRANCH  13  14
ENDBRANCH   1  13
TORSDOF 11
ENDMDL
MODEL 8
REMARK VINA RESULT:      -5.7      1.036      1.245
REMARK  Name = 
REMARK  14 active torsions:
REMARK  status: ('A' for Active; 'I' for Inactive)
REMARK    1  A    between atoms: C_1  and  C_2
REMARK    2  A    between atoms: C_2  and  C_3
REMARK    3  A    between atoms: C_3  and  C_4
REMARK    4  A    between atoms: C_4  and  C_5
REMARK    5  A    between atoms: C_5  and  C_6
REMARK    6  A    between atoms: C_6  and  C_7
REMARK    7  A    between atoms: C_7  and  C_8
REMARK    8  A    between atoms: C_7  and  C_11
REMARK    9  A    between atoms: N_9  and  O_10
REMARK   10  A    between atoms: C_11  and  C_12
REMARK   11  A    between atoms: C_11  and  O_13
REMARK   12  A    between atoms: C_11  and  C_14
REMARK   13  A    between atoms: C_14  and  C_15
REMARK   14  A    between atoms: C_15  and  C_16
REMARK                            x       y       z     vdW  Elec       q    Type
REMARK                         _______ _______ _______ _____ _____    ______ ____
ROOT
ATOM      1  C   UNL     1       5.819   5.635  18.312  0.00  0.00    +0.000 C 
ENDROOT
BRANCH   1   2
ATOM      2  C   UNL     1       6.572   5.190  19.553  0.00  0.00    +0.000 C 
ATOM      3  N   UNL     1       7.719   5.700  19.875  0.00  0.00    +0.000 NA
BRANCH   3   4
ATOM      4  O   UNL     1       8.161   5.118  21.067  0.00  0.00    +0.000 OA
ATOM      5  H   UNL     1       7.377   4.609  21.357  0.00  0.00    +0.000 HD
ENDBRANCH   3   4
ENDBRANCH   1   2
BRANCH   1   6
ATOM      6  C   UNL     1       6.763   5.575  17.061  0.00  0.00    +0.000 C 
ATOM      7  C   UNL     1       7.396   6.949  16.788  0.00  0.00    +0.000 C 
BRANCH   6   8
ATOM      8  O   UNL     1       7.820   4.637  17.279  0.00  0.00    +0.000 OA
ATOM      9  H   UNL     1       8.669   5.115  17.235  0.00  0.00    +0.000 HD
ENDBRANCH   6   8
BRANCH   6  10
ATOM     10  C   UNL     1       5.976   5.087  15.815  0.00  0.00    +0.000 C 
BRANCH  10  11
ATOM     11  C   UNL     1       6.830   4.785  14.576  0.00  0.00    +0.000 C 
ATOM     12  C   UNL     1       6.094   3.867  13.612  0.00  0.00    +0.000 C 
ENDBRANCH  10  11
ENDBRANCH   6  10
ENDBRANCH   1   6
BRANCH   1  13
ATOM     13  C   UNL     1       4.512   4.823  18.156  0.00  0.00    +0.000 C 
BRANCH  13  14
ATOM     14  C   UNL     1       3.229   5.661  18.073  0.00  0.00    +0.000 C 
BRANCH  14  15
ATOM     15  C   UNL     1       1.955   4.837  18.274  0.00  0.00    +0.000 C 
BRANCH  15  16
ATOM     16  C   UNL     1       1.720   4.548  19.756  0.00  0.00    +0.000 C 
BRANCH  16  18
ATOM     17  C   UNL     1       1.143   2.286  18.827  0.00  0.00    +0.000 C 
ATOM     18  C   UNL     1       0.899   3.274  19.954  0.00  0.00    +0.000 C 
ENDBRANCH  16  18
ENDBRANCH  15  16
ENDBRANCH  14  15
ENDBRANCH  13  14
ENDBRANCH   1  13
TORSDOF 11
ENDMDL
MODEL 9
REMARK VINA RESULT:      -5.7      1.788      4.869
REMARK  Name = 
REMARK  14 active torsions:
REMARK  status: ('A' for Active; 'I' for Inactive)
REMARK    1  A    between atoms: C_1  and  C_2
REMARK    2  A    between atoms: C_2  and  C_3
REMARK    3  A    between atoms: C_3  and  C_4
REMARK    4  A    between atoms: C_4  and  C_5
REMARK    5  A    between atoms: C_5  and  C_6
REMARK    6  A    between atoms: C_6  and  C_7
REMARK    7  A    between atoms: C_7  and  C_8
REMARK    8  A    between atoms: C_7  and  C_11
REMARK    9  A    between atoms: N_9  and  O_10
REMARK   10  A    between atoms: C_11  and  C_12
REMARK   11  A    between atoms: C_11  and  O_13
REMARK   12  A    between atoms: C_11  and  C_14
REMARK   13  A    between atoms: C_14  and  C_15
REMARK   14  A    between atoms: C_15  and  C_16
REMARK                            x       y       z     vdW  Elec       q    Type
REMARK                         _______ _______ _______ _____ _____    ______ ____
ROOT
ATOM      1  C   UNL     1       5.290   5.016  17.951  0.00  0.00    +0.000 C 
ENDROOT
BRANCH   1   2
ATOM      2  C   UNL     1       6.124   5.259  19.197  0.00  0.00    +0.000 C 
ATOM      3  N   UNL     1       7.416   5.166  19.182  0.00  0.00    +0.000 NA
BRANCH   3   4
ATOM      4  O   UNL     1       7.911   5.461  20.457  0.00  0.00    +0.000 OA
ATOM      5  H   UNL     1       7.483   6.318  20.656  0.00  0.00    +0.000 HD
ENDBRANCH   3   4
ENDBRANCH   1   2
BRANCH   1   6
ATOM      6  C   UNL     1       3.835   4.593  18.352  0.00  0.00    +0.000 C 
ATOM      7  C   UNL     1       3.443   3.272  17.670  0.00  0.00    +0.000 C 
BRANCH   6   8
ATOM      8  O   UNL     1       3.743   4.403  19.766  0.00  0.00    +0.000 OA
ATOM      9  H   UNL     1       4.636   4.501  20.149  0.00  0.00    +0.000 HD
ENDBRANCH   6   8
BRANCH   6  10
ATOM     10  C   UNL     1       2.825   5.712  17.980  0.00  0.00    +0.000 C 
BRANCH  10  11
ATOM     11  C   UNL     1       2.553   6.744  19.082  0.00  0.00    +0.000 C 
ATOM     12  C   UNL     1       2.280   8.120  18.492  0.00  0.00    +0.000 C 
ENDBRANCH  10  11
ENDBRANCH   6  10
ENDBRANCH   1   6
BRANCH   1  13
ATOM     13  C   UNL     1       5.354   6.245  17.014  0.00  0.00    +0.000 C 
BRANCH  13  14
ATOM     14  C   UNL     1       5.420   5.920  15.515  0.00  0.00    +0.000 C 
BRANCH  14  15
ATOM     15  C   UNL     1       6.569   4.977  15.152  0.00  0.00    +0.000 C 
BRANCH  15  16
ATOM     16  C   UNL     1       6.053   3.751  14.402  0.00  0.00    +0.000 C 
BRANCH  16  18
ATOM     17  C   UNL     1       5.306   3.265  12.053  0.00  0.00    +0.000 C 
ATOM     18  C   UNL     1       6.431   3.799  12.922  0.00  0.00    +0.000 C 
ENDBRANCH  16  18
ENDBRANCH  15  16
ENDBRANCH  14  15
ENDBRANCH  13  14
ENDBRANCH   1  13
TORSDOF 11
ENDMDL
