MODEL 1
REMARK VINA RESULT:      -8.3      0.000      0.000
REMARK  Name = 
REMARK  6 active torsions:
REMARK  status: ('A' for Active; 'I' for Inactive)
REMARK    1  A    between atoms: C_1  and  C_2
REMARK    2  A    between atoms: N_7  and  S_8
REMARK    3  A    between atoms: S_8  and  C_11
REMARK    4  A    between atoms: C_14  and  N_15
REMARK    5  A    between atoms: C_16  and  C_18
REMARK    6  A    between atoms: C_20  and  C_21
REMARK                            x       y       z     vdW  Elec       q    Type
REMARK                         _______ _______ _______ _____ _____    ______ ____
ROOT
ATOM      1  C   UNL     1       1.552   8.321  20.016  0.00  0.00    +0.000 A 
ATOM      2  C   UNL     1       2.112   7.084  20.316  0.00  0.00    +0.000 A 
ATOM      3  C   UNL     1       2.932   6.455  19.377  0.00  0.00    +0.000 A 
ATOM      4  C   UNL     1       3.191   7.047  18.136  0.00  0.00    +0.000 A 
ATOM      5  C   UNL     1       2.635   8.299  17.854  0.00  0.00    +0.000 A 
ATOM      6  C   UNL     1       1.804   8.934  18.784  0.00  0.00    +0.000 A 
ENDROOT
BRANCH   4   7
ATOM      7  N   UNL     1       3.996   6.419  17.166  0.00  0.00    +0.000 N 
ATOM      8  C   UNL     1       5.378   6.543  17.049  0.00  0.00    +0.000 C 
ATOM      9  O   UNL     1       6.110   7.188  17.799  0.00  0.00    +0.000 OA
ATOM     10  H   UNL     1       3.568   5.745  16.542  0.00  0.00    +0.000 HD
BRANCH   8  11
ATOM     11  C   UNL     1       5.965   5.782  15.946  0.00  0.00    +0.000 A 
ATOM     12  C   UNL     1       5.285   4.867  15.101  0.00  0.00    +0.000 A 
ATOM     13  C   UNL     1       6.224   4.479  14.175  0.00  0.00    +0.000 A 
ATOM     14  O   UNL     1       7.409   5.077  14.486  0.00  0.00    +0.000 OA
ATOM     15  N   UNL     1       7.256   5.899  15.593  0.00  0.00    +0.000 NA
BRANCH  13  16
ATOM     16  C   UNL     1       6.207   3.639  12.979  0.00  0.00    +0.000 A 
ATOM     17  C   UNL     1       7.402   3.215  12.372  0.00  0.00    +0.000 A 
ATOM     18  C   UNL     1       7.382   2.354  11.272  0.00  0.00    +0.000 A 
ATOM     19  C   UNL     1       6.168   1.913  10.753  0.00  0.00    +0.000 A 
ATOM     20  C   UNL     1       4.973   2.339  11.327  0.00  0.00    +0.000 A 
ATOM     21  C   UNL     1       4.995   3.198  12.430  0.00  0.00    +0.000 A 
ENDBRANCH  13  16
ENDBRANCH   8  11
ENDBRANCH   4   7
BRANCH   1  22
ATOM     22  S   UNL     1       0.516   9.097  21.228  0.00  0.00    +0.000 S 
ATOM     23  O   UNL     1       1.404   9.646  22.234  0.00  0.00    +0.000 OA
ATOM     24  O   UNL     1      -0.528   8.169  21.605  0.00  0.00    +0.000 OA
BRANCH  22  31
ATOM     25  C   UNL     1       2.791  14.154  20.160  0.00  0.00    +0.000 C 
ATOM     26  C   UNL     1       1.582  13.489  20.745  0.00  0.00    +0.000 A 
ATOM     27  C   UNL     1       0.795  14.150  21.670  0.00  0.00    +0.000 A 
ATOM     28  C   UNL     1      -0.286  13.452  22.163  0.00  0.00    +0.000 A 
ATOM     29  N   UNL     1      -0.579  12.190  21.808  0.00  0.00    +0.000 NA
ATOM     30  C   UNL     1       0.241  11.654  20.902  0.00  0.00    +0.000 A 
ATOM     31  N   UNL     1      -0.128  10.403  20.423  0.00  0.00    +0.000 N 
ATOM     32  N   UNL     1       1.296  12.235  20.322  0.00  0.00    +0.000 NA
ATOM     33  H   UNL     1      -0.104  10.307  19.416  0.00  0.00    +0.000 HD
ENDBRANCH  22  31
ENDBRANCH   1  22
TORSDOF 5
ENDMDL
MODEL 2
REMARK VINA RESULT:      -8.3      2.615     11.759
REMARK  Name = 
REMARK  6 active torsions:
REMARK  status: ('A' for Active; 'I' for Inactive)
REMARK    1  A    between atoms: C_1  and  C_2
REMARK    2  A    between atoms: N_7  and  S_8
REMARK    3  A    between atoms: S_8  and  C_11
REMARK    4  A    between atoms: C_14  and  N_15
REMARK    5  A    between atoms: C_16  and  C_18
REMARK    6  A    between atoms: C_20  and  C_21
REMARK                            x       y       z     vdW  Elec       q    Type
REMARK                         _______ _______ _______ _____ _____    ______ ____
ROOT
ATOM      1  C   UNL     1       4.036   5.619  17.919  0.00  0.00    +0.000 A 
ATOM      2  C   UNL     1       3.541   5.088  19.105  0.00  0.00    +0.000 A 
ATOM      3  C   UNL     1       2.806   5.903  19.970  0.00  0.00    +0.000 A 
ATOM      4  C   UNL     1       2.570   7.247  19.664  0.00  0.00    +0.000 A 
ATOM      5  C   UNL     1       3.059   7.765  18.460  0.00  0.00    +0.000 A 
ATOM      6  C   UNL     1       3.805   6.959  17.591  0.00  0.00    +0.000 A 
ENDROOT
BRANCH   4   7
ATOM      7  N   UNL     1       1.852   8.092  20.533  0.00  0.00    +0.000 N 
ATOM      8  C   UNL     1       1.104   9.204  20.154  0.00  0.00    +0.000 C 
ATOM      9  O   UNL     1       0.923   9.593  19.001  0.00  0.00    +0.000 OA
ATOM     10  H   UNL     1       1.788   7.840  21.512  0.00  0.00    +0.000 HD
BRANCH   8  11
ATOM     11  C   UNL     1       0.460   9.908  21.263  0.00  0.00    +0.000 A 
ATOM     12  C   UNL     1      -0.300  11.104  21.172  0.00  0.00    +0.000 A 
ATOM     13  C   UNL     1      -0.765  11.324  22.446  0.00  0.00    +0.000 A 
ATOM     14  O   UNL     1      -0.263  10.353  23.262  0.00  0.00    +0.000 OA
ATOM     15  N   UNL     1       0.504   9.460  22.529  0.00  0.00    +0.000 NA
BRANCH  13  16
ATOM     16  C   UNL     1      -1.661  12.300  23.062  0.00  0.00    +0.000 A 
ATOM     17  C   UNL     1      -2.941  11.928  23.512  0.00  0.00    +0.000 A 
ATOM     18  C   UNL     1      -3.766  12.847  24.164  0.00  0.00    +0.000 A 
ATOM     19  C   UNL     1      -3.332  14.154  24.368  0.00  0.00    +0.000 A 
ATOM     20  C   UNL     1      -2.077  14.547  23.912  0.00  0.00    +0.000 A 
ATOM     21  C   UNL     1      -1.250  13.625  23.261  0.00  0.00    +0.000 A 
ENDBRANCH  13  16
ENDBRANCH   8  11
ENDBRANCH   4   7
BRANCH   1  22
ATOM     22  S   UNL     1       4.964   4.561  16.840  0.00  0.00    +0.000 S 
ATOM     23  O   UNL     1       4.177   3.354  16.676  0.00  0.00    +0.000 OA
ATOM     24  O   UNL     1       6.324   4.486  17.326  0.00  0.00    +0.000 OA
BRANCH  22  31
ATOM     25  C   UNL     1       5.505   2.482  11.617  0.00  0.00    +0.000 C 
ATOM     26  C   UNL     1       6.035   3.534  12.544  0.00  0.00    +0.000 A 
ATOM     27  C   UNL     1       7.298   4.064  12.356  0.00  0.00    +0.000 A 
ATOM     28  C   UNL     1       7.705   5.013  13.267  0.00  0.00    +0.000 A 
ATOM     29  N   UNL     1       6.954   5.413  14.308  0.00  0.00    +0.000 NA
ATOM     30  C   UNL     1       5.750   4.844  14.387  0.00  0.00    +0.000 A 
ATOM     31  N   UNL     1       4.911   5.345  15.373  0.00  0.00    +0.000 N 
ATOM     32  N   UNL     1       5.226   3.942  13.550  0.00  0.00    +0.000 NA
ATOM     33  H   UNL     1       3.972   5.562  15.067  0.00  0.00    +0.000 HD
ENDBRANCH  22  31
ENDBRANCH   1  22
TORSDOF 5
ENDMDL
MODEL 3
REMARK VINA RESULT:      -8.2      3.209     12.297
REMARK  Name = 
REMARK  6 active torsions:
REMARK  status: ('A' for Active; 'I' for Inactive)
REMARK    1  A    between atoms: C_1  and  C_2
REMARK    2  A    between atoms: N_7  and  S_8
REMARK    3  A    between atoms: S_8  and  C_11
REMARK    4  A    between atoms: C_14  and  N_15
REMARK    5  A    between atoms: C_16  and  C_18
REMARK    6  A    between atoms: C_20  and  C_21
REMARK                            x       y       z     vdW  Elec       q    Type
REMARK                         _______ _______ _______ _____ _____    ______ ____
ROOT
ATOM      1  C   UNL     1       2.091   7.438  19.414  0.00  0.00    +0.000 A 
ATOM      2  C   UNL     1       1.625   7.324  20.720  0.00  0.00    +0.000 A 
ATOM      3  C   UNL     1       0.894   8.372  21.283  0.00  0.00    +0.000 A 
ATOM      4  C   UNL     1       0.632   9.538  20.555  0.00  0.00    +0.000 A 
ATOM      5  C   UNL     1       1.092   9.633  19.238  0.00  0.00    +0.000 A 
ATOM      6  C   UNL     1       1.834   8.592  18.667  0.00  0.00    +0.000 A 
ENDROOT
BRANCH   4   7
ATOM      7  N   UNL     1      -0.083  10.616  21.112  0.00  0.00    +0.000 N 
ATOM      8  C   UNL     1      -0.336  10.814  22.467  0.00  0.00    +0.000 C 
ATOM      9  O   UNL     1       0.060  10.098  23.387  0.00  0.00    +0.000 OA
ATOM     10  H   UNL     1      -0.374  11.373  20.503  0.00  0.00    +0.000 HD
BRANCH   8  11
ATOM     11  C   UNL     1      -1.108  12.019  22.772  0.00  0.00    +0.000 A 
ATOM     12  C   UNL     1      -2.516  12.166  22.662  0.00  0.00    +0.000 A 
ATOM     13  C   UNL     1      -2.775  13.429  23.137  0.00  0.00    +0.000 A 
ATOM     14  O   UNL     1      -1.589  14.023  23.453  0.00  0.00    +0.000 OA
ATOM     15  N   UNL     1      -0.538  13.146  23.230  0.00  0.00    +0.000 NA
BRANCH  13  16
ATOM     16  C   UNL     1      -3.986  14.205  23.394  0.00  0.00    +0.000 A 
ATOM     17  C   UNL     1      -5.262  13.658  23.163  0.00  0.00    +0.000 A 
ATOM     18  C   UNL     1      -6.417  14.378  23.477  0.00  0.00    +0.000 A 
ATOM     19  C   UNL     1      -6.319  15.657  24.015  0.00  0.00    +0.000 A 
ATOM     20  C   UNL     1      -5.066  16.224  24.232  0.00  0.00    +0.000 A 
ATOM     21  C   UNL     1      -3.909  15.502  23.920  0.00  0.00    +0.000 A 
ENDBRANCH  13  16
ENDBRANCH   8  11
ENDBRANCH   4   7
BRANCH   1  22
ATOM     22  S   UNL     1       3.016   6.090  18.725  0.00  0.00    +0.000 S 
ATOM     23  O   UNL     1       2.117   5.397  17.824  0.00  0.00    +0.000 OA
ATOM     24  O   UNL     1       3.663   5.376  19.804  0.00  0.00    +0.000 OA
BRANCH  22  31
ATOM     25  C   UNL     1       5.935   4.046  14.345  0.00  0.00    +0.000 C 
ATOM     26  C   UNL     1       6.091   4.753  15.657  0.00  0.00    +0.000 A 
ATOM     27  C   UNL     1       7.283   4.686  16.354  0.00  0.00    +0.000 A 
ATOM     28  C   UNL     1       7.326   5.354  17.558  0.00  0.00    +0.000 A 
ATOM     29  N   UNL     1       6.281   6.027  18.071  0.00  0.00    +0.000 NA
ATOM     30  C   UNL     1       5.186   6.035  17.309  0.00  0.00    +0.000 A 
ATOM     31  N   UNL     1       4.146   6.838  17.760  0.00  0.00    +0.000 N 
ATOM     32  N   UNL     1       5.029   5.459  16.113  0.00  0.00    +0.000 NA
ATOM     33  H   UNL     1       3.740   7.444  17.059  0.00  0.00    +0.000 HD
ENDBRANCH  22  31
ENDBRANCH   1  22
TORSDOF 5
ENDMDL
MODEL 4
REMARK VINA RESULT:      -8.2      1.330      2.112
REMARK  Name = 
REMARK  6 active torsions:
REMARK  status: ('A' for Active; 'I' for Inactive)
REMARK    1  A    between atoms: C_1  and  C_2
REMARK    2  A    between atoms: N_7  and  S_8
REMARK    3  A    between atoms: S_8  and  C_11
REMARK    4  A    between atoms: C_14  and  N_15
REMARK    5  A    between atoms: C_16  and  C_18
REMARK    6  A    between atoms: C_20  and  C_21
REMARK                            x       y       z     vdW  Elec       q    Type
REMARK                         _______ _______ _______ _____ _____    ______ ____
ROOT
ATOM      1  C   UNL     1       1.668   8.390  20.075  0.00  0.00    +0.000 A 
ATOM      2  C   UNL     1       1.912   9.045  18.873  0.00  0.00    +0.000 A 
ATOM      3  C   UNL     1       2.676   8.415  17.889  0.00  0.00    +0.000 A 
ATOM      4  C   UNL     1       3.206   7.138  18.098  0.00  0.00    +0.000 A 
ATOM      5  C   UNL     1       2.940   6.482  19.305  0.00  0.00    +0.000 A 
ATOM      6  C   UNL     1       2.183   7.110  20.302  0.00  0.00    +0.000 A 
ENDROOT
BRANCH   4   7
ATOM      7  N   UNL     1       3.999   6.494  17.128  0.00  0.00    +0.000 N 
ATOM      8  C   UNL     1       5.390   6.440  17.118  0.00  0.00    +0.000 C 
ATOM      9  O   UNL     1       6.137   6.911  17.975  0.00  0.00    +0.000 OA
ATOM     10  H   UNL     1       3.539   5.941  16.414  0.00  0.00    +0.000 HD
BRANCH   8  11
ATOM     11  C   UNL     1       5.961   5.705  15.988  0.00  0.00    +0.000 A 
ATOM     12  C   UNL     1       5.274   4.794  15.144  0.00  0.00    +0.000 A 
ATOM     13  C   UNL     1       6.196   4.435  14.190  0.00  0.00    +0.000 A 
ATOM     14  O   UNL     1       7.379   5.046  14.482  0.00  0.00    +0.000 OA
ATOM     15  N   UNL     1       7.242   5.846  15.606  0.00  0.00    +0.000 NA
BRANCH  13  16
ATOM     16  C   UNL     1       6.161   3.616  12.981  0.00  0.00    +0.000 A 
ATOM     17  C   UNL     1       7.347   3.151  12.384  0.00  0.00    +0.000 A 
ATOM     18  C   UNL     1       7.307   2.309  11.270  0.00  0.00    +0.000 A 
ATOM     19  C   UNL     1       6.084   1.927  10.727  0.00  0.00    +0.000 A 
ATOM     20  C   UNL     1       4.899   2.394  11.291  0.00  0.00    +0.000 A 
ATOM     21  C   UNL     1       4.940   3.235  12.407  0.00  0.00    +0.000 A 
ENDBRANCH  13  16
ENDBRANCH   8  11
ENDBRANCH   4   7
BRANCH   1  22
ATOM     22  S   UNL     1       0.693   9.215  21.306  0.00  0.00    +0.000 S 
ATOM     23  O   UNL     1       1.502   9.251  22.509  0.00  0.00    +0.000 OA
ATOM     24  O   UNL     1      -0.623   8.616  21.330  0.00  0.00    +0.000 OA
BRANCH  22  31
ATOM     25  C   UNL     1      -3.187  13.188  22.329  0.00  0.00    +0.000 C 
ATOM     26  C   UNL     1      -2.464  12.483  21.222  0.00  0.00    +0.000 A 
ATOM     27  C   UNL     1      -3.015  12.412  19.956  0.00  0.00    +0.000 A 
ATOM     28  C   UNL     1      -2.284  11.731  19.008  0.00  0.00    +0.000 A 
ATOM     29  N   UNL     1      -1.107  11.135  19.265  0.00  0.00    +0.000 NA
ATOM     30  C   UNL     1      -0.665  11.275  20.516  0.00  0.00    +0.000 A 
ATOM     31  N   UNL     1       0.611  10.784  20.761  0.00  0.00    +0.000 N 
ATOM     32  N   UNL     1      -1.258  11.939  21.513  0.00  0.00    +0.000 NA
ATOM     33  H   UNL     1       1.224  11.417  21.259  0.00  0.00    +0.000 HD
ENDBRANCH  22  31
ENDBRANCH   1  22
TORSDOF 5
ENDMDL
MODEL 5
REMARK VINA RESULT:      -8.2      6.240     10.166
REMARK  Name = 
REMARK  6 active torsions:
REMARK  status: ('A' for Active; 'I' for Inactive)
REMARK    1  A    between atoms: C_1  and  C_2
REMARK    2  A    between atoms: N_7  and  S_8
REMARK    3  A    between atoms: S_8  and  C_11
REMARK    4  A    between atoms: C_14  and  N_15
REMARK    5  A    between atoms: C_16  and  C_18
REMARK    6  A    between atoms: C_20  and  C_21
REMARK                            x       y       z     vdW  Elec       q    Type
REMARK                         _______ _______ _______ _____ _____    ______ ____
ROOT
ATOM      1  C   UNL     1       6.555   6.164  17.989  0.00  0.00    +0.000 A 
ATOM      2  C   UNL     1       6.141   7.240  17.211  0.00  0.00    +0.000 A 
ATOM      3  C   UNL     1       6.903   8.410  17.196  0.00  0.00    +0.000 A 
ATOM      4  C   UNL     1       8.071   8.519  17.959  0.00  0.00    +0.000 A 
ATOM      5  C   UNL     1       8.484   7.424  18.724  0.00  0.00    +0.000 A 
ATOM      6  C   UNL     1       7.722   6.249  18.754  0.00  0.00    +0.000 A 
ENDROOT
BRANCH   4   7
ATOM      7  N   UNL     1       8.841   9.698  17.976  0.00  0.00    +0.000 N 
ATOM      8  C   UNL     1       9.206  10.416  19.112  0.00  0.00    +0.000 C 
ATOM      9  O   UNL     1       8.947  10.108  20.274  0.00  0.00    +0.000 OA
ATOM     10  H   UNL     1       9.249  10.025  17.108  0.00  0.00    +0.000 HD
BRANCH   8  11
ATOM     11  C   UNL     1      10.009  11.610  18.843  0.00  0.00    +0.000 A 
ATOM     12  C   UNL     1       9.520  12.873  18.417  0.00  0.00    +0.000 A 
ATOM     13  C   UNL     1      10.627  13.687  18.387  0.00  0.00    +0.000 A 
ATOM     14  O   UNL     1      11.720  12.940  18.716  0.00  0.00    +0.000 OA
ATOM     15  N   UNL     1      11.342  11.638  19.006  0.00  0.00    +0.000 NA
BRANCH  13  16
ATOM     16  C   UNL     1      10.856  15.107  18.130  0.00  0.00    +0.000 A 
ATOM     17  C   UNL     1      12.094  15.707  18.421  0.00  0.00    +0.000 A 
ATOM     18  C   UNL     1      12.332  17.048  18.107  0.00  0.00    +0.000 A 
ATOM     19  C   UNL     1      11.334  17.812  17.509  0.00  0.00    +0.000 A 
ATOM     20  C   UNL     1      10.095  17.241  17.232  0.00  0.00    +0.000 A 
ATOM     21  C   UNL     1       9.859  15.899  17.544  0.00  0.00    +0.000 A 
ENDBRANCH  13  16
ENDBRANCH   8  11
ENDBRANCH   4   7
BRANCH   1  22
ATOM     22  S   UNL     1       5.568   4.691  17.988  0.00  0.00    +0.000 S 
ATOM     23  O   UNL     1       6.007   3.905  19.124  0.00  0.00    +0.000 OA
ATOM     24  O   UNL     1       5.587   4.124  16.657  0.00  0.00    +0.000 OA
BRANCH  22  31
ATOM     25  C   UNL     1       1.921   2.784  21.856  0.00  0.00    +0.000 C 
ATOM     26  C   UNL     1       2.049   3.126  20.402  0.00  0.00    +0.000 A 
ATOM     27  C   UNL     1       1.203   2.556  19.469  0.00  0.00    +0.000 A 
ATOM     28  C   UNL     1       1.407   2.919  18.156  0.00  0.00    +0.000 A 
ATOM     29  N   UNL     1       2.377   3.761  17.761  0.00  0.00    +0.000 NA
ATOM     30  C   UNL     1       3.127   4.260  18.745  0.00  0.00    +0.000 A 
ATOM     31  N   UNL     1       4.042   5.234  18.369  0.00  0.00    +0.000 N 
ATOM     32  N   UNL     1       3.008   4.016  20.054  0.00  0.00    +0.000 NA
ATOM     33  H   UNL     1       4.043   6.065  18.946  0.00  0.00    +0.000 HD
ENDBRANCH  22  31
ENDBRANCH   1  22
TORSDOF 5
ENDMDL
MODEL 6
REMARK VINA RESULT:      -8.1      3.150     11.217
REMARK  Name = 
REMARK  6 active torsions:
REMARK  status: ('A' for Active; 'I' for Inactive)
REMARK    1  A    between atoms: C_1  and  C_2
REMARK    2  A    between atoms: N_7  and  S_8
REMARK    3  A    between atoms: S_8  and  C_11
REMARK    4  A    between atoms: C_14  and  N_15
REMARK    5  A    between atoms: C_16  and  C_18
REMARK    6  A    between atoms: C_20  and  C_21
REMARK                            x       y       z     vdW  Elec       q    Type
REMARK                         _______ _______ _______ _____ _____    ______ ____
ROOT
ATOM      1  C   UNL     1       2.648   5.003  18.893  0.00  0.00    +0.000 A 
ATOM      2  C   UNL     1       2.737   6.175  18.149  0.00  0.00    +0.000 A 
ATOM      3  C   UNL     1       2.321   7.382  18.714  0.00  0.00    +0.000 A 
ATOM      4  C   UNL     1       1.806   7.428  20.014  0.00  0.00    +0.000 A 
ATOM      5  C   UNL     1       1.736   6.245  20.757  0.00  0.00    +0.000 A 
ATOM      6  C   UNL     1       2.142   5.028  20.196  0.00  0.00    +0.000 A 
ENDROOT
BRANCH   4   7
ATOM      7  N   UNL     1       1.358   8.630  20.594  0.00  0.00    +0.000 N 
ATOM      8  C   UNL     1       0.723   9.672  19.923  0.00  0.00    +0.000 C 
ATOM      9  O   UNL     1       0.420   9.683  18.730  0.00  0.00    +0.000 OA
ATOM     10  H   UNL     1       1.413   8.734  21.601  0.00  0.00    +0.000 HD
BRANCH   8  11
ATOM     11  C   UNL     1       0.365  10.811  20.770  0.00  0.00    +0.000 A 
ATOM     12  C   UNL     1      -0.922  11.095  21.296  0.00  0.00    +0.000 A 
ATOM     13  C   UNL     1      -0.741  12.203  22.089  0.00  0.00    +0.000 A 
ATOM     14  O   UNL     1       0.562  12.594  21.993  0.00  0.00    +0.000 OA
ATOM     15  N   UNL     1       1.264  11.726  21.170  0.00  0.00    +0.000 NA
BRANCH  13  16
ATOM     16  C   UNL     1      -1.593  12.977  22.988  0.00  0.00    +0.000 A 
ATOM     17  C   UNL     1      -2.871  12.517  23.354  0.00  0.00    +0.000 A 
ATOM     18  C   UNL     1      -3.654  13.225  24.269  0.00  0.00    +0.000 A 
ATOM     19  C   UNL     1      -3.178  14.410  24.825  0.00  0.00    +0.000 A 
ATOM     20  C   UNL     1      -1.924  14.892  24.460  0.00  0.00    +0.000 A 
ATOM     21  C   UNL     1      -1.141  14.182  23.546  0.00  0.00    +0.000 A 
ENDBRANCH  13  16
ENDBRANCH   8  11
ENDBRANCH   4   7
BRANCH   1  22
ATOM     22  S   UNL     1       3.185   3.485  18.149  0.00  0.00    +0.000 S 
ATOM     23  O   UNL     1       2.993   3.640  16.721  0.00  0.00    +0.000 OA
ATOM     24  O   UNL     1       2.568   2.383  18.854  0.00  0.00    +0.000 OA
BRANCH  22  31
ATOM     25  C   UNL     1       6.946   7.627  17.378  0.00  0.00    +0.000 C 
ATOM     26  C   UNL     1       6.655   6.199  17.030  0.00  0.00    +0.000 A 
ATOM     27  C   UNL     1       7.202   5.627  15.896  0.00  0.00    +0.000 A 
ATOM     28  C   UNL     1       6.866   4.314  15.650  0.00  0.00    +0.000 A 
ATOM     29  N   UNL     1       6.037   3.601  16.432  0.00  0.00    +0.000 NA
ATOM     30  C   UNL     1       5.576   4.249  17.504  0.00  0.00    +0.000 A 
ATOM     31  N   UNL     1       4.831   3.485  18.393  0.00  0.00    +0.000 N 
ATOM     32  N   UNL     1       5.855   5.503  17.872  0.00  0.00    +0.000 NA
ATOM     33  H   UNL     1       5.095   3.582  19.365  0.00  0.00    +0.000 HD
ENDBRANCH  22  31
ENDBRANCH   1  22
TORSDOF 5
ENDMDL
MODEL 7
REMARK VINA RESULT:      -8.1      2.583      3.471
REMARK  Name = 
REMARK  6 active torsions:
REMARK  status: ('A' for Active; 'I' for Inactive)
REMARK    1  A    between atoms: C_1  and  C_2
REMARK    2  A    between atoms: N_7  and  S_8
REMARK    3  A    between atoms: S_8  and  C_11
REMARK    4  A    between atoms: C_14  and  N_15
REMARK    5  A    between atoms: C_16  and  C_18
REMARK    6  A    between atoms: C_20  and  C_21
REMARK                            x       y       z     vdW  Elec       q    Type
REMARK                         _______ _______ _______ _____ _____    ______ ____
ROOT
ATOM      1  C   UNL     1       0.761  10.244  20.061  0.00  0.00    +0.000 A 
ATOM      2  C   UNL     1       1.043   9.013  20.643  0.00  0.00    +0.000 A 
ATOM      3  C   UNL     1       1.769   8.062  19.923  0.00  0.00    +0.000 A 
ATOM      4  C   UNL     1       2.209   8.327  18.622  0.00  0.00    +0.000 A 
ATOM      5  C   UNL     1       1.932   9.575  18.053  0.00  0.00    +0.000 A 
ATOM      6  C   UNL     1       1.196  10.531  18.763  0.00  0.00    +0.000 A 
ENDROOT
BRANCH   4   7
ATOM      7  N   UNL     1       2.922   7.373  17.870  0.00  0.00    +0.000 N 
ATOM      8  C   UNL     1       3.622   6.286  18.386  0.00  0.00    +0.000 C 
ATOM      9  O   UNL     1       3.690   5.970  19.574  0.00  0.00    +0.000 OA
ATOM     10  H   UNL     1       2.864   7.409  16.858  0.00  0.00    +0.000 HD
BRANCH   8  11
ATOM     11  C   UNL     1       4.278   5.452  17.379  0.00  0.00    +0.000 A 
ATOM     12  C   UNL     1       4.687   5.863  16.083  0.00  0.00    +0.000 A 
ATOM     13  C   UNL     1       5.326   4.768  15.551  0.00  0.00    +0.000 A 
ATOM     14  O   UNL     1       5.248   3.746  16.450  0.00  0.00    +0.000 OA
ATOM     15  N   UNL     1       4.596   4.165  17.600  0.00  0.00    +0.000 NA
BRANCH  13  16
ATOM     16  C   UNL     1       6.058   4.502  14.315  0.00  0.00    +0.000 A 
ATOM     17  C   UNL     1       5.577   3.576  13.372  0.00  0.00    +0.000 A 
ATOM     18  C   UNL     1       6.243   3.377  12.160  0.00  0.00    +0.000 A 
ATOM     19  C   UNL     1       7.403   4.090  11.875  0.00  0.00    +0.000 A 
ATOM     20  C   UNL     1       7.906   4.997  12.805  0.00  0.00    +0.000 A 
ATOM     21  C   UNL     1       7.238   5.197  14.017  0.00  0.00    +0.000 A 
ENDBRANCH  13  16
ENDBRANCH   8  11
ENDBRANCH   4   7
BRANCH   1  22
ATOM     22  S   UNL     1      -0.163  11.433  20.999  0.00  0.00    +0.000 S 
ATOM     23  O   UNL     1       0.812  12.257  21.685  0.00  0.00    +0.000 OA
ATOM     24  O   UNL     1      -1.186  10.735  21.747  0.00  0.00    +0.000 OA
BRANCH  22  31
ATOM     25  C   UNL     1      -5.479  13.278  20.529  0.00  0.00    +0.000 C 
ATOM     26  C   UNL     1      -4.389  12.575  19.778  0.00  0.00    +0.000 A 
ATOM     27  C   UNL     1      -4.691  11.740  18.719  0.00  0.00    +0.000 A 
ATOM     28  C   UNL     1      -3.624  11.126  18.099  0.00  0.00    +0.000 A 
ATOM     29  N   UNL     1      -2.348  11.287  18.489  0.00  0.00    +0.000 NA
ATOM     30  C   UNL     1      -2.171  12.123  19.514  0.00  0.00    +0.000 A 
ATOM     31  N   UNL     1      -0.851  12.406  19.838  0.00  0.00    +0.000 N 
ATOM     32  N   UNL     1      -3.114  12.804  20.172  0.00  0.00    +0.000 NA
ATOM     33  H   UNL     1      -0.642  13.388  19.960  0.00  0.00    +0.000 HD
ENDBRANCH  22  31
ENDBRANCH   1  22
TORSDOF 5
ENDMDL
MODEL 8
REMARK VINA RESULT:      -8.0      4.260     12.393
REMARK  Name = 
REMARK  6 active torsions:
REMARK  status: ('A' for Active; 'I' for Inactive)
REMARK    1  A    between atoms: C_1  and  C_2
REMARK    2  A    between atoms: N_7  and  S_8
REMARK    3  A    between atoms: S_8  and  C_11
REMARK    4  A    between atoms: C_14  and  N_15
REMARK    5  A    between atoms: C_16  and  C_18
REMARK    6  A    between atoms: C_20  and  C_21
REMARK                            x       y       z     vdW  Elec       q    Type
REMARK                         _______ _______ _______ _____ _____    ______ ____
ROOT
ATOM      1  C   UNL     1       2.000   8.089  19.151  0.00  0.00    +0.000 A 
ATOM      2  C   UNL     1       1.607   7.834  20.461  0.00  0.00    +0.000 A 
ATOM      3  C   UNL     1       0.762   8.734  21.113  0.00  0.00    +0.000 A 
ATOM      4  C   UNL     1       0.312   9.893  20.470  0.00  0.00    +0.000 A 
ATOM      5  C   UNL     1       0.700  10.129  19.147  0.00  0.00    +0.000 A 
ATOM      6  C   UNL     1       1.556   9.237  18.488  0.00  0.00    +0.000 A 
ENDROOT
BRANCH   4   7
ATOM      7  N   UNL     1      -0.522  10.825  21.117  0.00  0.00    +0.000 N 
ATOM      8  C   UNL     1      -0.601  11.031  22.492  0.00  0.00    +0.000 C 
ATOM      9  O   UNL     1       0.073  10.458  23.348  0.00  0.00    +0.000 OA
ATOM     10  H   UNL     1      -1.056  11.475  20.552  0.00  0.00    +0.000 HD
BRANCH   8  11
ATOM     11  C   UNL     1      -1.555  12.064  22.898  0.00  0.00    +0.000 A 
ATOM     12  C   UNL     1      -2.961  12.032  22.707  0.00  0.00    +0.000 A 
ATOM     13  C   UNL     1      -3.427  13.167  23.325  0.00  0.00    +0.000 A 
ATOM     14  O   UNL     1      -2.358  13.866  23.803  0.00  0.00    +0.000 OA
ATOM     15  N   UNL     1      -1.181  13.182  23.542  0.00  0.00    +0.000 NA
BRANCH  13  16
ATOM     16  C   UNL     1      -4.750  13.726  23.594  0.00  0.00    +0.000 A 
ATOM     17  C   UNL     1      -4.983  15.111  23.517  0.00  0.00    +0.000 A 
ATOM     18  C   UNL     1      -6.265  15.633  23.704  0.00  0.00    +0.000 A 
ATOM     19  C   UNL     1      -7.331  14.784  23.983  0.00  0.00    +0.000 A 
ATOM     20  C   UNL     1      -7.117  13.412  24.084  0.00  0.00    +0.000 A 
ATOM     21  C   UNL     1      -5.834  12.889  23.894  0.00  0.00    +0.000 A 
ENDBRANCH  13  16
ENDBRANCH   8  11
ENDBRANCH   4   7
BRANCH   1  22
ATOM     22  S   UNL     1       3.073   6.927  18.348  0.00  0.00    +0.000 S 
ATOM     23  O   UNL     1       3.963   6.418  19.372  0.00  0.00    +0.000 OA
ATOM     24  O   UNL     1       3.610   7.544  17.155  0.00  0.00    +0.000 OA
BRANCH  22  31
ATOM     25  C   UNL     1       1.432   2.500  21.447  0.00  0.00    +0.000 C 
ATOM     26  C   UNL     1       2.043   2.875  20.130  0.00  0.00    +0.000 A 
ATOM     27  C   UNL     1       2.828   1.972  19.437  0.00  0.00    +0.000 A 
ATOM     28  C   UNL     1       3.359   2.412  18.245  0.00  0.00    +0.000 A 
ATOM     29  N   UNL     1       3.166   3.650  17.758  0.00  0.00    +0.000 NA
ATOM     30  C   UNL     1       2.384   4.434  18.503  0.00  0.00    +0.000 A 
ATOM     31  N   UNL     1       2.064   5.665  17.948  0.00  0.00    +0.000 N 
ATOM     32  N   UNL     1       1.783   4.116  19.654  0.00  0.00    +0.000 NA
ATOM     33  H   UNL     1       1.083   5.908  17.983  0.00  0.00    +0.000 HD
ENDBRANCH  22  31
ENDBRANCH   1  22
TORSDOF 5
ENDMDL
MODEL 9
REMARK VINA RESULT:      -8.0      3.753      5.793
REMARK  Name = 
REMARK  6 active torsions:
REMARK  status: ('A' for Active; 'I' for Inactive)
REMARK    1  A    between atoms: C_1  and  C_2
REMARK    2  A    between atoms: N_7  and  S_8
REMARK    3  A    between atoms: S_8  and  C_11
REMARK    4  A    between atoms: C_14  and  N_15
REMARK    5  A    between atoms: C_16  and  C_18
REMARK    6  A    between atoms: C_20  and  C_21
REMARK                            x       y       z     vdW  Elec       q    Type
REMARK                         _______ _______ _______ _____ _____    ______ ____
ROOT
ATOM      1  C   UNL     1      -1.507  11.492  22.368  0.00  0.00    +0.000 A 
ATOM      2  C   UNL     1      -0.817  10.564  23.139  0.00  0.00    +0.000 A 
ATOM      3  C   UNL     1       0.016   9.634  22.514  0.00  0.00    +0.000 A 
ATOM      4  C   UNL     1       0.158   9.617  21.122  0.00  0.00    +0.000 A 
ATOM      5  C   UNL     1      -0.529  10.567  20.359  0.00  0.00    +0.000 A 
ATOM      6  C   UNL     1      -1.375  11.497  20.976  0.00  0.00    +0.000 A 
ENDROOT
BRANCH   4   7
ATOM      7  N   UNL     1       0.974   8.673  20.469  0.00  0.00    +0.000 N 
ATOM      8  C   UNL     1       1.620   8.859  19.250  0.00  0.00    +0.000 C 
ATOM      9  O   UNL     1       1.610   9.890  18.578  0.00  0.00    +0.000 OA
ATOM     10  H   UNL     1       1.196   7.808  20.949  0.00  0.00    +0.000 HD
BRANCH   8  11
ATOM     11  C   UNL     1       2.405   7.710  18.797  0.00  0.00    +0.000 A 
ATOM     12  C   UNL     1       3.316   7.690  17.708  0.00  0.00    +0.000 A 
ATOM     13  C   UNL     1       3.865   6.431  17.731  0.00  0.00    +0.000 A 
ATOM     14  O   UNL     1       3.273   5.721  18.734  0.00  0.00    +0.000 OA
ATOM     15  N   UNL     1       2.358   6.515  19.409  0.00  0.00    +0.000 NA
BRANCH  13  16
ATOM     16  C   UNL     1       4.913   5.749  16.975  0.00  0.00    +0.000 A 
ATOM     17  C   UNL     1       6.179   6.336  16.798  0.00  0.00    +0.000 A 
ATOM     18  C   UNL     1       7.201   5.651  16.136  0.00  0.00    +0.000 A 
ATOM     19  C   UNL     1       6.971   4.374  15.631  0.00  0.00    +0.000 A 
ATOM     20  C   UNL     1       5.719   3.784  15.778  0.00  0.00    +0.000 A 
ATOM     21  C   UNL     1       4.698   4.470  16.443  0.00  0.00    +0.000 A 
ENDBRANCH  13  16
ENDBRANCH   8  11
ENDBRANCH   4   7
BRANCH   1  22
ATOM     22  S   UNL     1      -2.557  12.662  23.190  0.00  0.00    +0.000 S 
ATOM     23  O   UNL     1      -1.684  13.691  23.721  0.00  0.00    +0.000 OA
ATOM     24  O   UNL     1      -3.453  11.941  24.068  0.00  0.00    +0.000 OA
BRANCH  22  31
ATOM     25  C   UNL     1      -7.514  15.365  23.295  0.00  0.00    +0.000 C 
ATOM     26  C   UNL     1      -6.771  14.260  22.606  0.00  0.00    +0.000 A 
ATOM     27  C   UNL     1      -7.457  13.234  21.983  0.00  0.00    +0.000 A 
ATOM     28  C   UNL     1      -6.689  12.256  21.390  0.00  0.00    +0.000 A 
ATOM     29  N   UNL     1      -5.345  12.252  21.415  0.00  0.00    +0.000 NA
ATOM     30  C   UNL     1      -4.788  13.294  22.034  0.00  0.00    +0.000 A 
ATOM     31  N   UNL     1      -3.405  13.375  21.949  0.00  0.00    +0.000 N 
ATOM     32  N   UNL     1      -5.419  14.321  22.613  0.00  0.00    +0.000 NA
ATOM     33  H   UNL     1      -3.045  14.283  21.685  0.00  0.00    +0.000 HD
ENDBRANCH  22  31
ENDBRANCH   1  22
TORSDOF 5
ENDMDL
