MODEL 1
REMARK VINA RESULT:      -6.7      0.000      0.000
REMARK  Name = 
REMARK  4 active torsions:
REMARK  status: ('A' for Active; 'I' for Inactive)
REMARK    1  A    between atoms: N_2  and  C_4
REMARK    2  A    between atoms: C_5  and  C_6
REMARK    3  A    between atoms: C_6  and  S_7
REMARK    4  A    between atoms: S_7  and  C_8
REMARK                            x       y       z     vdW  Elec       q    Type
REMARK                         _______ _______ _______ _____ _____    ______ ____
ROOT
ATOM      1  C   UNL     1       2.228   5.331  20.005  0.00  0.00    +0.000 A 
ATOM      2  C   UNL     1       2.977   5.280  18.849  0.00  0.00    +0.000 A 
ATOM      3  N   UNL     1       2.979   6.530  18.263  0.00  0.00    +0.000 NA
ATOM      4  C   UNL     1       2.296   7.314  19.070  0.00  0.00    +0.000 A 
ATOM      5  C   UNL     1       1.996   8.701  18.974  0.00  0.00    +0.000 A 
ATOM      6  C   UNL     1       1.253   9.295  19.930  0.00  0.00    +0.000 A 
ATOM      7  C   UNL     1       0.742   8.545  21.068  0.00  0.00    +0.000 A 
ATOM      8 BR   UNL     1      -0.276   9.450  22.335  0.00  0.00    +0.000 Br
ATOM      9  C   UNL     1       1.021   7.233  21.164  0.00  0.00    +0.000 A 
ATOM     10  N   UNL     1       1.799   6.621  20.176  0.00  0.00    +0.000 N 
ENDROOT
BRANCH   1  12
ATOM     11  O   UNL     1       2.548   4.197  21.918  0.00  0.00    +0.000 OA
ATOM     12  N   UNL     1       1.881   4.287  20.882  0.00  0.00    +0.000 N 
ATOM     13  O   UNL     1       0.937   3.562  20.551  0.00  0.00    +0.000 OA
ENDBRANCH   1  12
BRANCH   2  14
ATOM     14  C   UNL     1       3.675   4.109  18.236  0.00  0.00    +0.000 C 
BRANCH  14  15
ATOM     15  S   UNL     1       4.570   4.546  16.702  0.00  0.00    +0.000 S 
BRANCH  15  16
ATOM     16  C   UNL     1       5.934   5.447  17.412  0.00  0.00    +0.000 A 
ATOM     17  C   UNL     1       6.589   4.940  18.540  0.00  0.00    +0.000 A 
ATOM     18  C   UNL     1       7.634   5.658  19.127  0.00  0.00    +0.000 A 
ATOM     19  C   UNL     1       8.035   6.878  18.585  0.00  0.00    +0.000 A 
ATOM     20  C   UNL     1       7.406   7.372  17.444  0.00  0.00    +0.000 A 
ATOM     21  C   UNL     1       6.364   6.655  16.854  0.00  0.00    +0.000 A 
ENDBRANCH  15  16
ENDBRANCH  14  15
ENDBRANCH   2  14
TORSDOF 4
ENDMDL
MODEL 2
REMARK VINA RESULT:      -6.7      0.385      1.122
REMARK  Name = 
REMARK  4 active torsions:
REMARK  status: ('A' for Active; 'I' for Inactive)
REMARK    1  A    between atoms: N_2  and  C_4
REMARK    2  A    between atoms: C_5  and  C_6
REMARK    3  A    between atoms: C_6  and  S_7
REMARK    4  A    between atoms: S_7  and  C_8
REMARK                            x       y       z     vdW  Elec       q    Type
REMARK                         _______ _______ _______ _____ _____    ______ ____
ROOT
ATOM      1  C   UNL     1       2.309   5.495  19.751  0.00  0.00    +0.000 A 
ATOM      2  C   UNL     1       3.018   5.319  18.584  0.00  0.00    +0.000 A 
ATOM      3  N   UNL     1       3.036   6.511  17.887  0.00  0.00    +0.000 NA
ATOM      4  C   UNL     1       2.400   7.384  18.640  0.00  0.00    +0.000 A 
ATOM      5  C   UNL     1       2.135   8.765  18.429  0.00  0.00    +0.000 A 
ATOM      6  C   UNL     1       1.440   9.464  19.349  0.00  0.00    +0.000 A 
ATOM      7  C   UNL     1       0.945   8.833  20.565  0.00  0.00    +0.000 A 
ATOM      8 BR   UNL     1      -0.006   9.878  21.775  0.00  0.00    +0.000 Br
ATOM      9  C   UNL     1       1.192   7.527  20.770  0.00  0.00    +0.000 A 
ATOM     10  N   UNL     1       1.921   6.807  19.819  0.00  0.00    +0.000 N 
ENDROOT
BRANCH   1  12
ATOM     11  O   UNL     1       2.729   4.443  21.692  0.00  0.00    +0.000 OA
ATOM     12  N   UNL     1       1.962   4.544  20.730  0.00  0.00    +0.000 N 
ATOM     13  O   UNL     1       0.920   3.905  20.550  0.00  0.00    +0.000 OA
ENDBRANCH   1  12
BRANCH   2  14
ATOM     14  C   UNL     1       3.665   4.077  18.058  0.00  0.00    +0.000 C 
BRANCH  14  15
ATOM     15  S   UNL     1       4.742   4.401  16.616  0.00  0.00    +0.000 S 
BRANCH  15  16
ATOM     16  C   UNL     1       6.013   5.359  17.417  0.00  0.00    +0.000 A 
ATOM     17  C   UNL     1       6.404   6.587  16.873  0.00  0.00    +0.000 A 
ATOM     18  C   UNL     1       7.427   7.328  17.471  0.00  0.00    +0.000 A 
ATOM     19  C   UNL     1       8.055   6.850  18.620  0.00  0.00    +0.000 A 
ATOM     20  C   UNL     1       7.649   5.642  19.184  0.00  0.00    +0.000 A 
ATOM     21  C   UNL     1       6.625   4.902  18.589  0.00  0.00    +0.000 A 
ENDBRANCH  15  16
ENDBRANCH  14  15
ENDBRANCH   2  14
TORSDOF 4
ENDMDL
MODEL 3
REMARK VINA RESULT:      -6.7      1.418      1.657
REMARK  Name = 
REMARK  4 active torsions:
REMARK  status: ('A' for Active; 'I' for Inactive)
REMARK    1  A    between atoms: N_2  and  C_4
REMARK    2  A    between atoms: C_5  and  C_6
REMARK    3  A    between atoms: C_6  and  S_7
REMARK    4  A    between atoms: S_7  and  C_8
REMARK                            x       y       z     vdW  Elec       q    Type
REMARK                         _______ _______ _______ _____ _____    ______ ____
ROOT
ATOM      1  C   UNL     1       3.445   4.606  18.637  0.00  0.00    +0.000 A 
ATOM      2  C   UNL     1       4.094   4.687  17.425  0.00  0.00    +0.000 A 
ATOM      3  N   UNL     1       3.943   5.964  16.922  0.00  0.00    +0.000 NA
ATOM      4  C   UNL     1       3.268   6.638  17.830  0.00  0.00    +0.000 A 
ATOM      5  C   UNL     1       2.847   7.996  17.847  0.00  0.00    +0.000 A 
ATOM      6  C   UNL     1       2.142   8.467  18.896  0.00  0.00    +0.000 A 
ATOM      7  C   UNL     1       1.794   7.611  20.021  0.00  0.00    +0.000 A 
ATOM      8 BR   UNL     1       0.816   8.348  21.421  0.00  0.00    +0.000 Br
ATOM      9  C   UNL     1       2.188   6.325  20.010  0.00  0.00    +0.000 A 
ATOM     10  N   UNL     1       2.927   5.841  18.925  0.00  0.00    +0.000 N 
ENDROOT
BRANCH   1  12
ATOM     11  O   UNL     1       4.240   3.135  20.138  0.00  0.00    +0.000 OA
ATOM     12  N   UNL     1       3.262   3.487  19.471  0.00  0.00    +0.000 N 
ATOM     13  O   UNL     1       2.143   2.964  19.475  0.00  0.00    +0.000 OA
ENDBRANCH   1  12
BRANCH   2  14
ATOM     14  C   UNL     1       4.832   3.619  16.683  0.00  0.00    +0.000 C 
BRANCH  14  15
ATOM     15  S   UNL     1       6.192   4.284  15.658  0.00  0.00    +0.000 S 
BRANCH  15  16
ATOM     16  C   UNL     1       6.978   5.331  16.868  0.00  0.00    +0.000 A 
ATOM     17  C   UNL     1       7.458   4.775  18.059  0.00  0.00    +0.000 A 
ATOM     18  C   UNL     1       8.041   5.593  19.031  0.00  0.00    +0.000 A 
ATOM     19  C   UNL     1       8.157   6.964  18.812  0.00  0.00    +0.000 A 
ATOM     20  C   UNL     1       7.709   7.518  17.615  0.00  0.00    +0.000 A 
ATOM     21  C   UNL     1       7.128   6.702  16.641  0.00  0.00    +0.000 A 
ENDBRANCH  15  16
ENDBRANCH  14  15
ENDBRANCH   2  14
TORSDOF 4
ENDMDL
MODEL 4
REMARK VINA RESULT:      -6.6      2.877      3.474
REMARK  Name = 
REMARK  4 active torsions:
REMARK  status: ('A' for Active; 'I' for Inactive)
REMARK    1  A    between atoms: N_2  and  C_4
REMARK    2  A    between atoms: C_5  and  C_6
REMARK    3  A    between atoms: C_6  and  S_7
REMARK    4  A    between atoms: S_7  and  C_8
REMARK                            x       y       z     vdW  Elec       q    Type
REMARK                         _______ _______ _______ _____ _____    ______ ____
ROOT
ATOM      1  C   UNL     1       3.866   4.991  18.645  0.00  0.00    +0.000 A 
ATOM      2  C   UNL     1       4.501   5.150  17.434  0.00  0.00    +0.000 A 
ATOM      3  N   UNL     1       4.169   6.384  16.912  0.00  0.00    +0.000 NA
ATOM      4  C   UNL     1       3.400   6.965  17.808  0.00  0.00    +0.000 A 
ATOM      5  C   UNL     1       2.786   8.248  17.806  0.00  0.00    +0.000 A 
ATOM      6  C   UNL     1       2.015   8.625  18.846  0.00  0.00    +0.000 A 
ATOM      7  C   UNL     1       1.789   7.743  19.981  0.00  0.00    +0.000 A 
ATOM      8 BR   UNL     1       0.708   8.350  21.369  0.00  0.00    +0.000 Br
ATOM      9  C   UNL     1       2.365   6.528  19.989  0.00  0.00    +0.000 A 
ATOM     10  N   UNL     1       3.172   6.142  18.914  0.00  0.00    +0.000 N 
ENDROOT
BRANCH   1  12
ATOM     11  O   UNL     1       4.934   3.490  19.930  0.00  0.00    +0.000 OA
ATOM     12  N   UNL     1       3.843   3.869  19.494  0.00  0.00    +0.000 N 
ATOM     13  O   UNL     1       2.740   3.371  19.740  0.00  0.00    +0.000 OA
ENDBRANCH   1  12
BRANCH   2  14
ATOM     14  C   UNL     1       5.391   4.190  16.709  0.00  0.00    +0.000 C 
BRANCH  14  15
ATOM     15  S   UNL     1       6.976   4.945  16.201  0.00  0.00    +0.000 S 
BRANCH  15  16
ATOM     16  C   UNL     1       6.903   4.616  14.451  0.00  0.00    +0.000 A 
ATOM     17  C   UNL     1       5.975   3.694  13.955  0.00  0.00    +0.000 A 
ATOM     18  C   UNL     1       5.935   3.400  12.590  0.00  0.00    +0.000 A 
ATOM     19  C   UNL     1       6.816   4.032  11.714  0.00  0.00    +0.000 A 
ATOM     20  C   UNL     1       7.722   4.974  12.197  0.00  0.00    +0.000 A 
ATOM     21  C   UNL     1       7.760   5.271  13.561  0.00  0.00    +0.000 A 
ENDBRANCH  15  16
ENDBRANCH  14  15
ENDBRANCH   2  14
TORSDOF 4
ENDMDL
MODEL 5
REMARK VINA RESULT:      -6.6      1.423      2.059
REMARK  Name = 
REMARK  4 active torsions:
REMARK  status: ('A' for Active; 'I' for Inactive)
REMARK    1  A    between atoms: N_2  and  C_4
REMARK    2  A    between atoms: C_5  and  C_6
REMARK    3  A    between atoms: C_6  and  S_7
REMARK    4  A    between atoms: S_7  and  C_8
REMARK                            x       y       z     vdW  Elec       q    Type
REMARK                         _______ _______ _______ _____ _____    ______ ____
ROOT
ATOM      1  C   UNL     1       3.486   4.677  18.648  0.00  0.00    +0.000 A 
ATOM      2  C   UNL     1       4.109   4.757  17.423  0.00  0.00    +0.000 A 
ATOM      3  N   UNL     1       3.923   6.025  16.909  0.00  0.00    +0.000 NA
ATOM      4  C   UNL     1       3.253   6.695  17.822  0.00  0.00    +0.000 A 
ATOM      5  C   UNL     1       2.805   8.045  17.833  0.00  0.00    +0.000 A 
ATOM      6  C   UNL     1       2.111   8.513  18.890  0.00  0.00    +0.000 A 
ATOM      7  C   UNL     1       1.801   7.663  20.031  0.00  0.00    +0.000 A 
ATOM      8 BR   UNL     1       0.836   8.397  21.442  0.00  0.00    +0.000 Br
ATOM      9  C   UNL     1       2.221   6.385  20.026  0.00  0.00    +0.000 A 
ATOM     10  N   UNL     1       2.949   5.904  18.933  0.00  0.00    +0.000 N 
ENDROOT
BRANCH   1  12
ATOM     11  O   UNL     1       2.230   3.024  19.510  0.00  0.00    +0.000 OA
ATOM     12  N   UNL     1       3.341   3.563  19.498  0.00  0.00    +0.000 N 
ATOM     13  O   UNL     1       4.334   3.215  20.144  0.00  0.00    +0.000 OA
ENDBRANCH   1  12
BRANCH   2  14
ATOM     14  C   UNL     1       4.855   3.695  16.679  0.00  0.00    +0.000 C 
BRANCH  14  15
ATOM     15  S   UNL     1       6.246   4.366  15.700  0.00  0.00    +0.000 S 
BRANCH  15  16
ATOM     16  C   UNL     1       6.990   5.411  16.937  0.00  0.00    +0.000 A 
ATOM     17  C   UNL     1       7.142   6.779  16.690  0.00  0.00    +0.000 A 
ATOM     18  C   UNL     1       7.759   7.600  17.637  0.00  0.00    +0.000 A 
ATOM     19  C   UNL     1       8.218   7.060  18.837  0.00  0.00    +0.000 A 
ATOM     20  C   UNL     1       8.043   5.703  19.101  0.00  0.00    +0.000 A 
ATOM     21  C   UNL     1       7.423   4.882  18.157  0.00  0.00    +0.000 A 
ENDBRANCH  15  16
ENDBRANCH  14  15
ENDBRANCH   2  14
TORSDOF 4
ENDMDL
MODEL 6
REMARK VINA RESULT:      -6.6      4.243      5.680
REMARK  Name = 
REMARK  4 active torsions:
REMARK  status: ('A' for Active; 'I' for Inactive)
REMARK    1  A    between atoms: N_2  and  C_4
REMARK    2  A    between atoms: C_5  and  C_6
REMARK    3  A    between atoms: C_6  and  S_7
REMARK    4  A    between atoms: S_7  and  C_8
REMARK                            x       y       z     vdW  Elec       q    Type
REMARK                         _______ _______ _______ _____ _____    ______ ____
ROOT
ATOM      1  C   UNL     1       6.313   5.582  17.469  0.00  0.00    +0.000 A 
ATOM      2  C   UNL     1       6.232   6.956  17.417  0.00  0.00    +0.000 A 
ATOM      3  N   UNL     1       4.906   7.329  17.521  0.00  0.00    +0.000 NA
ATOM      4  C   UNL     1       4.224   6.215  17.680  0.00  0.00    +0.000 A 
ATOM      5  C   UNL     1       2.828   6.005  17.856  0.00  0.00    +0.000 A 
ATOM      6  C   UNL     1       2.349   4.751  17.986  0.00  0.00    +0.000 A 
ATOM      7  C   UNL     1       3.232   3.595  17.947  0.00  0.00    +0.000 A 
ATOM      8 BR   UNL     1       2.479   1.903  18.133  0.00  0.00    +0.000 Br
ATOM      9  C   UNL     1       4.553   3.787  17.780  0.00  0.00    +0.000 A 
ATOM     10  N   UNL     1       5.049   5.088  17.655  0.00  0.00    +0.000 N 
ENDROOT
BRANCH   1  12
ATOM     11  O   UNL     1       7.969   4.355  18.365  0.00  0.00    +0.000 OA
ATOM     12  N   UNL     1       7.442   4.754  17.322  0.00  0.00    +0.000 N 
ATOM     13  O   UNL     1       7.800   4.490  16.170  0.00  0.00    +0.000 OA
ENDBRANCH   1  12
BRANCH   2  14
ATOM     14  C   UNL     1       7.332   7.954  17.244  0.00  0.00    +0.000 C 
BRANCH  14  15
ATOM     15  S   UNL     1       8.472   8.000  18.672  0.00  0.00    +0.000 S 
BRANCH  15  16
ATOM     16  C   UNL     1       8.790   9.752  18.731  0.00  0.00    +0.000 A 
ATOM     17  C   UNL     1       8.302  10.581  17.714  0.00  0.00    +0.000 A 
ATOM     18  C   UNL     1       8.578  11.950  17.731  0.00  0.00    +0.000 A 
ATOM     19  C   UNL     1       9.332  12.499  18.767  0.00  0.00    +0.000 A 
ATOM     20  C   UNL     1       9.794  11.683  19.798  0.00  0.00    +0.000 A 
ATOM     21  C   UNL     1       9.517  10.315  19.785  0.00  0.00    +0.000 A 
ENDBRANCH  15  16
ENDBRANCH  14  15
ENDBRANCH   2  14
TORSDOF 4
ENDMDL
MODEL 7
REMARK VINA RESULT:      -6.6      3.874      5.210
REMARK  Name = 
REMARK  4 active torsions:
REMARK  status: ('A' for Active; 'I' for Inactive)
REMARK    1  A    between atoms: N_2  and  C_4
REMARK    2  A    between atoms: C_5  and  C_6
REMARK    3  A    between atoms: C_6  and  S_7
REMARK    4  A    between atoms: S_7  and  C_8
REMARK                            x       y       z     vdW  Elec       q    Type
REMARK                         _______ _______ _______ _____ _____    ______ ____
ROOT
ATOM      1  C   UNL     1       0.983   9.428  19.499  0.00  0.00    +0.000 A 
ATOM      2  C   UNL     1       1.657   8.249  19.727  0.00  0.00    +0.000 A 
ATOM      3  N   UNL     1       1.547   7.922  21.065  0.00  0.00    +0.000 NA
ATOM      4  C   UNL     1       0.789   8.852  21.607  0.00  0.00    +0.000 A 
ATOM      5  C   UNL     1       0.334   9.007  22.945  0.00  0.00    +0.000 A 
ATOM      6  C   UNL     1      -0.433  10.066  23.275  0.00  0.00    +0.000 A 
ATOM      7  C   UNL     1      -0.809  11.067  22.287  0.00  0.00    +0.000 A 
ATOM      8 BR   UNL     1      -1.868  12.494  22.836  0.00  0.00    +0.000 Br
ATOM      9  C   UNL     1      -0.381  10.926  21.019  0.00  0.00    +0.000 A 
ATOM     10  N   UNL     1       0.407   9.823  20.678  0.00  0.00    +0.000 N 
ENDROOT
BRANCH   1  12
ATOM     11  O   UNL     1       1.880  10.861  18.019  0.00  0.00    +0.000 OA
ATOM     12  N   UNL     1       0.892  10.181  18.313  0.00  0.00    +0.000 N 
ATOM     13  O   UNL     1      -0.156  10.088  17.666  0.00  0.00    +0.000 OA
ENDBRANCH   1  12
BRANCH   2  14
ATOM     14  C   UNL     1       2.433   7.410  18.762  0.00  0.00    +0.000 C 
BRANCH  14  15
ATOM     15  S   UNL     1       3.488   6.171  19.595  0.00  0.00    +0.000 S 
BRANCH  15  16
ATOM     16  C   UNL     1       2.396   4.764  19.514  0.00  0.00    +0.000 A 
ATOM     17  C   UNL     1       1.870   4.224  20.693  0.00  0.00    +0.000 A 
ATOM     18  C   UNL     1       1.045   3.098  20.643  0.00  0.00    +0.000 A 
ATOM     19  C   UNL     1       0.734   2.514  19.416  0.00  0.00    +0.000 A 
ATOM     20  C   UNL     1       1.230   3.066  18.237  0.00  0.00    +0.000 A 
ATOM     21  C   UNL     1       2.053   4.193  18.285  0.00  0.00    +0.000 A 
ENDBRANCH  15  16
ENDBRANCH  14  15
ENDBRANCH   2  14
TORSDOF 4
ENDMDL
MODEL 8
REMARK VINA RESULT:      -6.6      3.867      5.312
REMARK  Name = 
REMARK  4 active torsions:
REMARK  status: ('A' for Active; 'I' for Inactive)
REMARK    1  A    between atoms: N_2  and  C_4
REMARK    2  A    between atoms: C_5  and  C_6
REMARK    3  A    between atoms: C_6  and  S_7
REMARK    4  A    between atoms: S_7  and  C_8
REMARK                            x       y       z     vdW  Elec       q    Type
REMARK                         _______ _______ _______ _____ _____    ______ ____
ROOT
ATOM      1  C   UNL     1       0.994   9.437  19.480  0.00  0.00    +0.000 A 
ATOM      2  C   UNL     1       1.636   8.238  19.700  0.00  0.00    +0.000 A 
ATOM      3  N   UNL     1       1.485   7.887  21.027  0.00  0.00    +0.000 NA
ATOM      4  C   UNL     1       0.734   8.823  21.569  0.00  0.00    +0.000 A 
ATOM      5  C   UNL     1       0.248   8.961  22.899  0.00  0.00    +0.000 A 
ATOM      6  C   UNL     1      -0.504  10.030  23.231  0.00  0.00    +0.000 A 
ATOM      7  C   UNL     1      -0.832  11.059  22.254  0.00  0.00    +0.000 A 
ATOM      8 BR   UNL     1      -1.874  12.498  22.806  0.00  0.00    +0.000 Br
ATOM      9  C   UNL     1      -0.376  10.934  20.996  0.00  0.00    +0.000 A 
ATOM     10  N   UNL     1       0.397   9.820  20.651  0.00  0.00    +0.000 N 
ENDROOT
BRANCH   1  12
ATOM     11  O   UNL     1      -0.095  10.158  17.652  0.00  0.00    +0.000 OA
ATOM     12  N   UNL     1       0.950  10.215  18.308  0.00  0.00    +0.000 N 
ATOM     13  O   UNL     1       1.947  10.895  18.045  0.00  0.00    +0.000 OA
ENDBRANCH   1  12
BRANCH   2  14
ATOM     14  C   UNL     1       2.418   7.402  18.738  0.00  0.00    +0.000 C 
BRANCH  14  15
ATOM     15  S   UNL     1       3.510   6.199  19.576  0.00  0.00    +0.000 S 
BRANCH  15  16
ATOM     16  C   UNL     1       2.448   4.768  19.533  0.00  0.00    +0.000 A 
ATOM     17  C   UNL     1       2.131   4.176  18.307  0.00  0.00    +0.000 A 
ATOM     18  C   UNL     1       1.268   3.078  18.259  0.00  0.00    +0.000 A 
ATOM     19  C   UNL     1       0.728   2.562  19.436  0.00  0.00    +0.000 A 
ATOM     20  C   UNL     1       1.066   3.129  20.663  0.00  0.00    +0.000 A 
ATOM     21  C   UNL     1       1.930   4.225  20.712  0.00  0.00    +0.000 A 
ENDBRANCH  15  16
ENDBRANCH  14  15
ENDBRANCH   2  14
TORSDOF 4
ENDMDL
MODEL 9
REMARK VINA RESULT:      -6.5      3.794      6.081
REMARK  Name = 
REMARK  4 active torsions:
REMARK  status: ('A' for Active; 'I' for Inactive)
REMARK    1  A    between atoms: N_2  and  C_4
REMARK    2  A    between atoms: C_5  and  C_6
REMARK    3  A    between atoms: C_6  and  S_7
REMARK    4  A    between atoms: S_7  and  C_8
REMARK                            x       y       z     vdW  Elec       q    Type
REMARK                         _______ _______ _______ _____ _____    ______ ____
ROOT
ATOM      1  C   UNL     1       4.302   3.607  17.726  0.00  0.00    +0.000 A 
ATOM      2  C   UNL     1       4.646   4.348  18.834  0.00  0.00    +0.000 A 
ATOM      3  N   UNL     1       5.720   5.156  18.516  0.00  0.00    +0.000 NA
ATOM      4  C   UNL     1       5.975   4.940  17.243  0.00  0.00    +0.000 A 
ATOM      5  C   UNL     1       6.959   5.511  16.389  0.00  0.00    +0.000 A 
ATOM      6  C   UNL     1       7.042   5.116  15.102  0.00  0.00    +0.000 A 
ATOM      7  C   UNL     1       6.145   4.106  14.560  0.00  0.00    +0.000 A 
ATOM      8 BR   UNL     1       6.337   3.623  12.774  0.00  0.00    +0.000 Br
ATOM      9  C   UNL     1       5.213   3.561  15.363  0.00  0.00    +0.000 A 
ATOM     10  N   UNL     1       5.123   3.979  16.694  0.00  0.00    +0.000 N 
ENDROOT
BRANCH   1  12
ATOM     11  O   UNL     1       3.614   1.499  18.087  0.00  0.00    +0.000 OA
ATOM     12  N   UNL     1       3.328   2.598  17.602  0.00  0.00    +0.000 N 
ATOM     13  O   UNL     1       2.273   2.899  17.035  0.00  0.00    +0.000 OA
ENDBRANCH   1  12
BRANCH   2  14
ATOM     14  C   UNL     1       4.042   4.325  20.202  0.00  0.00    +0.000 C 
BRANCH  14  15
ATOM     15  S   UNL     1       2.226   4.532  20.174  0.00  0.00    +0.000 S 
BRANCH  15  16
ATOM     16  C   UNL     1       2.137   6.223  19.618  0.00  0.00    +0.000 A 
ATOM     17  C   UNL     1       1.773   7.231  20.517  0.00  0.00    +0.000 A 
ATOM     18  C   UNL     1       1.663   8.554  20.083  0.00  0.00    +0.000 A 
ATOM     19  C   UNL     1       1.926   8.877  18.753  0.00  0.00    +0.000 A 
ATOM     20  C   UNL     1       2.319   7.882  17.860  0.00  0.00    +0.000 A 
ATOM     21  C   UNL     1       2.433   6.560  18.294  0.00  0.00    +0.000 A 
ENDBRANCH  15  16
ENDBRANCH  14  15
ENDBRANCH   2  14
TORSDOF 4
ENDMDL
