MODEL 1
REMARK VINA RESULT:      -8.3      0.000      0.000
REMARK  Name = 
REMARK  6 active torsions:
REMARK  status: ('A' for Active; 'I' for Inactive)
REMARK    1  A    between atoms: C_2  and  C_9
REMARK    2  A    between atoms: N_3  and  C_4
REMARK    3  A    between atoms: C_9  and  C_10
REMARK    4  A    between atoms: C_9  and  N_15
REMARK    5  A    between atoms: N_15  and  C_23
REMARK    6  A    between atoms: C_16  and  C_18
REMARK                            x       y       z     vdW  Elec       q    Type
REMARK                         _______ _______ _______ _____ _____    ______ ____
ROOT
ATOM      1  C   UNL     1       4.069   5.893  17.859  0.00  0.00    +0.000 C 
ENDROOT
BRANCH   1   2
ATOM      2  C   UNL     1       5.522   6.110  18.196  0.00  0.00    +0.000 A 
ATOM      3  C   UNL     1       6.410   5.621  19.133  0.00  0.00    +0.000 A 
ATOM      4  C   UNL     1       7.660   6.240  18.874  0.00  0.00    +0.000 A 
ATOM      5  C   UNL     1       7.464   7.070  17.799  0.00  0.00    +0.000 A 
ATOM      6  O   UNL     1       6.174   7.013  17.389  0.00  0.00    +0.000 OA
ENDBRANCH   1   2
BRANCH   1   8
ATOM      7  O   UNL     1       2.854   6.887  19.780  0.00  0.00    +0.000 OA
ATOM      8  C   UNL     1       3.103   6.908  18.576  0.00  0.00    +0.000 C 
ATOM      9  N   UNL     1       2.513   7.869  17.746  0.00  0.00    +0.000 N 
ATOM     10  H   UNL     1       2.610   7.767  16.743  0.00  0.00    +0.000 HD
BRANCH   9  11
ATOM     11  C   UNL     1       1.505   8.822  18.230  0.00  0.00    +0.000 C 
ATOM     12  C   UNL     1       1.337   8.807  19.754  0.00  0.00    +0.000 C 
ATOM     13  C   UNL     1       0.870  10.207  20.143  0.00  0.00    +0.000 C 
ATOM     14  C   UNL     1       1.287  11.137  19.012  0.00  0.00    +0.000 C 
ATOM     15  C   UNL     1       1.900  10.265  17.920  0.00  0.00    +0.000 C 
ENDBRANCH   9  11
ENDBRANCH   1   8
BRANCH   1  16
ATOM     16  N   UNL     1       3.749   4.424  17.884  0.00  0.00    +0.000 N 
ATOM     17  C   UNL     1       4.262   3.515  16.926  0.00  0.00    +0.000 C 
ATOM     18  O   UNL     1       3.844   2.357  16.837  0.00  0.00    +0.000 OA
BRANCH  16  19
ATOM     19  C   UNL     1       2.973   3.890  18.986  0.00  0.00    +0.000 A 
ATOM     20  C   UNL     1       3.609   3.381  20.137  0.00  0.00    +0.000 A 
ATOM     21  C   UNL     1       2.862   2.889  21.225  0.00  0.00    +0.000 A 
ATOM     22  C   UNL     1       1.479   2.885  21.155  0.00  0.00    +0.000 A 
ATOM     23  F   UNL     1       0.761   2.407  22.183  0.00  0.00    +0.000 F 
ATOM     24  C   UNL     1       0.830   3.367  20.031  0.00  0.00    +0.000 A 
ATOM     25  C   UNL     1       1.575   3.873  18.958  0.00  0.00    +0.000 A 
ENDBRANCH  16  19
BRANCH  17  26
ATOM     26  C   UNL     1       5.237   3.987  15.958  0.00  0.00    +0.000 A 
ATOM     27  C   UNL     1       5.059   4.497  14.684  0.00  0.00    +0.000 A 
ATOM     28  C   UNL     1       6.345   4.816  14.187  0.00  0.00    +0.000 A 
ATOM     29  C   UNL     1       7.237   4.431  15.157  0.00  0.00    +0.000 A 
ATOM     30  O   UNL     1       6.580   3.893  16.214  0.00  0.00    +0.000 OA
ENDBRANCH  17  26
ENDBRANCH   1  16
TORSDOF 6
ENDMDL
MODEL 2
REMARK VINA RESULT:      -8.1      0.702      1.394
REMARK  Name = 
REMARK  6 active torsions:
REMARK  status: ('A' for Active; 'I' for Inactive)
REMARK    1  A    between atoms: C_2  and  C_9
REMARK    2  A    between atoms: N_3  and  C_4
REMARK    3  A    between atoms: C_9  and  C_10
REMARK    4  A    between atoms: C_9  and  N_15
REMARK    5  A    between atoms: N_15  and  C_23
REMARK    6  A    between atoms: C_16  and  C_18
REMARK                            x       y       z     vdW  Elec       q    Type
REMARK                         _______ _______ _______ _____ _____    ______ ____
ROOT
ATOM      1  C   UNL     1       3.956   5.974  17.874  0.00  0.00    +0.000 C 
ENDROOT
BRANCH   1   2
ATOM      2  C   UNL     1       5.434   6.231  18.031  0.00  0.00    +0.000 A 
ATOM      3  C   UNL     1       6.372   7.043  17.425  0.00  0.00    +0.000 A 
ATOM      4  C   UNL     1       7.606   6.805  18.086  0.00  0.00    +0.000 A 
ATOM      5  C   UNL     1       7.351   5.864  19.052  0.00  0.00    +0.000 A 
ATOM      6  O   UNL     1       6.046   5.498  19.019  0.00  0.00    +0.000 OA
ENDBRANCH   1   2
BRANCH   1   8
ATOM      7  O   UNL     1       2.745   6.799  19.876  0.00  0.00    +0.000 OA
ATOM      8  C   UNL     1       3.059   6.970  18.699  0.00  0.00    +0.000 C 
ATOM      9  N   UNL     1       2.612   8.098  18.002  0.00  0.00    +0.000 N 
ATOM     10  H   UNL     1       2.751   8.135  16.999  0.00  0.00    +0.000 HD
BRANCH   9  11
ATOM     11  C   UNL     1       1.678   9.071  18.585  0.00  0.00    +0.000 C 
ATOM     12  C   UNL     1       2.076  10.528  18.322  0.00  0.00    +0.000 C 
ATOM     13  C   UNL     1       0.777  11.330  18.324  0.00  0.00    +0.000 C 
ATOM     14  C   UNL     1      -0.345  10.343  18.034  0.00  0.00    +0.000 C 
ATOM     15  C   UNL     1       0.285   8.955  17.969  0.00  0.00    +0.000 C 
ENDBRANCH   9  11
ENDBRANCH   1   8
BRANCH   1  16
ATOM     16  N   UNL     1       3.681   4.498  17.944  0.00  0.00    +0.000 N 
ATOM     17  C   UNL     1       4.212   3.578  17.007  0.00  0.00    +0.000 C 
ATOM     18  O   UNL     1       3.828   2.406  16.955  0.00  0.00    +0.000 OA
BRANCH  16  19
ATOM     19  C   UNL     1       2.931   3.973  19.067  0.00  0.00    +0.000 A 
ATOM     20  C   UNL     1       1.522   3.907  19.028  0.00  0.00    +0.000 A 
ATOM     21  C   UNL     1       0.788   3.369  20.101  0.00  0.00    +0.000 A 
ATOM     22  C   UNL     1       1.458   2.913  21.225  0.00  0.00    +0.000 A 
ATOM     23  F   UNL     1       0.763   2.410  22.256  0.00  0.00    +0.000 F 
ATOM     24  C   UNL     1       2.839   2.977  21.294  0.00  0.00    +0.000 A 
ATOM     25  C   UNL     1       3.569   3.497  20.217  0.00  0.00    +0.000 A 
ENDBRANCH  16  19
BRANCH  17  26
ATOM     26  C   UNL     1       5.165   4.050  16.017  0.00  0.00    +0.000 A 
ATOM     27  C   UNL     1       4.955   4.649  14.786  0.00  0.00    +0.000 A 
ATOM     28  C   UNL     1       6.231   4.921  14.240  0.00  0.00    +0.000 A 
ATOM     29  C   UNL     1       7.146   4.423  15.135  0.00  0.00    +0.000 A 
ATOM     30  O   UNL     1       6.510   3.860  16.193  0.00  0.00    +0.000 OA
ENDBRANCH  17  26
ENDBRANCH   1  16
TORSDOF 6
ENDMDL
MODEL 3
REMARK VINA RESULT:      -7.8      0.915      1.646
REMARK  Name = 
REMARK  6 active torsions:
REMARK  status: ('A' for Active; 'I' for Inactive)
REMARK    1  A    between atoms: C_2  and  C_9
REMARK    2  A    between atoms: N_3  and  C_4
REMARK    3  A    between atoms: C_9  and  C_10
REMARK    4  A    between atoms: C_9  and  N_15
REMARK    5  A    between atoms: N_15  and  C_23
REMARK    6  A    between atoms: C_16  and  C_18
REMARK                            x       y       z     vdW  Elec       q    Type
REMARK                         _______ _______ _______ _____ _____    ______ ____
ROOT
ATOM      1  C   UNL     1       3.913   5.916  17.711  0.00  0.00    +0.000 C 
ENDROOT
BRANCH   1   2
ATOM      2  C   UNL     1       5.358   6.221  18.017  0.00  0.00    +0.000 A 
ATOM      3  C   UNL     1       6.287   5.802  18.947  0.00  0.00    +0.000 A 
ATOM      4  C   UNL     1       7.497   6.483  18.653  0.00  0.00    +0.000 A 
ATOM      5  C   UNL     1       7.237   7.278  17.565  0.00  0.00    +0.000 A 
ATOM      6  O   UNL     1       5.944   7.140  17.180  0.00  0.00    +0.000 OA
ENDBRANCH   1   2
BRANCH   1   8
ATOM      7  O   UNL     1       2.174   7.685  17.712  0.00  0.00    +0.000 OA
ATOM      8  C   UNL     1       2.909   6.940  18.358  0.00  0.00    +0.000 C 
ATOM      9  N   UNL     1       2.894   6.968  19.758  0.00  0.00    +0.000 N 
ATOM     10  H   UNL     1       3.615   6.463  20.260  0.00  0.00    +0.000 HD
BRANCH   9  11
ATOM     11  C   UNL     1       2.098   7.937  20.522  0.00  0.00    +0.000 C 
ATOM     12  C   UNL     1       1.428   9.001  19.644  0.00  0.00    +0.000 C 
ATOM     13  C   UNL     1       0.169   9.435  20.389  0.00  0.00    +0.000 C 
ATOM     14  C   UNL     1      -0.183   8.305  21.348  0.00  0.00    +0.000 C 
ATOM     15  C   UNL     1       0.927   7.265  21.238  0.00  0.00    +0.000 C 
ENDBRANCH   9  11
ENDBRANCH   1   8
BRANCH   1  16
ATOM     16  N   UNL     1       3.659   4.441  17.850  0.00  0.00    +0.000 N 
ATOM     17  C   UNL     1       4.214   3.484  16.965  0.00  0.00    +0.000 C 
ATOM     18  O   UNL     1       3.848   2.306  16.965  0.00  0.00    +0.000 OA
BRANCH  16  19
ATOM     19  C   UNL     1       2.904   3.959  18.989  0.00  0.00    +0.000 A 
ATOM     20  C   UNL     1       1.495   3.915  18.956  0.00  0.00    +0.000 A 
ATOM     21  C   UNL     1       0.755   3.418  20.045  0.00  0.00    +0.000 A 
ATOM     22  C   UNL     1       1.421   2.984  21.180  0.00  0.00    +0.000 A 
ATOM     23  F   UNL     1       0.721   2.521  22.226  0.00  0.00    +0.000 F 
ATOM     24  C   UNL     1       2.803   3.029  21.244  0.00  0.00    +0.000 A 
ATOM     25  C   UNL     1       3.538   3.506  20.150  0.00  0.00    +0.000 A 
ENDBRANCH  16  19
BRANCH  17  26
ATOM     26  C   UNL     1       5.171   3.923  15.963  0.00  0.00    +0.000 A 
ATOM     27  C   UNL     1       4.974   4.331  14.655  0.00  0.00    +0.000 A 
ATOM     28  C   UNL     1       6.247   4.663  14.134  0.00  0.00    +0.000 A 
ATOM     29  C   UNL     1       7.153   4.386  15.128  0.00  0.00    +0.000 A 
ATOM     30  O   UNL     1       6.516   3.901  16.222  0.00  0.00    +0.000 OA
ENDBRANCH  17  26
ENDBRANCH   1  16
TORSDOF 6
ENDMDL
MODEL 4
REMARK VINA RESULT:      -7.7      0.738      1.421
REMARK  Name = 
REMARK  6 active torsions:
REMARK  status: ('A' for Active; 'I' for Inactive)
REMARK    1  A    between atoms: C_2  and  C_9
REMARK    2  A    between atoms: N_3  and  C_4
REMARK    3  A    between atoms: C_9  and  C_10
REMARK    4  A    between atoms: C_9  and  N_15
REMARK    5  A    between atoms: N_15  and  C_23
REMARK    6  A    between atoms: C_16  and  C_18
REMARK                            x       y       z     vdW  Elec       q    Type
REMARK                         _______ _______ _______ _____ _____    ______ ____
ROOT
ATOM      1  C   UNL     1       4.056   5.887  17.981  0.00  0.00    +0.000 C 
ENDROOT
BRANCH   1   2
ATOM      2  C   UNL     1       5.521   6.029  18.306  0.00  0.00    +0.000 A 
ATOM      3  C   UNL     1       6.391   5.490  19.232  0.00  0.00    +0.000 A 
ATOM      4  C   UNL     1       7.669   6.046  18.966  0.00  0.00    +0.000 A 
ATOM      5  C   UNL     1       7.506   6.892  17.897  0.00  0.00    +0.000 A 
ATOM      6  O   UNL     1       6.210   6.902  17.499  0.00  0.00    +0.000 OA
ENDBRANCH   1   2
BRANCH   1   8
ATOM      7  O   UNL     1       2.642   6.780  19.814  0.00  0.00    +0.000 OA
ATOM      8  C   UNL     1       3.150   6.950  18.706  0.00  0.00    +0.000 C 
ATOM      9  N   UNL     1       2.934   8.140  18.002  0.00  0.00    +0.000 N 
ATOM     10  H   UNL     1       3.229   8.191  17.034  0.00  0.00    +0.000 HD
BRANCH   9  11
ATOM     11  C   UNL     1       2.027   9.192  18.483  0.00  0.00    +0.000 C 
ATOM     12  C   UNL     1       0.756   9.333  17.636  0.00  0.00    +0.000 C 
ATOM     13  C   UNL     1      -0.321   9.871  18.574  0.00  0.00    +0.000 C 
ATOM     14  C   UNL     1       0.121   9.526  19.990  0.00  0.00    +0.000 C 
ATOM     15  C   UNL     1       1.501   8.885  19.884  0.00  0.00    +0.000 C 
ENDBRANCH   9  11
ENDBRANCH   1   8
BRANCH   1  16
ATOM     16  N   UNL     1       3.661   4.437  18.008  0.00  0.00    +0.000 N 
ATOM     17  C   UNL     1       4.093   3.510  17.027  0.00  0.00    +0.000 C 
ATOM     18  O   UNL     1       3.612   2.377  16.945  0.00  0.00    +0.000 OA
BRANCH  16  19
ATOM     19  C   UNL     1       2.897   3.935  19.132  0.00  0.00    +0.000 A 
ATOM     20  C   UNL     1       1.487   3.921  19.099  0.00  0.00    +0.000 A 
ATOM     21  C   UNL     1       0.737   3.405  20.172  0.00  0.00    +0.000 A 
ATOM     22  C   UNL     1       1.394   2.920  21.291  0.00  0.00    +0.000 A 
ATOM     23  F   UNL     1       0.685   2.439  22.323  0.00  0.00    +0.000 F 
ATOM     24  C   UNL     1       2.777   2.934  21.355  0.00  0.00    +0.000 A 
ATOM     25  C   UNL     1       3.521   3.431  20.277  0.00  0.00    +0.000 A 
ENDBRANCH  16  19
BRANCH  17  26
ATOM     26  C   UNL     1       5.058   3.939  16.029  0.00  0.00    +0.000 A 
ATOM     27  C   UNL     1       6.431   3.772  15.982  0.00  0.00    +0.000 A 
ATOM     28  C   UNL     1       6.876   4.371  14.780  0.00  0.00    +0.000 A 
ATOM     29  C   UNL     1       5.763   4.919  14.190  0.00  0.00    +0.000 A 
ATOM     30  O   UNL     1       4.667   4.697  14.957  0.00  0.00    +0.000 OA
ENDBRANCH  17  26
ENDBRANCH   1  16
TORSDOF 6
ENDMDL
MODEL 5
REMARK VINA RESULT:      -7.5      4.197      8.800
REMARK  Name = 
REMARK  6 active torsions:
REMARK  status: ('A' for Active; 'I' for Inactive)
REMARK    1  A    between atoms: C_2  and  C_9
REMARK    2  A    between atoms: N_3  and  C_4
REMARK    3  A    between atoms: C_9  and  C_10
REMARK    4  A    between atoms: C_9  and  N_15
REMARK    5  A    between atoms: N_15  and  C_23
REMARK    6  A    between atoms: C_16  and  C_18
REMARK                            x       y       z     vdW  Elec       q    Type
REMARK                         _______ _______ _______ _____ _____    ______ ____
ROOT
ATOM      1  C   UNL     1       0.461  10.029  19.161  0.00  0.00    +0.000 C 
ENDROOT
BRANCH   1   2
ATOM      2  C   UNL     1       0.384   9.821  20.652  0.00  0.00    +0.000 A 
ATOM      3  C   UNL     1      -0.588   9.947  21.625  0.00  0.00    +0.000 A 
ATOM      4  C   UNL     1       0.010   9.561  22.853  0.00  0.00    +0.000 A 
ATOM      5  C   UNL     1       1.309   9.226  22.560  0.00  0.00    +0.000 A 
ATOM      6  O   UNL     1       1.551   9.392  21.237  0.00  0.00    +0.000 OA
ENDBRANCH   1   2
BRANCH   1   8
ATOM      7  O   UNL     1       2.183   9.502  17.454  0.00  0.00    +0.000 OA
ATOM      8  C   UNL     1       1.573   9.159  18.466  0.00  0.00    +0.000 C 
ATOM      9  N   UNL     1       1.841   7.926  19.072  0.00  0.00    +0.000 N 
ATOM     10  H   UNL     1       1.220   7.601  19.804  0.00  0.00    +0.000 HD
BRANCH   9  11
ATOM     11  C   UNL     1       2.769   6.945  18.494  0.00  0.00    +0.000 C 
ATOM     12  C   UNL     1       3.581   6.183  19.548  0.00  0.00    +0.000 C 
ATOM     13  C   UNL     1       3.910   4.826  18.931  0.00  0.00    +0.000 C 
ATOM     14  C   UNL     1       2.884   4.586  17.833  0.00  0.00    +0.000 C 
ATOM     15  C   UNL     1       2.026   5.844  17.739  0.00  0.00    +0.000 C 
ENDBRANCH   9  11
ENDBRANCH   1   8
BRANCH   1  16
ATOM     16  N   UNL     1       0.360  11.494  18.841  0.00  0.00    +0.000 N 
ATOM     17  C   UNL     1      -0.775  12.062  18.211  0.00  0.00    +0.000 C 
ATOM     18  O   UNL     1      -0.771  13.217  17.778  0.00  0.00    +0.000 OA
BRANCH  16  19
ATOM     19  C   UNL     1       1.413  12.387  19.281  0.00  0.00    +0.000 A 
ATOM     20  C   UNL     1       2.417  12.818  18.389  0.00  0.00    +0.000 A 
ATOM     21  C   UNL     1       3.425  13.710  18.800  0.00  0.00    +0.000 A 
ATOM     22  C   UNL     1       3.444  14.159  20.110  0.00  0.00    +0.000 A 
ATOM     23  F   UNL     1       4.409  15.000  20.512  0.00  0.00    +0.000 F 
ATOM     24  C   UNL     1       2.479  13.742  21.011  0.00  0.00    +0.000 A 
ATOM     25  C   UNL     1       1.466  12.868  20.594  0.00  0.00    +0.000 A 
ENDBRANCH  16  19
BRANCH  17  26
ATOM     26  C   UNL     1      -1.943  11.229  17.981  0.00  0.00    +0.000 A 
ATOM     27  C   UNL     1      -2.078  10.054  17.262  0.00  0.00    +0.000 A 
ATOM     28  C   UNL     1      -3.430   9.655  17.378  0.00  0.00    +0.000 A 
ATOM     29  C   UNL     1      -4.057  10.634  18.109  0.00  0.00    +0.000 A 
ATOM     30  O   UNL     1      -3.176  11.608  18.444  0.00  0.00    +0.000 OA
ENDBRANCH  17  26
ENDBRANCH   1  16
TORSDOF 6
ENDMDL
MODEL 6
REMARK VINA RESULT:      -7.3      7.134      9.749
REMARK  Name = 
REMARK  6 active torsions:
REMARK  status: ('A' for Active; 'I' for Inactive)
REMARK    1  A    between atoms: C_2  and  C_9
REMARK    2  A    between atoms: N_3  and  C_4
REMARK    3  A    between atoms: C_9  and  C_10
REMARK    4  A    between atoms: C_9  and  N_15
REMARK    5  A    between atoms: N_15  and  C_23
REMARK    6  A    between atoms: C_16  and  C_18
REMARK                            x       y       z     vdW  Elec       q    Type
REMARK                         _______ _______ _______ _____ _____    ______ ____
ROOT
ATOM      1  C   UNL     1      -0.155  12.525  21.781  0.00  0.00    +0.000 C 
ENDROOT
BRANCH   1   2
ATOM      2  C   UNL     1      -0.011  11.063  22.119  0.00  0.00    +0.000 A 
ATOM      3  C   UNL     1      -0.811  10.089  22.682  0.00  0.00    +0.000 A 
ATOM      4  C   UNL     1      -0.053   8.889  22.689  0.00  0.00    +0.000 A 
ATOM      5  C   UNL     1       1.164   9.200  22.133  0.00  0.00    +0.000 A 
ATOM      6  O   UNL     1       1.207  10.513  21.798  0.00  0.00    +0.000 OA
ENDBRANCH   1   2
BRANCH   1   8
ATOM      7  O   UNL     1      -1.113  14.138  23.405  0.00  0.00    +0.000 OA
ATOM      8  C   UNL     1      -1.303  13.242  22.584  0.00  0.00    +0.000 C 
ATOM      9  N   UNL     1      -2.600  12.788  22.317  0.00  0.00    +0.000 N 
ATOM     10  H   UNL     1      -2.715  11.949  21.760  0.00  0.00    +0.000 HD
BRANCH   9  11
ATOM     11  C   UNL     1      -3.776  13.270  23.054  0.00  0.00    +0.000 C 
ATOM     12  C   UNL     1      -5.085  13.132  22.268  0.00  0.00    +0.000 C 
ATOM     13  C   UNL     1      -6.191  12.978  23.309  0.00  0.00    +0.000 C 
ATOM     14  C   UNL     1      -5.523  12.483  24.585  0.00  0.00    +0.000 C 
ATOM     15  C   UNL     1      -4.021  12.451  24.321  0.00  0.00    +0.000 C 
ENDBRANCH   9  11
ENDBRANCH   1   8
BRANCH   1  16
ATOM     16  N   UNL     1      -0.059  12.721  20.294  0.00  0.00    +0.000 N 
ATOM     17  C   UNL     1       0.853  13.629  19.701  0.00  0.00    +0.000 C 
ATOM     18  O   UNL     1       0.792  13.926  18.505  0.00  0.00    +0.000 OA
BRANCH  16  19
ATOM     19  C   UNL     1      -0.851  11.880  19.419  0.00  0.00    +0.000 A 
ATOM     20  C   UNL     1      -2.218  12.150  19.200  0.00  0.00    +0.000 A 
ATOM     21  C   UNL     1      -2.987  11.358  18.327  0.00  0.00    +0.000 A 
ATOM     22  C   UNL     1      -2.396  10.281  17.686  0.00  0.00    +0.000 A 
ATOM     23  F   UNL     1      -3.126   9.514  16.862  0.00  0.00    +0.000 F 
ATOM     24  C   UNL     1      -1.060   9.986  17.893  0.00  0.00    +0.000 A 
ATOM     25  C   UNL     1      -0.292  10.787  18.748  0.00  0.00    +0.000 A 
ENDBRANCH  16  19
BRANCH  17  26
ATOM     26  C   UNL     1       1.825  14.303  20.544  0.00  0.00    +0.000 A 
ATOM     27  C   UNL     1       1.815  15.580  21.078  0.00  0.00    +0.000 A 
ATOM     28  C   UNL     1       3.002  15.717  21.836  0.00  0.00    +0.000 A 
ATOM     29  C   UNL     1       3.696  14.542  21.677  0.00  0.00    +0.000 A 
ATOM     30  O   UNL     1       3.012  13.698  20.867  0.00  0.00    +0.000 OA
ENDBRANCH  17  26
ENDBRANCH   1  16
TORSDOF 6
ENDMDL
MODEL 7
REMARK VINA RESULT:      -7.3      6.151      9.679
REMARK  Name = 
REMARK  6 active torsions:
REMARK  status: ('A' for Active; 'I' for Inactive)
REMARK    1  A    between atoms: C_2  and  C_9
REMARK    2  A    between atoms: N_3  and  C_4
REMARK    3  A    between atoms: C_9  and  C_10
REMARK    4  A    between atoms: C_9  and  N_15
REMARK    5  A    between atoms: N_15  and  C_23
REMARK    6  A    between atoms: C_16  and  C_18
REMARK                            x       y       z     vdW  Elec       q    Type
REMARK                         _______ _______ _______ _____ _____    ______ ____
ROOT
ATOM      1  C   UNL     1      -0.989  12.647  20.156  0.00  0.00    +0.000 C 
ENDROOT
BRANCH   1   2
ATOM      2  C   UNL     1      -1.949  12.528  21.312  0.00  0.00    +0.000 A 
ATOM      3  C   UNL     1      -1.863  12.180  22.645  0.00  0.00    +0.000 A 
ATOM      4  C   UNL     1      -3.170  12.303  23.186  0.00  0.00    +0.000 A 
ATOM      5  C   UNL     1      -3.976  12.715  22.154  0.00  0.00    +0.000 A 
ATOM      6  O   UNL     1      -3.254  12.840  21.014  0.00  0.00    +0.000 OA
ENDBRANCH   1   2
BRANCH   1   8
ATOM      7  O   UNL     1      -1.293  12.531  17.696  0.00  0.00    +0.000 OA
ATOM      8  C   UNL     1      -1.563  12.075  18.806  0.00  0.00    +0.000 C 
ATOM      9  N   UNL     1      -2.433  10.987  18.933  0.00  0.00    +0.000 N 
ATOM     10  H   UNL     1      -2.761  10.734  19.859  0.00  0.00    +0.000 HD
BRANCH   9  11
ATOM     11  C   UNL     1      -3.142  10.401  17.788  0.00  0.00    +0.000 C 
ATOM     12  C   UNL     1      -3.944  11.429  16.979  0.00  0.00    +0.000 C 
ATOM     13  C   UNL     1      -4.005  10.892  15.552  0.00  0.00    +0.000 C 
ATOM     14  C   UNL     1      -2.842   9.919  15.401  0.00  0.00    +0.000 C 
ATOM     15  C   UNL     1      -2.171   9.810  16.767  0.00  0.00    +0.000 C 
ENDBRANCH   9  11
ENDBRANCH   1   8
BRANCH   1  16
ATOM     16  N   UNL     1       0.394  12.257  20.595  0.00  0.00    +0.000 N 
ATOM     17  C   UNL     1       1.309  13.187  21.149  0.00  0.00    +0.000 C 
ATOM     18  O   UNL     1       2.498  12.906  21.325  0.00  0.00    +0.000 OA
BRANCH  16  19
ATOM     19  C   UNL     1       0.782  10.862  20.552  0.00  0.00    +0.000 A 
ATOM     20  C   UNL     1       0.784  10.075  21.723  0.00  0.00    +0.000 A 
ATOM     21  C   UNL     1       1.129   8.711  21.685  0.00  0.00    +0.000 A 
ATOM     22  C   UNL     1       1.492   8.134  20.479  0.00  0.00    +0.000 A 
ATOM     23  F   UNL     1       1.833   6.837  20.437  0.00  0.00    +0.000 F 
ATOM     24  C   UNL     1       1.511   8.886  19.317  0.00  0.00    +0.000 A 
ATOM     25  C   UNL     1       1.150  10.239  19.355  0.00  0.00    +0.000 A 
ENDBRANCH  16  19
BRANCH  17  26
ATOM     26  C   UNL     1       0.858  14.539  21.428  0.00  0.00    +0.000 A 
ATOM     27  C   UNL     1       0.823  15.657  20.613  0.00  0.00    +0.000 A 
ATOM     28  C   UNL     1       0.276  16.710  21.384  0.00  0.00    +0.000 A 
ATOM     29  C   UNL     1       0.061  16.194  22.639  0.00  0.00    +0.000 A 
ATOM     30  O   UNL     1       0.447  14.895  22.686  0.00  0.00    +0.000 OA
ENDBRANCH  17  26
ENDBRANCH   1  16
TORSDOF 6
ENDMDL
MODEL 8
REMARK VINA RESULT:      -7.3      4.239      8.861
REMARK  Name = 
REMARK  6 active torsions:
REMARK  status: ('A' for Active; 'I' for Inactive)
REMARK    1  A    between atoms: C_2  and  C_9
REMARK    2  A    between atoms: N_3  and  C_4
REMARK    3  A    between atoms: C_9  and  C_10
REMARK    4  A    between atoms: C_9  and  N_15
REMARK    5  A    between atoms: N_15  and  C_23
REMARK    6  A    between atoms: C_16  and  C_18
REMARK                            x       y       z     vdW  Elec       q    Type
REMARK                         _______ _______ _______ _____ _____    ______ ____
ROOT
ATOM      1  C   UNL     1       0.453  10.059  19.210  0.00  0.00    +0.000 C 
ENDROOT
BRANCH   1   2
ATOM      2  C   UNL     1       0.389   9.872  20.705  0.00  0.00    +0.000 A 
ATOM      3  C   UNL     1       1.196   9.307  21.672  0.00  0.00    +0.000 A 
ATOM      4  C   UNL     1       0.540   9.497  22.916  0.00  0.00    +0.000 A 
ATOM      5  C   UNL     1      -0.628  10.163  22.637  0.00  0.00    +0.000 A 
ATOM      6  O   UNL     1      -0.738  10.382  21.304  0.00  0.00    +0.000 OA
ENDBRANCH   1   2
BRANCH   1   8
ATOM      7  O   UNL     1       2.159   9.509  17.495  0.00  0.00    +0.000 OA
ATOM      8  C   UNL     1       1.560   9.180  18.518  0.00  0.00    +0.000 C 
ATOM      9  N   UNL     1       1.836   7.957  19.139  0.00  0.00    +0.000 N 
ATOM     10  H   UNL     1       1.223   7.642  19.882  0.00  0.00    +0.000 HD
BRANCH   9  11
ATOM     11  C   UNL     1       2.760   6.969  18.567  0.00  0.00    +0.000 C 
ATOM     12  C   UNL     1       3.509   6.152  19.628  0.00  0.00    +0.000 C 
ATOM     13  C   UNL     1       3.826   4.806  18.980  0.00  0.00    +0.000 C 
ATOM     14  C   UNL     1       2.839   4.629  17.835  0.00  0.00    +0.000 C 
ATOM     15  C   UNL     1       2.020   5.913  17.747  0.00  0.00    +0.000 C 
ENDBRANCH   9  11
ENDBRANCH   1   8
BRANCH   1  16
ATOM     16  N   UNL     1       0.347  11.519  18.870  0.00  0.00    +0.000 N 
ATOM     17  C   UNL     1      -0.790  12.073  18.231  0.00  0.00    +0.000 C 
ATOM     18  O   UNL     1      -0.789  13.223  17.783  0.00  0.00    +0.000 OA
BRANCH  16  19
ATOM     19  C   UNL     1       1.396  12.421  19.299  0.00  0.00    +0.000 A 
ATOM     20  C   UNL     1       1.441  12.899  20.626  0.00  0.00    +0.000 A 
ATOM     21  C   UNL     1       2.474  13.751  21.060  0.00  0.00    +0.000 A 
ATOM     22  C   UNL     1       3.455  14.144  20.164  0.00  0.00    +0.000 A 
ATOM     23  F   UNL     1       4.436  14.964  20.567  0.00  0.00    +0.000 F 
ATOM     24  C   UNL     1       3.428  13.700  18.853  0.00  0.00    +0.000 A 
ATOM     25  C   UNL     1       2.408  12.837  18.428  0.00  0.00    +0.000 A 
ENDBRANCH  16  19
BRANCH  17  26
ATOM     26  C   UNL     1      -1.955  11.233  18.012  0.00  0.00    +0.000 A 
ATOM     27  C   UNL     1      -2.083  10.046  17.312  0.00  0.00    +0.000 A 
ATOM     28  C   UNL     1      -3.435   9.645  17.430  0.00  0.00    +0.000 A 
ATOM     29  C   UNL     1      -4.067  10.634  18.143  0.00  0.00    +0.000 A 
ATOM     30  O   UNL     1      -3.190  11.616  18.464  0.00  0.00    +0.000 OA
ENDBRANCH  17  26
ENDBRANCH   1  16
TORSDOF 6
ENDMDL
MODEL 9
REMARK VINA RESULT:      -7.2      8.136     10.712
REMARK  Name = 
REMARK  6 active torsions:
REMARK  status: ('A' for Active; 'I' for Inactive)
REMARK    1  A    between atoms: C_2  and  C_9
REMARK    2  A    between atoms: N_3  and  C_4
REMARK    3  A    between atoms: C_9  and  C_10
REMARK    4  A    between atoms: C_9  and  N_15
REMARK    5  A    between atoms: N_15  and  C_23
REMARK    6  A    between atoms: C_16  and  C_18
REMARK                            x       y       z     vdW  Elec       q    Type
REMARK                         _______ _______ _______ _____ _____    ______ ____
ROOT
ATOM      1  C   UNL     1       8.780  14.978  19.244  0.00  0.00    +0.000 C 
ENDROOT
BRANCH   1   2
ATOM      2  C   UNL     1       8.785  14.715  20.729  0.00  0.00    +0.000 A 
ATOM      3  C   UNL     1       9.600  15.041  21.794  0.00  0.00    +0.000 A 
ATOM      4  C   UNL     1       9.000  14.484  22.954  0.00  0.00    +0.000 A 
ATOM      5  C   UNL     1       7.858  13.850  22.530  0.00  0.00    +0.000 A 
ATOM      6  O   UNL     1       7.725  13.970  21.187  0.00  0.00    +0.000 OA
ENDBRANCH   1   2
BRANCH   1   8
ATOM      7  O   UNL     1       7.007  14.929  17.510  0.00  0.00    +0.000 OA
ATOM      8  C   UNL     1       7.340  15.220  18.658  0.00  0.00    +0.000 C 
ATOM      9  N   UNL     1       6.422  15.810  19.534  0.00  0.00    +0.000 N 
ATOM     10  H   UNL     1       6.762  16.182  20.413  0.00  0.00    +0.000 HD
BRANCH   9  11
ATOM     11  C   UNL     1       5.070  16.205  19.117  0.00  0.00    +0.000 C 
ATOM     12  C   UNL     1       4.034  15.085  19.277  0.00  0.00    +0.000 C 
ATOM     13  C   UNL     1       2.693  15.778  19.502  0.00  0.00    +0.000 C 
ATOM     14  C   UNL     1       3.004  17.178  20.014  0.00  0.00    +0.000 C 
ATOM     15  C   UNL     1       4.521  17.337  19.984  0.00  0.00    +0.000 C 
ENDBRANCH   9  11
ENDBRANCH   1   8
BRANCH   1  16
ATOM     16  N   UNL     1       9.711  14.023  18.551  0.00  0.00    +0.000 N 
ATOM     17  C   UNL     1      10.871  14.454  17.861  0.00  0.00    +0.000 C 
ATOM     18  O   UNL     1      11.518  13.694  17.135  0.00  0.00    +0.000 OA
BRANCH  16  19
ATOM     19  C   UNL     1       9.480  12.598  18.672  0.00  0.00    +0.000 A 
ATOM     20  C   UNL     1       8.681  11.912  17.734  0.00  0.00    +0.000 A 
ATOM     21  C   UNL     1       8.477  10.523  17.826  0.00  0.00    +0.000 A 
ATOM     22  C   UNL     1       9.054   9.818  18.869  0.00  0.00    +0.000 A 
ATOM     23  F   UNL     1       8.855   8.495  18.971  0.00  0.00    +0.000 F 
ATOM     24  C   UNL     1       9.832  10.468  19.812  0.00  0.00    +0.000 A 
ATOM     25  C   UNL     1      10.049  11.848  19.707  0.00  0.00    +0.000 A 
ENDBRANCH  16  19
BRANCH  17  26
ATOM     26  C   UNL     1      11.255  15.854  17.933  0.00  0.00    +0.000 A 
ATOM     27  C   UNL     1      12.099  16.507  18.815  0.00  0.00    +0.000 A 
ATOM     28  C   UNL     1      12.129  17.866  18.423  0.00  0.00    +0.000 A 
ATOM     29  C   UNL     1      11.262  17.979  17.365  0.00  0.00    +0.000 A 
ATOM     30  O   UNL     1      10.699  16.777  17.087  0.00  0.00    +0.000 OA
ENDBRANCH  17  26
ENDBRANCH   1  16
TORSDOF 6
ENDMDL
