MODEL 1
REMARK VINA RESULT:      -7.6      0.000      0.000
REMARK  Name = 
REMARK  9 active torsions:
REMARK  status: ('A' for Active; 'I' for Inactive)
REMARK    1  A    between atoms: C_1  and  C_2
REMARK    2  A    between atoms: C_2  and  C_3
REMARK    3  A    between atoms: C_3  and  O_4
REMARK    4  A    between atoms: O_4  and  C_5
REMARK    5  A    between atoms: C_8  and  C_9
REMARK    6  A    between atoms: C_9  and  C_10
REMARK    7  A    between atoms: C_9  and  C_14
REMARK    8  A    between atoms: C_10  and  C_11
REMARK    9  A    between atoms: C_11  and  O_13
REMARK                            x       y       z     vdW  Elec       q    Type
REMARK                         _______ _______ _______ _____ _____    ______ ____
ROOT
ATOM      1  C   UNL     1       5.756   4.626  16.394  0.00  0.00    +0.000 C 
ENDROOT
BRANCH   1   5
ATOM      2  C   UNL     1       1.845   3.708  18.122  0.00  0.00    +0.000 A 
ATOM      3  C   UNL     1       2.288   5.019  18.000  0.00  0.00    +0.000 A 
ATOM      4  C   UNL     1       3.549   5.314  17.491  0.00  0.00    +0.000 A 
ATOM      5  C   UNL     1       4.405   4.300  17.043  0.00  0.00    +0.000 A 
ATOM      6  C   UNL     1       3.956   2.973  17.168  0.00  0.00    +0.000 A 
ATOM      7  C   UNL     1       2.694   2.682  17.712  0.00  0.00    +0.000 A 
BRANCH   2   8
ATOM      8  O   UNL     1       0.614   3.356  18.623  0.00  0.00    +0.000 OA
BRANCH   8   9
ATOM      9  C   UNL     1       0.686   2.601  19.837  0.00  0.00    +0.000 C 
BRANCH   9  11
ATOM     10  C   UNL     1       2.423   2.676  21.614  0.00  0.00    +0.000 C 
ATOM     11  C   UNL     1       1.253   3.423  20.986  0.00  0.00    +0.000 C 
ENDBRANCH   9  11
ENDBRANCH   8   9
ENDBRANCH   2   8
ENDBRANCH   1   5
BRANCH   1  12
ATOM     12  C   UNL     1       6.589   5.590  17.240  0.00  0.00    +0.000 A 
ATOM     13  C   UNL     1       7.221   5.140  18.409  0.00  0.00    +0.000 A 
ATOM     14  C   UNL     1       8.051   5.992  19.141  0.00  0.00    +0.000 A 
ATOM     15  C   UNL     1       8.266   7.300  18.711  0.00  0.00    +0.000 A 
ATOM     16  C   UNL     1       7.635   7.766  17.560  0.00  0.00    +0.000 A 
ATOM     17  C   UNL     1       6.798   6.919  16.832  0.00  0.00    +0.000 A 
ENDBRANCH   1  12
BRANCH   1  18
ATOM     18  C   UNL     1       5.688   5.217  14.962  0.00  0.00    +0.000 C 
BRANCH  18  19
ATOM     19  C   UNL     1       6.800   4.735  14.062  0.00  0.00    +0.000 C 
ATOM     20  O   UNL     1       7.830   5.346  13.830  0.00  0.00    +0.000 OA
BRANCH  19  21
ATOM     21  O   UNL     1       6.538   3.529  13.501  0.00  0.00    +0.000 OA
ATOM     22  H   UNL     1       6.750   3.463  12.551  0.00  0.00    +0.000 HD
ENDBRANCH  19  21
ENDBRANCH  18  19
ENDBRANCH   1  18
TORSDOF 8
ENDMDL
MODEL 2
REMARK VINA RESULT:      -7.5      0.522      1.571
REMARK  Name = 
REMARK  9 active torsions:
REMARK  status: ('A' for Active; 'I' for Inactive)
REMARK    1  A    between atoms: C_1  and  C_2
REMARK    2  A    between atoms: C_2  and  C_3
REMARK    3  A    between atoms: C_3  and  O_4
REMARK    4  A    between atoms: O_4  and  C_5
REMARK    5  A    between atoms: C_8  and  C_9
REMARK    6  A    between atoms: C_9  and  C_10
REMARK    7  A    between atoms: C_9  and  C_14
REMARK    8  A    between atoms: C_10  and  C_11
REMARK    9  A    between atoms: C_11  and  O_13
REMARK                            x       y       z     vdW  Elec       q    Type
REMARK                         _______ _______ _______ _____ _____    ______ ____
ROOT
ATOM      1  C   UNL     1       5.761   4.467  16.281  0.00  0.00    +0.000 C 
ENDROOT
BRANCH   1   5
ATOM      2  C   UNL     1       2.086   3.557  18.469  0.00  0.00    +0.000 A 
ATOM      3  C   UNL     1       2.951   2.548  18.064  0.00  0.00    +0.000 A 
ATOM      4  C   UNL     1       4.099   2.828  17.330  0.00  0.00    +0.000 A 
ATOM      5  C   UNL     1       4.449   4.145  17.007  0.00  0.00    +0.000 A 
ATOM      6  C   UNL     1       3.572   5.166  17.416  0.00  0.00    +0.000 A 
ATOM      7  C   UNL     1       2.398   4.872  18.130  0.00  0.00    +0.000 A 
BRANCH   2   8
ATOM      8  O   UNL     1       0.935   3.340  19.188  0.00  0.00    +0.000 OA
BRANCH   8   9
ATOM      9  C   UNL     1       0.815   4.176  20.344  0.00  0.00    +0.000 C 
BRANCH   9  11
ATOM     10  C   UNL     1       1.753   2.431  21.845  0.00  0.00    +0.000 C 
ATOM     11  C   UNL     1       1.891   3.874  21.378  0.00  0.00    +0.000 C 
ENDBRANCH   9  11
ENDBRANCH   8   9
ENDBRANCH   2   8
ENDBRANCH   1   5
BRANCH   1  12
ATOM     12  C   UNL     1       6.660   5.401  17.093  0.00  0.00    +0.000 A 
ATOM     13  C   UNL     1       6.858   6.727  16.679  0.00  0.00    +0.000 A 
ATOM     14  C   UNL     1       7.609   7.610  17.459  0.00  0.00    +0.000 A 
ATOM     15  C   UNL     1       8.164   7.181  18.663  0.00  0.00    +0.000 A 
ATOM     16  C   UNL     1       7.988   5.864  19.081  0.00  0.00    +0.000 A 
ATOM     17  C   UNL     1       7.246   4.978  18.299  0.00  0.00    +0.000 A 
ENDBRANCH   1  12
BRANCH   1  18
ATOM     18  C   UNL     1       5.612   5.092  14.870  0.00  0.00    +0.000 C 
BRANCH  18  19
ATOM     19  C   UNL     1       6.642   4.598  13.884  0.00  0.00    +0.000 C 
ATOM     20  O   UNL     1       7.597   5.243  13.482  0.00  0.00    +0.000 OA
BRANCH  19  21
ATOM     21  O   UNL     1       6.398   3.334  13.456  0.00  0.00    +0.000 OA
ATOM     22  H   UNL     1       7.181   2.751  13.428  0.00  0.00    +0.000 HD
ENDBRANCH  19  21
ENDBRANCH  18  19
ENDBRANCH   1  18
TORSDOF 8
ENDMDL
MODEL 3
REMARK VINA RESULT:      -7.4      0.370      1.314
REMARK  Name = 
REMARK  9 active torsions:
REMARK  status: ('A' for Active; 'I' for Inactive)
REMARK    1  A    between atoms: C_1  and  C_2
REMARK    2  A    between atoms: C_2  and  C_3
REMARK    3  A    between atoms: C_3  and  O_4
REMARK    4  A    between atoms: O_4  and  C_5
REMARK    5  A    between atoms: C_8  and  C_9
REMARK    6  A    between atoms: C_9  and  C_10
REMARK    7  A    between atoms: C_9  and  C_14
REMARK    8  A    between atoms: C_10  and  C_11
REMARK    9  A    between atoms: C_11  and  O_13
REMARK                            x       y       z     vdW  Elec       q    Type
REMARK                         _______ _______ _______ _____ _____    ______ ____
ROOT
ATOM      1  C   UNL     1       5.817   4.619  16.284  0.00  0.00    +0.000 C 
ENDROOT
BRANCH   1   5
ATOM      2  C   UNL     1       1.961   3.701  18.131  0.00  0.00    +0.000 A 
ATOM      3  C   UNL     1       2.409   5.011  18.014  0.00  0.00    +0.000 A 
ATOM      4  C   UNL     1       3.653   5.305  17.466  0.00  0.00    +0.000 A 
ATOM      5  C   UNL     1       4.486   4.293  16.974  0.00  0.00    +0.000 A 
ATOM      6  C   UNL     1       4.033   2.967  17.095  0.00  0.00    +0.000 A 
ATOM      7  C   UNL     1       2.787   2.675  17.677  0.00  0.00    +0.000 A 
BRANCH   2   8
ATOM      8  O   UNL     1       0.745   3.349  18.669  0.00  0.00    +0.000 OA
BRANCH   8   9
ATOM      9  C   UNL     1       0.614   3.683  20.055  0.00  0.00    +0.000 C 
BRANCH   9  11
ATOM     10  C   UNL     1       2.325   3.451  21.844  0.00  0.00    +0.000 C 
ATOM     11  C   UNL     1       1.348   2.695  20.951  0.00  0.00    +0.000 C 
ENDBRANCH   9  11
ENDBRANCH   8   9
ENDBRANCH   2   8
ENDBRANCH   1   5
BRANCH   1  12
ATOM     12  C   UNL     1       6.714   5.510  17.145  0.00  0.00    +0.000 A 
ATOM     13  C   UNL     1       6.899   6.860  16.811  0.00  0.00    +0.000 A 
ATOM     14  C   UNL     1       7.648   7.700  17.637  0.00  0.00    +0.000 A 
ATOM     15  C   UNL     1       8.217   7.204  18.809  0.00  0.00    +0.000 A 
ATOM     16  C   UNL     1       8.054   5.863  19.147  0.00  0.00    +0.000 A 
ATOM     17  C   UNL     1       7.313   5.019  18.318  0.00  0.00    +0.000 A 
ENDBRANCH   1  12
BRANCH   1  18
ATOM     18  C   UNL     1       5.703   5.295  14.893  0.00  0.00    +0.000 C 
BRANCH  18  19
ATOM     19  C   UNL     1       6.663   4.733  13.874  0.00  0.00    +0.000 C 
ATOM     20  O   UNL     1       6.462   3.742  13.191  0.00  0.00    +0.000 OA
BRANCH  19  21
ATOM     21  O   UNL     1       7.818   5.440  13.793  0.00  0.00    +0.000 OA
ATOM     22  H   UNL     1       8.210   5.687  14.652  0.00  0.00    +0.000 HD
ENDBRANCH  19  21
ENDBRANCH  18  19
ENDBRANCH   1  18
TORSDOF 8
ENDMDL
MODEL 4
REMARK VINA RESULT:      -7.1      0.581      1.174
REMARK  Name = 
REMARK  9 active torsions:
REMARK  status: ('A' for Active; 'I' for Inactive)
REMARK    1  A    between atoms: C_1  and  C_2
REMARK    2  A    between atoms: C_2  and  C_3
REMARK    3  A    between atoms: C_3  and  O_4
REMARK    4  A    between atoms: O_4  and  C_5
REMARK    5  A    between atoms: C_8  and  C_9
REMARK    6  A    between atoms: C_9  and  C_10
REMARK    7  A    between atoms: C_9  and  C_14
REMARK    8  A    between atoms: C_10  and  C_11
REMARK    9  A    between atoms: C_11  and  O_13
REMARK                            x       y       z     vdW  Elec       q    Type
REMARK                         _______ _______ _______ _____ _____    ______ ____
ROOT
ATOM      1  C   UNL     1       5.729   4.282  16.237  0.00  0.00    +0.000 C 
ENDROOT
BRANCH   1   5
ATOM      2  C   UNL     1       1.989   3.058  18.142  0.00  0.00    +0.000 A 
ATOM      3  C   UNL     1       3.024   2.153  17.943  0.00  0.00    +0.000 A 
ATOM      4  C   UNL     1       4.199   2.527  17.299  0.00  0.00    +0.000 A 
ATOM      5  C   UNL     1       4.399   3.842  16.862  0.00  0.00    +0.000 A 
ATOM      6  C   UNL     1       3.350   4.757  17.062  0.00  0.00    +0.000 A 
ATOM      7  C   UNL     1       2.154   4.364  17.686  0.00  0.00    +0.000 A 
BRANCH   2   8
ATOM      8  O   UNL     1       0.803   2.745  18.764  0.00  0.00    +0.000 OA
BRANCH   8   9
ATOM      9  C   UNL     1       0.885   2.757  20.193  0.00  0.00    +0.000 C 
BRANCH   9  11
ATOM     10  C   UNL     1       2.460   4.115  21.556  0.00  0.00    +0.000 C 
ATOM     11  C   UNL     1       1.177   4.150  20.735  0.00  0.00    +0.000 C 
ENDBRANCH   9  11
ENDBRANCH   8   9
ENDBRANCH   2   8
ENDBRANCH   1   5
BRANCH   1  12
ATOM     12  C   UNL     1       6.504   5.245  17.137  0.00  0.00    +0.000 A 
ATOM     13  C   UNL     1       7.240   4.756  18.227  0.00  0.00    +0.000 A 
ATOM     14  C   UNL     1       8.017   5.619  19.003  0.00  0.00    +0.000 A 
ATOM     15  C   UNL     1       8.073   6.977  18.698  0.00  0.00    +0.000 A 
ATOM     16  C   UNL     1       7.338   7.480  17.627  0.00  0.00    +0.000 A 
ATOM     17  C   UNL     1       6.553   6.621  16.856  0.00  0.00    +0.000 A 
ENDBRANCH   1  12
BRANCH   1  18
ATOM     18  C   UNL     1       5.627   4.945  14.839  0.00  0.00    +0.000 C 
BRANCH  18  19
ATOM     19  C   UNL     1       6.779   4.602  13.927  0.00  0.00    +0.000 C 
ATOM     20  O   UNL     1       7.802   5.257  13.809  0.00  0.00    +0.000 OA
BRANCH  19  21
ATOM     21  O   UNL     1       6.566   3.469  13.213  0.00  0.00    +0.000 OA
ATOM     22  H   UNL     1       7.370   2.956  13.006  0.00  0.00    +0.000 HD
ENDBRANCH  19  21
ENDBRANCH  18  19
ENDBRANCH   1  18
TORSDOF 8
ENDMDL
MODEL 5
REMARK VINA RESULT:      -7.1      1.913      3.762
REMARK  Name = 
REMARK  9 active torsions:
REMARK  status: ('A' for Active; 'I' for Inactive)
REMARK    1  A    between atoms: C_1  and  C_2
REMARK    2  A    between atoms: C_2  and  C_3
REMARK    3  A    between atoms: C_3  and  O_4
REMARK    4  A    between atoms: O_4  and  C_5
REMARK    5  A    between atoms: C_8  and  C_9
REMARK    6  A    between atoms: C_9  and  C_10
REMARK    7  A    between atoms: C_9  and  C_14
REMARK    8  A    between atoms: C_10  and  C_11
REMARK    9  A    between atoms: C_11  and  O_13
REMARK                            x       y       z     vdW  Elec       q    Type
REMARK                         _______ _______ _______ _____ _____    ______ ____
ROOT
ATOM      1  C   UNL     1       6.102   5.325  16.439  0.00  0.00    +0.000 C 
ENDROOT
BRANCH   1   5
ATOM      2  C   UNL     1       2.228   4.071  18.034  0.00  0.00    +0.000 A 
ATOM      3  C   UNL     1       3.166   3.140  17.606  0.00  0.00    +0.000 A 
ATOM      4  C   UNL     1       4.382   3.534  17.059  0.00  0.00    +0.000 A 
ATOM      5  C   UNL     1       4.725   4.888  16.954  0.00  0.00    +0.000 A 
ATOM      6  C   UNL     1       3.774   5.831  17.385  0.00  0.00    +0.000 A 
ATOM      7  C   UNL     1       2.535   5.424  17.909  0.00  0.00    +0.000 A 
BRANCH   2   8
ATOM      8  O   UNL     1       1.008   3.742  18.576  0.00  0.00    +0.000 OA
BRANCH   8   9
ATOM      9  C   UNL     1       1.071   2.667  19.519  0.00  0.00    +0.000 C 
BRANCH   9  11
ATOM     10  C   UNL     1       2.520   2.733  21.538  0.00  0.00    +0.000 C 
ATOM     11  C   UNL     1       1.185   3.172  20.950  0.00  0.00    +0.000 C 
ENDBRANCH   9  11
ENDBRANCH   8   9
ENDBRANCH   2   8
ENDBRANCH   1   5
BRANCH   1  12
ATOM     12  C   UNL     1       6.328   4.930  14.979  0.00  0.00    +0.000 A 
ATOM     13  C   UNL     1       7.481   5.356  14.303  0.00  0.00    +0.000 A 
ATOM     14  C   UNL     1       7.736   4.931  12.997  0.00  0.00    +0.000 A 
ATOM     15  C   UNL     1       6.847   4.073  12.353  0.00  0.00    +0.000 A 
ATOM     16  C   UNL     1       5.690   3.653  13.006  0.00  0.00    +0.000 A 
ATOM     17  C   UNL     1       5.429   4.084  14.308  0.00  0.00    +0.000 A 
ENDBRANCH   1  12
BRANCH   1  18
ATOM     18  C   UNL     1       7.317   4.801  17.246  0.00  0.00    +0.000 C 
BRANCH  18  19
ATOM     19  C   UNL     1       7.588   5.593  18.502  0.00  0.00    +0.000 C 
ATOM     20  O   UNL     1       7.507   5.157  19.639  0.00  0.00    +0.000 OA
BRANCH  19  21
ATOM     21  O   UNL     1       7.924   6.882  18.250  0.00  0.00    +0.000 OA
ATOM     22  H   UNL     1       7.392   7.318  17.558  0.00  0.00    +0.000 HD
ENDBRANCH  19  21
ENDBRANCH  18  19
ENDBRANCH   1  18
TORSDOF 8
ENDMDL
MODEL 6
REMARK VINA RESULT:      -7.1      2.341      6.801
REMARK  Name = 
REMARK  9 active torsions:
REMARK  status: ('A' for Active; 'I' for Inactive)
REMARK    1  A    between atoms: C_1  and  C_2
REMARK    2  A    between atoms: C_2  and  C_3
REMARK    3  A    between atoms: C_3  and  O_4
REMARK    4  A    between atoms: O_4  and  C_5
REMARK    5  A    between atoms: C_8  and  C_9
REMARK    6  A    between atoms: C_9  and  C_10
REMARK    7  A    between atoms: C_9  and  C_14
REMARK    8  A    between atoms: C_10  and  C_11
REMARK    9  A    between atoms: C_11  and  O_13
REMARK                            x       y       z     vdW  Elec       q    Type
REMARK                         _______ _______ _______ _____ _____    ______ ____
ROOT
ATOM      1  C   UNL     1       3.215   6.235  18.909  0.00  0.00    +0.000 C 
ENDROOT
BRANCH   1   5
ATOM      2  C   UNL     1       6.498   5.335  16.164  0.00  0.00    +0.000 A 
ATOM      3  C   UNL     1       5.610   6.372  15.907  0.00  0.00    +0.000 A 
ATOM      4  C   UNL     1       4.539   6.635  16.755  0.00  0.00    +0.000 A 
ATOM      5  C   UNL     1       4.338   5.889  17.923  0.00  0.00    +0.000 A 
ATOM      6  C   UNL     1       5.237   4.838  18.181  0.00  0.00    +0.000 A 
ATOM      7  C   UNL     1       6.299   4.559  17.303  0.00  0.00    +0.000 A 
BRANCH   2   8
ATOM      8  O   UNL     1       7.569   5.023  15.360  0.00  0.00    +0.000 OA
BRANCH   8   9
ATOM      9  C   UNL     1       7.226   4.883  13.977  0.00  0.00    +0.000 C 
BRANCH   9  11
ATOM     10  C   UNL     1       6.168   3.405  12.282  0.00  0.00    +0.000 C 
ATOM     11  C   UNL     1       6.189   3.791  13.756  0.00  0.00    +0.000 C 
ENDBRANCH   9  11
ENDBRANCH   8   9
ENDBRANCH   2   8
ENDBRANCH   1   5
BRANCH   1  12
ATOM     12  C   UNL     1       2.444   4.998  19.369  0.00  0.00    +0.000 A 
ATOM     13  C   UNL     1       2.407   4.653  20.729  0.00  0.00    +0.000 A 
ATOM     14  C   UNL     1       1.637   3.574  21.167  0.00  0.00    +0.000 A 
ATOM     15  C   UNL     1       0.890   2.830  20.256  0.00  0.00    +0.000 A 
ATOM     16  C   UNL     1       0.927   3.151  18.901  0.00  0.00    +0.000 A 
ATOM     17  C   UNL     1       1.703   4.224  18.459  0.00  0.00    +0.000 A 
ENDBRANCH   1  12
BRANCH   1  18
ATOM     18  C   UNL     1       2.170   7.262  18.401  0.00  0.00    +0.000 C 
BRANCH  18  19
ATOM     19  C   UNL     1       1.793   8.294  19.436  0.00  0.00    +0.000 C 
ATOM     20  O   UNL     1       1.758   8.101  20.640  0.00  0.00    +0.000 OA
BRANCH  19  21
ATOM     21  O   UNL     1       1.468   9.492  18.890  0.00  0.00    +0.000 OA
ATOM     22  H   UNL     1       0.955   9.441  18.062  0.00  0.00    +0.000 HD
ENDBRANCH  19  21
ENDBRANCH  18  19
ENDBRANCH   1  18
TORSDOF 8
ENDMDL
MODEL 7
REMARK VINA RESULT:      -7.1      1.877      3.708
REMARK  Name = 
REMARK  9 active torsions:
REMARK  status: ('A' for Active; 'I' for Inactive)
REMARK    1  A    between atoms: C_1  and  C_2
REMARK    2  A    between atoms: C_2  and  C_3
REMARK    3  A    between atoms: C_3  and  O_4
REMARK    4  A    between atoms: O_4  and  C_5
REMARK    5  A    between atoms: C_8  and  C_9
REMARK    6  A    between atoms: C_9  and  C_10
REMARK    7  A    between atoms: C_9  and  C_14
REMARK    8  A    between atoms: C_10  and  C_11
REMARK    9  A    between atoms: C_11  and  O_13
REMARK                            x       y       z     vdW  Elec       q    Type
REMARK                         _______ _______ _______ _____ _____    ______ ____
ROOT
ATOM      1  C   UNL     1       6.154   5.194  16.485  0.00  0.00    +0.000 C 
ENDROOT
BRANCH   1   5
ATOM      2  C   UNL     1       2.203   4.047  17.964  0.00  0.00    +0.000 A 
ATOM      3  C   UNL     1       3.119   3.091  17.545  0.00  0.00    +0.000 A 
ATOM      4  C   UNL     1       4.361   3.453  17.034  0.00  0.00    +0.000 A 
ATOM      5  C   UNL     1       4.751   4.796  16.959  0.00  0.00    +0.000 A 
ATOM      6  C   UNL     1       3.821   5.763  17.383  0.00  0.00    +0.000 A 
ATOM      7  C   UNL     1       2.557   5.391  17.870  0.00  0.00    +0.000 A 
BRANCH   2   8
ATOM      8  O   UNL     1       0.959   3.750  18.471  0.00  0.00    +0.000 OA
BRANCH   8   9
ATOM      9  C   UNL     1       0.986   2.784  19.527  0.00  0.00    +0.000 C 
BRANCH   9  11
ATOM     10  C   UNL     1       2.478   2.783  21.516  0.00  0.00    +0.000 C 
ATOM     11  C   UNL     1       1.252   3.427  20.881  0.00  0.00    +0.000 C 
ENDBRANCH   9  11
ENDBRANCH   8   9
ENDBRANCH   2   8
ENDBRANCH   1   5
BRANCH   1  12
ATOM     12  C   UNL     1       6.417   4.780  15.036  0.00  0.00    +0.000 A 
ATOM     13  C   UNL     1       5.510   3.946  14.365  0.00  0.00    +0.000 A 
ATOM     14  C   UNL     1       5.699   3.631  13.017  0.00  0.00    +0.000 A 
ATOM     15  C   UNL     1       6.790   4.150  12.323  0.00  0.00    +0.000 A 
ATOM     16  C   UNL     1       7.707   4.968  12.980  0.00  0.00    +0.000 A 
ATOM     17  C   UNL     1       7.525   5.276  14.329  0.00  0.00    +0.000 A 
ENDBRANCH   1  12
BRANCH   1  18
ATOM     18  C   UNL     1       7.330   4.649  17.336  0.00  0.00    +0.000 C 
BRANCH  18  19
ATOM     19  C   UNL     1       7.723   5.564  18.470  0.00  0.00    +0.000 C 
ATOM     20  O   UNL     1       8.034   5.200  19.592  0.00  0.00    +0.000 OA
BRANCH  19  21
ATOM     21  O   UNL     1       7.683   6.876  18.126  0.00  0.00    +0.000 OA
ATOM     22  H   UNL     1       6.812   7.302  18.233  0.00  0.00    +0.000 HD
ENDBRANCH  19  21
ENDBRANCH  18  19
ENDBRANCH   1  18
TORSDOF 8
ENDMDL
MODEL 8
REMARK VINA RESULT:      -7.0      1.028      1.690
REMARK  Name = 
REMARK  9 active torsions:
REMARK  status: ('A' for Active; 'I' for Inactive)
REMARK    1  A    between atoms: C_1  and  C_2
REMARK    2  A    between atoms: C_2  and  C_3
REMARK    3  A    between atoms: C_3  and  O_4
REMARK    4  A    between atoms: O_4  and  C_5
REMARK    5  A    between atoms: C_8  and  C_9
REMARK    6  A    between atoms: C_9  and  C_10
REMARK    7  A    between atoms: C_9  and  C_14
REMARK    8  A    between atoms: C_10  and  C_11
REMARK    9  A    between atoms: C_11  and  O_13
REMARK                            x       y       z     vdW  Elec       q    Type
REMARK                         _______ _______ _______ _____ _____    ______ ____
ROOT
ATOM      1  C   UNL     1       5.958   4.278  16.478  0.00  0.00    +0.000 C 
ENDROOT
BRANCH   1   5
ATOM      2  C   UNL     1       2.718   2.637  18.914  0.00  0.00    +0.000 A 
ATOM      3  C   UNL     1       2.541   2.895  17.561  0.00  0.00    +0.000 A 
ATOM      4  C   UNL     1       3.554   3.457  16.791  0.00  0.00    +0.000 A 
ATOM      5  C   UNL     1       4.808   3.747  17.344  0.00  0.00    +0.000 A 
ATOM      6  C   UNL     1       4.986   3.487  18.715  0.00  0.00    +0.000 A 
ATOM      7  C   UNL     1       3.947   2.947  19.492  0.00  0.00    +0.000 A 
BRANCH   2   8
ATOM      8  O   UNL     1       1.753   2.090  19.726  0.00  0.00    +0.000 OA
BRANCH   8   9
ATOM      9  C   UNL     1       1.394   2.925  20.832  0.00  0.00    +0.000 C 
BRANCH   9  11
ATOM     10  C   UNL     1       1.680   5.394  20.779  0.00  0.00    +0.000 C 
ATOM     11  C   UNL     1       0.773   4.237  20.377  0.00  0.00    +0.000 C 
ENDBRANCH   9  11
ENDBRANCH   8   9
ENDBRANCH   2   8
ENDBRANCH   1   5
BRANCH   1  12
ATOM     12  C   UNL     1       6.763   5.368  17.188  0.00  0.00    +0.000 A 
ATOM     13  C   UNL     1       6.654   6.706  16.779  0.00  0.00    +0.000 A 
ATOM     14  C   UNL     1       7.320   7.717  17.474  0.00  0.00    +0.000 A 
ATOM     15  C   UNL     1       8.097   7.407  18.588  0.00  0.00    +0.000 A 
ATOM     16  C   UNL     1       8.226   6.082  18.998  0.00  0.00    +0.000 A 
ATOM     17  C   UNL     1       7.568   5.068  18.299  0.00  0.00    +0.000 A 
ENDBRANCH   1  12
BRANCH   1  18
ATOM     18  C   UNL     1       5.550   4.841  15.093  0.00  0.00    +0.000 C 
BRANCH  18  19
ATOM     19  C   UNL     1       6.540   4.519  14.000  0.00  0.00    +0.000 C 
ATOM     20  O   UNL     1       7.450   5.247  13.639  0.00  0.00    +0.000 OA
BRANCH  19  21
ATOM     21  O   UNL     1       6.313   3.313  13.423  0.00  0.00    +0.000 OA
ATOM     22  H   UNL     1       5.532   2.835  13.763  0.00  0.00    +0.000 HD
ENDBRANCH  19  21
ENDBRANCH  18  19
ENDBRANCH   1  18
TORSDOF 8
ENDMDL
MODEL 9
REMARK VINA RESULT:      -7.0      3.411      5.539
REMARK  Name = 
REMARK  9 active torsions:
REMARK  status: ('A' for Active; 'I' for Inactive)
REMARK    1  A    between atoms: C_1  and  C_2
REMARK    2  A    between atoms: C_2  and  C_3
REMARK    3  A    between atoms: C_3  and  O_4
REMARK    4  A    between atoms: O_4  and  C_5
REMARK    5  A    between atoms: C_8  and  C_9
REMARK    6  A    between atoms: C_9  and  C_10
REMARK    7  A    between atoms: C_9  and  C_14
REMARK    8  A    between atoms: C_10  and  C_11
REMARK    9  A    between atoms: C_11  and  O_13
REMARK                            x       y       z     vdW  Elec       q    Type
REMARK                         _______ _______ _______ _____ _____    ______ ____
ROOT
ATOM      1  C   UNL     1       3.004   4.908  18.629  0.00  0.00    +0.000 C 
ENDROOT
BRANCH   1   5
ATOM      2  C   UNL     1       1.543   8.952  19.421  0.00  0.00    +0.000 A 
ATOM      3  C   UNL     1       2.036   8.597  18.172  0.00  0.00    +0.000 A 
ATOM      4  C   UNL     1       2.541   7.325  17.927  0.00  0.00    +0.000 A 
ATOM      5  C   UNL     1       2.536   6.339  18.921  0.00  0.00    +0.000 A 
ATOM      6  C   UNL     1       2.038   6.699  20.186  0.00  0.00    +0.000 A 
ATOM      7  C   UNL     1       1.557   7.996  20.435  0.00  0.00    +0.000 A 
BRANCH   2   8
ATOM      8  O   UNL     1       1.038  10.195  19.725  0.00  0.00    +0.000 OA
BRANCH   8   9
ATOM      9  C   UNL     1       0.220  10.749  18.689  0.00  0.00    +0.000 C 
BRANCH   9  11
ATOM     10  C   UNL     1      -1.738  10.010  17.347  0.00  0.00    +0.000 C 
ATOM     11  C   UNL     1      -1.212  10.238  18.759  0.00  0.00    +0.000 C 
ENDBRANCH   9  11
ENDBRANCH   8   9
ENDBRANCH   2   8
ENDBRANCH   1   5
BRANCH   1  12
ATOM     12  C   UNL     1       4.416   4.867  18.043  0.00  0.00    +0.000 A 
ATOM     13  C   UNL     1       5.518   5.239  18.829  0.00  0.00    +0.000 A 
ATOM     14  C   UNL     1       6.817   5.125  18.330  0.00  0.00    +0.000 A 
ATOM     15  C   UNL     1       7.033   4.634  17.044  0.00  0.00    +0.000 A 
ATOM     16  C   UNL     1       5.949   4.273  16.247  0.00  0.00    +0.000 A 
ATOM     17  C   UNL     1       4.649   4.395  16.740  0.00  0.00    +0.000 A 
ENDBRANCH   1  12
BRANCH   1  18
ATOM     18  C   UNL     1       2.094   4.084  17.682  0.00  0.00    +0.000 C 
BRANCH  18  19
ATOM     19  C   UNL     1       1.620   2.785  18.287  0.00  0.00    +0.000 C 
ATOM     20  O   UNL     1       0.739   2.680  19.125  0.00  0.00    +0.000 OA
BRANCH  19  21
ATOM     21  O   UNL     1       2.293   1.707  17.813  0.00  0.00    +0.000 OA
ATOM     22  H   UNL     1       2.052   1.437  16.907  0.00  0.00    +0.000 HD
ENDBRANCH  19  21
ENDBRANCH  18  19
ENDBRANCH   1  18
TORSDOF 8
ENDMDL
