MODEL 1
REMARK VINA RESULT:      -7.4      0.000      0.000
REMARK  Name = 
REMARK  4 active torsions:
REMARK  status: ('A' for Active; 'I' for Inactive)
REMARK    1  A    between atoms: C_1  and  C_2
REMARK    2  A    between atoms: C_2  and  C_3
REMARK    3  A    between atoms: C_3  and  C_4
REMARK    4  A    between atoms: C_4  and  N_5
REMARK                            x       y       z     vdW  Elec       q    Type
REMARK                         _______ _______ _______ _____ _____    ______ ____
ROOT
ATOM      1  N   UNL     1       3.009   5.526  19.911  0.00  0.00    +0.000 N 
ATOM      2  C   UNL     1       2.582   6.813  19.479  0.00  0.00    +0.000 A 
ATOM      3  C   UNL     1       1.641   7.590  20.179  0.00  0.00    +0.000 A 
ATOM      4  C   UNL     1       1.149   8.788  19.653  0.00  0.00    +0.000 A 
ATOM      5 CL   UNL     1      -0.081   9.636  20.510  0.00  0.00    +0.000 Cl
ATOM      6  C   UNL     1       1.628   9.269  18.440  0.00  0.00    +0.000 A 
ATOM      7  F   UNL     1       1.150  10.404  17.915  0.00  0.00    +0.000 F 
ATOM      8  C   UNL     1       2.614   8.575  17.756  0.00  0.00    +0.000 A 
ATOM      9  C   UNL     1       3.089   7.359  18.272  0.00  0.00    +0.000 A 
ATOM     10  C   UNL     1       4.136   6.630  17.512  0.00  0.00    +0.000 A 
ATOM     11  O   UNL     1       4.633   7.119  16.505  0.00  0.00    +0.000 OA
ATOM     12  C   UNL     1       4.523   5.340  18.049  0.00  0.00    +0.000 A 
ATOM     13  C   UNL     1       5.545   4.392  17.604  0.00  0.00    +0.000 A 
ATOM     14  O   UNL     1       6.304   4.499  16.658  0.00  0.00    +0.000 OA
ATOM     15  O   UNL     1       5.531   3.350  18.503  0.00  0.00    +0.000 OA
ATOM     16  N   UNL     1       4.495   3.597  19.422  0.00  0.00    +0.000 N 
ATOM     17  C   UNL     1       3.962   4.842  19.159  0.00  0.00    +0.000 A 
ATOM     18  H   UNL     1       4.792   3.481  20.391  0.00  0.00    +0.000 HD
ENDROOT
BRANCH   1  19
ATOM     19  C   UNL     1       2.297   4.877  21.035  0.00  0.00    +0.000 C 
BRANCH  19  20
ATOM     20  C   UNL     1       0.978   4.231  20.587  0.00  0.00    +0.000 C 
BRANCH  20  22
ATOM     21  C   UNL     1       0.971   2.423  18.840  0.00  0.00    +0.000 C 
ATOM     22  C   UNL     1       1.148   2.737  20.319  0.00  0.00    +0.000 C 
ENDBRANCH  20  22
ENDBRANCH  19  20
ENDBRANCH   1  19
TORSDOF 3
ENDMDL
MODEL 2
REMARK VINA RESULT:      -7.4      1.852      2.546
REMARK  Name = 
REMARK  4 active torsions:
REMARK  status: ('A' for Active; 'I' for Inactive)
REMARK    1  A    between atoms: C_1  and  C_2
REMARK    2  A    between atoms: C_2  and  C_3
REMARK    3  A    between atoms: C_3  and  C_4
REMARK    4  A    between atoms: C_4  and  N_5
REMARK                            x       y       z     vdW  Elec       q    Type
REMARK                         _______ _______ _______ _____ _____    ______ ____
ROOT
ATOM      1  N   UNL     1       4.349   4.160  17.780  0.00  0.00    +0.000 N 
ATOM      2  C   UNL     1       3.769   5.402  18.165  0.00  0.00    +0.000 A 
ATOM      3  C   UNL     1       2.984   5.562  19.321  0.00  0.00    +0.000 A 
ATOM      4  C   UNL     1       2.324   6.764  19.593  0.00  0.00    +0.000 A 
ATOM      5 CL   UNL     1       1.293   6.860  20.968  0.00  0.00    +0.000 Cl
ATOM      6  C   UNL     1       2.479   7.854  18.745  0.00  0.00    +0.000 A 
ATOM      7  F   UNL     1       1.835   9.004  18.982  0.00  0.00    +0.000 F 
ATOM      8  C   UNL     1       3.307   7.764  17.637  0.00  0.00    +0.000 A 
ATOM      9  C   UNL     1       3.949   6.549  17.351  0.00  0.00    +0.000 A 
ATOM     10  C   UNL     1       4.821   6.476  16.151  0.00  0.00    +0.000 A 
ATOM     11  O   UNL     1       5.041   7.474  15.476  0.00  0.00    +0.000 OA
ATOM     12  C   UNL     1       5.386   5.174  15.859  0.00  0.00    +0.000 A 
ATOM     13  C   UNL     1       6.319   4.754  14.812  0.00  0.00    +0.000 A 
ATOM     14  O   UNL     1       6.826   5.439  13.943  0.00  0.00    +0.000 OA
ATOM     15  O   UNL     1       6.569   3.417  15.024  0.00  0.00    +0.000 OA
ATOM     16  N   UNL     1       5.769   3.002  16.104  0.00  0.00    +0.000 N 
ATOM     17  C   UNL     1       5.129   4.106  16.627  0.00  0.00    +0.000 A 
ATOM     18  H   UNL     1       6.293   2.471  16.800  0.00  0.00    +0.000 HD
ENDROOT
BRANCH   1  19
ATOM     19  C   UNL     1       3.955   2.932  18.507  0.00  0.00    +0.000 C 
BRANCH  19  20
ATOM     20  C   UNL     1       2.702   2.281  17.906  0.00  0.00    +0.000 C 
BRANCH  20  22
ATOM     21  C   UNL     1       0.686   2.920  19.264  0.00  0.00    +0.000 C 
ATOM     22  C   UNL     1       1.722   1.840  18.992  0.00  0.00    +0.000 C 
ENDBRANCH  20  22
ENDBRANCH  19  20
ENDBRANCH   1  19
TORSDOF 3
ENDMDL
MODEL 3
REMARK VINA RESULT:      -7.3      1.323      1.745
REMARK  Name = 
REMARK  4 active torsions:
REMARK  status: ('A' for Active; 'I' for Inactive)
REMARK    1  A    between atoms: C_1  and  C_2
REMARK    2  A    between atoms: C_2  and  C_3
REMARK    3  A    between atoms: C_3  and  C_4
REMARK    4  A    between atoms: C_4  and  N_5
REMARK                            x       y       z     vdW  Elec       q    Type
REMARK                         _______ _______ _______ _____ _____    ______ ____
ROOT
ATOM      1  N   UNL     1       2.556   6.022  19.961  0.00  0.00    +0.000 N 
ATOM      2  C   UNL     1       1.892   7.273  20.110  0.00  0.00    +0.000 A 
ATOM      3  C   UNL     1       1.112   7.604  21.232  0.00  0.00    +0.000 A 
ATOM      4  C   UNL     1       0.370   8.788  21.279  0.00  0.00    +0.000 A 
ATOM      5 CL   UNL     1      -0.649   9.084  22.637  0.00  0.00    +0.000 Cl
ATOM      6  C   UNL     1       0.434   9.697  20.230  0.00  0.00    +0.000 A 
ATOM      7  F   UNL     1      -0.289  10.824  20.253  0.00  0.00    +0.000 F 
ATOM      8  C   UNL     1       1.252   9.446  19.140  0.00  0.00    +0.000 A 
ATOM      9  C   UNL     1       1.977   8.246  19.082  0.00  0.00    +0.000 A 
ATOM     10  C   UNL     1       2.838   7.996  17.896  0.00  0.00    +0.000 A 
ATOM     11  O   UNL     1       2.975   8.853  17.032  0.00  0.00    +0.000 OA
ATOM     12  C   UNL     1       3.492   6.704  17.852  0.00  0.00    +0.000 A 
ATOM     13  C   UNL     1       4.440   6.150  16.883  0.00  0.00    +0.000 A 
ATOM     14  O   UNL     1       4.884   6.683  15.883  0.00  0.00    +0.000 OA
ATOM     15  O   UNL     1       4.789   4.902  17.347  0.00  0.00    +0.000 OA
ATOM     16  N   UNL     1       4.035   4.656  18.509  0.00  0.00    +0.000 N 
ATOM     17  C   UNL     1       3.323   5.794  18.821  0.00  0.00    +0.000 A 
ATOM     18  H   UNL     1       4.605   4.310  19.282  0.00  0.00    +0.000 HD
ENDROOT
BRANCH   1  19
ATOM     19  C   UNL     1       2.262   4.939  20.927  0.00  0.00    +0.000 C 
BRANCH  19  20
ATOM     20  C   UNL     1       1.013   4.138  20.534  0.00  0.00    +0.000 C 
BRANCH  20  22
ATOM     21  C   UNL     1       1.103   2.381  18.738  0.00  0.00    +0.000 C 
ATOM     22  C   UNL     1       1.356   2.686  20.207  0.00  0.00    +0.000 C 
ENDBRANCH  20  22
ENDBRANCH  19  20
ENDBRANCH   1  19
TORSDOF 3
ENDMDL
MODEL 4
REMARK VINA RESULT:      -7.1      1.632      2.216
REMARK  Name = 
REMARK  4 active torsions:
REMARK  status: ('A' for Active; 'I' for Inactive)
REMARK    1  A    between atoms: C_1  and  C_2
REMARK    2  A    between atoms: C_2  and  C_3
REMARK    3  A    between atoms: C_3  and  C_4
REMARK    4  A    between atoms: C_4  and  N_5
REMARK                            x       y       z     vdW  Elec       q    Type
REMARK                         _______ _______ _______ _____ _____    ______ ____
ROOT
ATOM      1  N   UNL     1       5.106   5.022  18.770  0.00  0.00    +0.000 N 
ATOM      2  C   UNL     1       4.140   6.062  18.668  0.00  0.00    +0.000 A 
ATOM      3  C   UNL     1       3.216   6.361  19.687  0.00  0.00    +0.000 A 
ATOM      4  C   UNL     1       2.198   7.300  19.495  0.00  0.00    +0.000 A 
ATOM      5 CL   UNL     1       1.036   7.541  20.743  0.00  0.00    +0.000 Cl
ATOM      6  C   UNL     1       2.113   8.006  18.301  0.00  0.00    +0.000 A 
ATOM      7  F   UNL     1       1.131   8.892  18.096  0.00  0.00    +0.000 F 
ATOM      8  C   UNL     1       3.051   7.799  17.301  0.00  0.00    +0.000 A 
ATOM      9  C   UNL     1       4.057   6.838  17.484  0.00  0.00    +0.000 A 
ATOM     10  C   UNL     1       5.042   6.628  16.392  0.00  0.00    +0.000 A 
ATOM     11  O   UNL     1       5.026   7.335  15.391  0.00  0.00    +0.000 OA
ATOM     12  C   UNL     1       6.002   5.563  16.603  0.00  0.00    +0.000 A 
ATOM     13  C   UNL     1       7.131   5.123  15.782  0.00  0.00    +0.000 A 
ATOM     14  O   UNL     1       7.503   5.579  14.716  0.00  0.00    +0.000 OA
ATOM     15  O   UNL     1       7.746   4.105  16.475  0.00  0.00    +0.000 OA
ATOM     16  N   UNL     1       6.990   3.867  17.637  0.00  0.00    +0.000 N 
ATOM     17  C   UNL     1       5.992   4.816  17.716  0.00  0.00    +0.000 A 
ATOM     18  H   UNL     1       7.566   3.817  18.478  0.00  0.00    +0.000 HD
ENDROOT
BRANCH   1  19
ATOM     19  C   UNL     1       5.020   4.076  19.906  0.00  0.00    +0.000 C 
BRANCH  19  20
ATOM     20  C   UNL     1       4.083   2.898  19.607  0.00  0.00    +0.000 C 
BRANCH  20  22
ATOM     21  C   UNL     1       1.612   3.002  20.060  0.00  0.00    +0.000 C 
ATOM     22  C   UNL     1       2.989   2.767  20.665  0.00  0.00    +0.000 C 
ENDBRANCH  20  22
ENDBRANCH  19  20
ENDBRANCH   1  19
TORSDOF 3
ENDMDL
MODEL 5
REMARK VINA RESULT:      -7.1      1.380      1.775
REMARK  Name = 
REMARK  4 active torsions:
REMARK  status: ('A' for Active; 'I' for Inactive)
REMARK    1  A    between atoms: C_1  and  C_2
REMARK    2  A    between atoms: C_2  and  C_3
REMARK    3  A    between atoms: C_3  and  C_4
REMARK    4  A    between atoms: C_4  and  N_5
REMARK                            x       y       z     vdW  Elec       q    Type
REMARK                         _______ _______ _______ _____ _____    ______ ____
ROOT
ATOM      1  N   UNL     1       3.796   4.602  18.559  0.00  0.00    +0.000 N 
ATOM      2  C   UNL     1       3.283   5.920  18.721  0.00  0.00    +0.000 A 
ATOM      3  C   UNL     1       2.523   6.321  19.835  0.00  0.00    +0.000 A 
ATOM      4  C   UNL     1       1.926   7.584  19.892  0.00  0.00    +0.000 A 
ATOM      5 CL   UNL     1       0.919   7.974  21.235  0.00  0.00    +0.000 Cl
ATOM      6  C   UNL     1       2.122   8.498  18.864  0.00  0.00    +0.000 A 
ATOM      7  F   UNL     1       1.538   9.703  18.897  0.00  0.00    +0.000 F 
ATOM      8  C   UNL     1       2.929   8.172  17.785  0.00  0.00    +0.000 A 
ATOM      9  C   UNL     1       3.507   6.895  17.716  0.00  0.00    +0.000 A 
ATOM     10  C   UNL     1       4.358   6.567  16.543  0.00  0.00    +0.000 A 
ATOM     11  O   UNL     1       4.616   7.418  15.701  0.00  0.00    +0.000 OA
ATOM     12  C   UNL     1       4.855   5.207  16.484  0.00  0.00    +0.000 A 
ATOM     13  C   UNL     1       5.751   4.562  15.523  0.00  0.00    +0.000 A 
ATOM     14  O   UNL     1       6.279   5.057  14.544  0.00  0.00    +0.000 OA
ATOM     15  O   UNL     1       5.938   3.272  15.967  0.00  0.00    +0.000 OA
ATOM     16  N   UNL     1       5.135   3.096  17.108  0.00  0.00    +0.000 N 
ATOM     17  C   UNL     1       4.556   4.306  17.430  0.00  0.00    +0.000 A 
ATOM     18  H   UNL     1       5.641   2.670  17.885  0.00  0.00    +0.000 HD
ENDROOT
BRANCH   1  19
ATOM     19  C   UNL     1       3.353   3.544  19.495  0.00  0.00    +0.000 C 
BRANCH  19  20
ATOM     20  C   UNL     1       2.113   2.799  18.980  0.00  0.00    +0.000 C 
BRANCH  20  22
ATOM     21  C   UNL     1       1.587   3.135  21.416  0.00  0.00    +0.000 C 
ATOM     22  C   UNL     1       1.069   2.619  20.081  0.00  0.00    +0.000 C 
ENDBRANCH  20  22
ENDBRANCH  19  20
ENDBRANCH   1  19
TORSDOF 3
ENDMDL
MODEL 6
REMARK VINA RESULT:      -7.1      2.135      3.993
REMARK  Name = 
REMARK  4 active torsions:
REMARK  status: ('A' for Active; 'I' for Inactive)
REMARK    1  A    between atoms: C_1  and  C_2
REMARK    2  A    between atoms: C_2  and  C_3
REMARK    3  A    between atoms: C_3  and  C_4
REMARK    4  A    between atoms: C_4  and  N_5
REMARK                            x       y       z     vdW  Elec       q    Type
REMARK                         _______ _______ _______ _____ _____    ______ ____
ROOT
ATOM      1  N   UNL     1       3.947   5.819  17.879  0.00  0.00    +0.000 N 
ATOM      2  C   UNL     1       3.067   6.782  18.450  0.00  0.00    +0.000 A 
ATOM      3  C   UNL     1       2.807   8.034  17.863  0.00  0.00    +0.000 A 
ATOM      4  C   UNL     1       2.042   9.001  18.522  0.00  0.00    +0.000 A 
ATOM      5 CL   UNL     1       1.851  10.552  17.797  0.00  0.00    +0.000 Cl
ATOM      6  C   UNL     1       1.469   8.720  19.756  0.00  0.00    +0.000 A 
ATOM      7  F   UNL     1       0.752   9.645  20.406  0.00  0.00    +0.000 F 
ATOM      8  C   UNL     1       1.634   7.470  20.333  0.00  0.00    +0.000 A 
ATOM      9  C   UNL     1       2.424   6.509  19.684  0.00  0.00    +0.000 A 
ATOM     10  C   UNL     1       2.594   5.182  20.330  0.00  0.00    +0.000 A 
ATOM     11  O   UNL     1       1.993   4.906  21.360  0.00  0.00    +0.000 OA
ATOM     12  C   UNL     1       3.490   4.262  19.657  0.00  0.00    +0.000 A 
ATOM     13  C   UNL     1       3.843   2.876  19.969  0.00  0.00    +0.000 A 
ATOM     14  O   UNL     1       3.440   2.192  20.892  0.00  0.00    +0.000 OA
ATOM     15  O   UNL     1       4.695   2.455  18.974  0.00  0.00    +0.000 OA
ATOM     16  N   UNL     1       4.927   3.551  18.123  0.00  0.00    +0.000 N 
ATOM     17  C   UNL     1       4.124   4.598  18.525  0.00  0.00    +0.000 A 
ATOM     18  H   UNL     1       4.818   3.313  17.136  0.00  0.00    +0.000 HD
ENDROOT
BRANCH   1  19
ATOM     19  C   UNL     1       4.786   6.215  16.725  0.00  0.00    +0.000 C 
BRANCH  19  20
ATOM     20  C   UNL     1       6.024   7.013  17.157  0.00  0.00    +0.000 C 
BRANCH  20  22
ATOM     21  C   UNL     1       7.698   6.007  18.741  0.00  0.00    +0.000 C 
ATOM     22  C   UNL     1       7.253   6.115  17.290  0.00  0.00    +0.000 C 
ENDBRANCH  20  22
ENDBRANCH  19  20
ENDBRANCH   1  19
TORSDOF 3
ENDMDL
MODEL 7
REMARK VINA RESULT:      -6.9      3.489      4.789
REMARK  Name = 
REMARK  4 active torsions:
REMARK  status: ('A' for Active; 'I' for Inactive)
REMARK    1  A    between atoms: C_1  and  C_2
REMARK    2  A    between atoms: C_2  and  C_3
REMARK    3  A    between atoms: C_3  and  C_4
REMARK    4  A    between atoms: C_4  and  N_5
REMARK                            x       y       z     vdW  Elec       q    Type
REMARK                         _______ _______ _______ _____ _____    ______ ____
ROOT
ATOM      1  N   UNL     1       3.169   5.168  19.199  0.00  0.00    +0.000 N 
ATOM      2  C   UNL     1       3.830   5.376  17.955  0.00  0.00    +0.000 A 
ATOM      3  C   UNL     1       4.530   4.363  17.275  0.00  0.00    +0.000 A 
ATOM      4  C   UNL     1       5.277   4.639  16.126  0.00  0.00    +0.000 A 
ATOM      5 CL   UNL     1       6.198   3.376  15.402  0.00  0.00    +0.000 Cl
ATOM      6  C   UNL     1       5.295   5.923  15.595  0.00  0.00    +0.000 A 
ATOM      7  F   UNL     1       6.023   6.206  14.507  0.00  0.00    +0.000 F 
ATOM      8  C   UNL     1       4.555   6.933  16.189  0.00  0.00    +0.000 A 
ATOM      9  C   UNL     1       3.827   6.661  17.357  0.00  0.00    +0.000 A 
ATOM     10  C   UNL     1       3.052   7.765  17.980  0.00  0.00    +0.000 A 
ATOM     11  O   UNL     1       2.983   8.863  17.441  0.00  0.00    +0.000 OA
ATOM     12  C   UNL     1       2.392   7.446  19.230  0.00  0.00    +0.000 A 
ATOM     13  C   UNL     1       1.511   8.255  20.076  0.00  0.00    +0.000 A 
ATOM     14  O   UNL     1       1.144   9.401  19.891  0.00  0.00    +0.000 OA
ATOM     15  O   UNL     1       1.120   7.447  21.119  0.00  0.00    +0.000 OA
ATOM     16  N   UNL     1       1.786   6.217  20.975  0.00  0.00    +0.000 N 
ATOM     17  C   UNL     1       2.483   6.230  19.786  0.00  0.00    +0.000 A 
ATOM     18  H   UNL     1       1.160   5.416  21.068  0.00  0.00    +0.000 HD
ENDROOT
BRANCH   1  19
ATOM     19  C   UNL     1       3.385   3.893  19.918  0.00  0.00    +0.000 C 
BRANCH  19  20
ATOM     20  C   UNL     1       2.405   2.801  19.465  0.00  0.00    +0.000 C 
BRANCH  20  22
ATOM     21  C   UNL     1       1.416   2.649  21.772  0.00  0.00    +0.000 C 
ATOM     22  C   UNL     1       1.119   2.823  20.289  0.00  0.00    +0.000 C 
ENDBRANCH  20  22
ENDBRANCH  19  20
ENDBRANCH   1  19
TORSDOF 3
ENDMDL
MODEL 8
REMARK VINA RESULT:      -6.9      2.197      3.942
REMARK  Name = 
REMARK  4 active torsions:
REMARK  status: ('A' for Active; 'I' for Inactive)
REMARK    1  A    between atoms: C_1  and  C_2
REMARK    2  A    between atoms: C_2  and  C_3
REMARK    3  A    between atoms: C_3  and  C_4
REMARK    4  A    between atoms: C_4  and  N_5
REMARK                            x       y       z     vdW  Elec       q    Type
REMARK                         _______ _______ _______ _____ _____    ______ ____
ROOT
ATOM      1  N   UNL     1       4.357   5.811  18.167  0.00  0.00    +0.000 N 
ATOM      2  C   UNL     1       3.332   6.708  18.581  0.00  0.00    +0.000 A 
ATOM      3  C   UNL     1       3.093   7.947  17.958  0.00  0.00    +0.000 A 
ATOM      4  C   UNL     1       2.165   8.856  18.477  0.00  0.00    +0.000 A 
ATOM      5 CL   UNL     1       1.997  10.398  17.729  0.00  0.00    +0.000 Cl
ATOM      6  C   UNL     1       1.412   8.525  19.597  0.00  0.00    +0.000 A 
ATOM      7  F   UNL     1       0.537   9.394  20.116  0.00  0.00    +0.000 F 
ATOM      8  C   UNL     1       1.560   7.283  20.194  0.00  0.00    +0.000 A 
ATOM      9  C   UNL     1       2.509   6.381  19.688  0.00  0.00    +0.000 A 
ATOM     10  C   UNL     1       2.656   5.061  20.355  0.00  0.00    +0.000 A 
ATOM     11  O   UNL     1       1.908   4.736  21.269  0.00  0.00    +0.000 OA
ATOM     12  C   UNL     1       3.710   4.209  19.843  0.00  0.00    +0.000 A 
ATOM     13  C   UNL     1       4.096   2.846  20.212  0.00  0.00    +0.000 A 
ATOM     14  O   UNL     1       3.589   2.127  21.054  0.00  0.00    +0.000 OA
ATOM     15  O   UNL     1       5.130   2.492  19.375  0.00  0.00    +0.000 OA
ATOM     16  N   UNL     1       5.429   3.609  18.575  0.00  0.00    +0.000 N 
ATOM     17  C   UNL     1       4.503   4.597  18.834  0.00  0.00    +0.000 A 
ATOM     18  H   UNL     1       5.504   3.375  17.584  0.00  0.00    +0.000 HD
ENDROOT
BRANCH   1  19
ATOM     19  C   UNL     1       5.351   6.273  17.172  0.00  0.00    +0.000 C 
BRANCH  19  20
ATOM     20  C   UNL     1       5.132   5.629  15.795  0.00  0.00    +0.000 C 
BRANCH  20  22
ATOM     21  C   UNL     1       6.087   3.964  14.172  0.00  0.00    +0.000 C 
ATOM     22  C   UNL     1       6.403   4.956  15.282  0.00  0.00    +0.000 C 
ENDBRANCH  20  22
ENDBRANCH  19  20
ENDBRANCH   1  19
TORSDOF 3
ENDMDL
MODEL 9
REMARK VINA RESULT:      -6.9      3.418      4.777
REMARK  Name = 
REMARK  4 active torsions:
REMARK  status: ('A' for Active; 'I' for Inactive)
REMARK    1  A    between atoms: C_1  and  C_2
REMARK    2  A    between atoms: C_2  and  C_3
REMARK    3  A    between atoms: C_3  and  C_4
REMARK    4  A    between atoms: C_4  and  N_5
REMARK                            x       y       z     vdW  Elec       q    Type
REMARK                         _______ _______ _______ _____ _____    ______ ____
ROOT
ATOM      1  N   UNL     1       2.479   6.002  19.801  0.00  0.00    +0.000 N 
ATOM      2  C   UNL     1       3.202   5.977  18.575  0.00  0.00    +0.000 A 
ATOM      3  C   UNL     1       3.861   4.833  18.091  0.00  0.00    +0.000 A 
ATOM      4  C   UNL     1       4.670   4.885  16.951  0.00  0.00    +0.000 A 
ATOM      5 CL   UNL     1       5.535   3.475  16.473  0.00  0.00    +0.000 Cl
ATOM      6  C   UNL     1       4.793   6.069  16.234  0.00  0.00    +0.000 A 
ATOM      7  F   UNL     1       5.580   6.138  15.154  0.00  0.00    +0.000 F 
ATOM      8  C   UNL     1       4.097   7.200  16.632  0.00  0.00    +0.000 A 
ATOM      9  C   UNL     1       3.306   7.154  17.790  0.00  0.00    +0.000 A 
ATOM     10  C   UNL     1       2.580   8.383  18.200  0.00  0.00    +0.000 A 
ATOM     11  O   UNL     1       2.604   9.387  17.499  0.00  0.00    +0.000 OA
ATOM     12  C   UNL     1       1.851   8.299  19.450  0.00  0.00    +0.000 A 
ATOM     13  C   UNL     1       0.992   9.278  20.119  0.00  0.00    +0.000 A 
ATOM     14  O   UNL     1       0.707  10.401  19.746  0.00  0.00    +0.000 OA
ATOM     15  O   UNL     1       0.508   8.664  21.252  0.00  0.00    +0.000 OA
ATOM     16  N   UNL     1       1.098   7.390  21.329  0.00  0.00    +0.000 N 
ATOM     17  C   UNL     1       1.841   7.179  20.187  0.00  0.00    +0.000 A 
ATOM     18  H   UNL     1       0.418   6.651  21.510  0.00  0.00    +0.000 HD
ENDROOT
BRANCH   1  19
ATOM     19  C   UNL     1       2.582   4.842  20.715  0.00  0.00    +0.000 C 
BRANCH  19  20
ATOM     20  C   UNL     1       1.297   4.002  20.730  0.00  0.00    +0.000 C 
BRANCH  20  22
ATOM     21  C   UNL     1       0.913   2.509  18.745  0.00  0.00    +0.000 C 
ATOM     22  C   UNL     1       1.526   2.615  20.134  0.00  0.00    +0.000 C 
ENDBRANCH  20  22
ENDBRANCH  19  20
ENDBRANCH   1  19
TORSDOF 3
ENDMDL
