MODEL 1
REMARK VINA RESULT:      -9.3      0.000      0.000
REMARK  Name = 
REMARK  5 active torsions:
REMARK  status: ('A' for Active; 'I' for Inactive)
REMARK    1  A    between atoms: C_2  and  C_14
REMARK    2  A    between atoms: N_3  and  C_4
REMARK    3  A    between atoms: C_10  and  C_11
REMARK    4  A    between atoms: C_11  and  O_13
REMARK    5  A    between atoms: N_22  and  C_23
REMARK                            x       y       z     vdW  Elec       q    Type
REMARK                         _______ _______ _______ _____ _____    ______ ____
ROOT
ATOM      1  C   UNL     1       1.306   8.457  20.590  0.00  0.00    +0.000 A 
ATOM      2  C   UNL     1       1.136   8.445  21.991  0.00  0.00    +0.000 A 
ATOM      3  C   UNL     1       0.402   9.454  22.612  0.00  0.00    +0.000 A 
ATOM      4  C   UNL     1      -0.125  10.445  21.803  0.00  0.00    +0.000 A 
ATOM      5  C   UNL     1       0.058  10.474  20.436  0.00  0.00    +0.000 A 
ATOM      6  C   UNL     1       0.770   9.491  19.798  0.00  0.00    +0.000 A 
ATOM      7  C   UNL     1      -0.561  11.693  19.927  0.00  0.00    +0.000 C 
ATOM      8  O   UNL     1      -0.524  12.035  18.760  0.00  0.00    +0.000 OA
ATOM      9  N   UNL     1      -1.117  12.325  21.006  0.00  0.00    +0.000 N 
ATOM     10  C   UNL     1      -0.869  11.638  22.167  0.00  0.00    +0.000 C 
ATOM     11  O   UNL     1      -1.139  11.876  23.323  0.00  0.00    +0.000 OA
ENDROOT
BRANCH   9  12
ATOM     12  C   UNL     1      -1.740  13.647  20.922  0.00  0.00    +0.000 C 
ATOM     13  C   UNL     1      -0.716  14.775  21.135  0.00  0.00    +0.000 C 
ATOM     14  C   UNL     1      -0.378  14.998  22.605  0.00  0.00    +0.000 C 
ATOM     15  C   UNL     1      -1.628  15.261  23.443  0.00  0.00    +0.000 C 
ATOM     16  C   UNL     1      -2.839  14.435  23.078  0.00  0.00    +0.000 A 
ATOM     17  C   UNL     1      -3.914  14.374  23.977  0.00  0.00    +0.000 A 
ATOM     18  C   UNL     1      -5.054  13.625  23.678  0.00  0.00    +0.000 A 
ATOM     19  C   UNL     1      -5.148  12.953  22.463  0.00  0.00    +0.000 A 
ATOM     20  C   UNL     1      -4.094  13.015  21.555  0.00  0.00    +0.000 A 
ATOM     21  C   UNL     1      -2.927  13.740  21.859  0.00  0.00    +0.000 A 
ENDBRANCH   9  12
BRANCH   1  23
ATOM     22  O   UNL     1       2.296   7.640  18.688  0.00  0.00    +0.000 OA
ATOM     23  C   UNL     1       2.101   7.437  19.881  0.00  0.00    +0.000 C 
ATOM     24  N   UNL     1       2.473   6.302  20.594  0.00  0.00    +0.000 N 
ATOM     25  H   UNL     1       2.146   6.197  21.551  0.00  0.00    +0.000 HD
BRANCH  24  26
ATOM     26  C   UNL     1       3.181   5.207  20.018  0.00  0.00    +0.000 A 
ATOM     27  C   UNL     1       4.343   5.439  19.260  0.00  0.00    +0.000 A 
ATOM     28  C   UNL     1       5.061   4.402  18.678  0.00  0.00    +0.000 A 
ATOM     29 CL   UNL     1       6.472   4.755  17.762  0.00  0.00    +0.000 Cl
ATOM     30  C   UNL     1       4.646   3.090  18.844  0.00  0.00    +0.000 A 
ATOM     31  C   UNL     1       3.506   2.825  19.606  0.00  0.00    +0.000 A 
ATOM     32  C   UNL     1       2.766   3.869  20.197  0.00  0.00    +0.000 A 
BRANCH  32  33
ATOM     33  C   UNL     1       1.578   3.452  20.985  0.00  0.00    +0.000 C 
ATOM     34  O   UNL     1       1.657   2.830  22.033  0.00  0.00    +0.000 OA
BRANCH  33  35
ATOM     35  O   UNL     1       0.399   3.796  20.423  0.00  0.00    +0.000 OA
ATOM     36  H   UNL     1      -0.345   3.250  20.743  0.00  0.00    +0.000 HD
ENDBRANCH  33  35
ENDBRANCH  32  33
ENDBRANCH  24  26
ENDBRANCH   1  23
TORSDOF 5
ENDMDL
MODEL 2
REMARK VINA RESULT:      -9.3      1.348      1.534
REMARK  Name = 
REMARK  5 active torsions:
REMARK  status: ('A' for Active; 'I' for Inactive)
REMARK    1  A    between atoms: C_2  and  C_14
REMARK    2  A    between atoms: N_3  and  C_4
REMARK    3  A    between atoms: C_10  and  C_11
REMARK    4  A    between atoms: C_11  and  O_13
REMARK    5  A    between atoms: N_22  and  C_23
REMARK                            x       y       z     vdW  Elec       q    Type
REMARK                         _______ _______ _______ _____ _____    ______ ____
ROOT
ATOM      1  C   UNL     1       1.469   8.850  19.527  0.00  0.00    +0.000 A 
ATOM      2  C   UNL     1       1.392   8.542  20.903  0.00  0.00    +0.000 A 
ATOM      3  C   UNL     1       0.673   9.373  21.762  0.00  0.00    +0.000 A 
ATOM      4  C   UNL     1       0.068  10.487  21.209  0.00  0.00    +0.000 A 
ATOM      5  C   UNL     1       0.161  10.804  19.870  0.00  0.00    +0.000 A 
ATOM      6  C   UNL     1       0.855  10.002  19.001  0.00  0.00    +0.000 A 
ATOM      7  C   UNL     1      -0.522  12.077  19.663  0.00  0.00    +0.000 C 
ATOM      8  O   UNL     1      -0.571  12.652  18.593  0.00  0.00    +0.000 OA
ATOM      9  N   UNL     1      -1.023  12.450  20.880  0.00  0.00    +0.000 N 
ATOM     10  C   UNL     1      -0.681  11.549  21.856  0.00  0.00    +0.000 C 
ATOM     11  O   UNL     1      -0.882  11.533  23.051  0.00  0.00    +0.000 OA
ENDROOT
BRANCH   9  12
ATOM     12  C   UNL     1      -1.685  13.736  21.110  0.00  0.00    +0.000 C 
ATOM     13  C   UNL     1      -0.674  14.851  21.425  0.00  0.00    +0.000 C 
ATOM     14  C   UNL     1      -0.183  14.814  22.867  0.00  0.00    +0.000 C 
ATOM     15  C   UNL     1      -1.340  14.862  23.864  0.00  0.00    +0.000 C 
ATOM     16  C   UNL     1      -2.562  14.063  23.476  0.00  0.00    +0.000 A 
ATOM     17  C   UNL     1      -3.532  13.789  24.453  0.00  0.00    +0.000 A 
ATOM     18  C   UNL     1      -4.678  13.057  24.137  0.00  0.00    +0.000 A 
ATOM     19  C   UNL     1      -4.886  12.616  22.834  0.00  0.00    +0.000 A 
ATOM     20  C   UNL     1      -3.940  12.891  21.850  0.00  0.00    +0.000 A 
ATOM     21  C   UNL     1      -2.766  13.600  22.164  0.00  0.00    +0.000 A 
ENDBRANCH   9  12
BRANCH   1  23
ATOM     22  O   UNL     1       2.279   8.437  17.421  0.00  0.00    +0.000 OA
ATOM     23  C   UNL     1       2.243   8.030  18.577  0.00  0.00    +0.000 C 
ATOM     24  N   UNL     1       2.776   6.834  19.045  0.00  0.00    +0.000 N 
ATOM     25  H   UNL     1       2.575   6.549  20.000  0.00  0.00    +0.000 HD
BRANCH  24  26
ATOM     26  C   UNL     1       3.485   5.911  18.221  0.00  0.00    +0.000 A 
ATOM     27  C   UNL     1       4.753   6.250  17.713  0.00  0.00    +0.000 A 
ATOM     28  C   UNL     1       5.476   5.383  16.903  0.00  0.00    +0.000 A 
ATOM     29 CL   UNL     1       7.019   5.859  16.314  0.00  0.00    +0.000 Cl
ATOM     30  C   UNL     1       4.959   4.137  16.582  0.00  0.00    +0.000 A 
ATOM     31  C   UNL     1       3.711   3.764  17.086  0.00  0.00    +0.000 A 
ATOM     32  C   UNL     1       2.965   4.637  17.904  0.00  0.00    +0.000 A 
BRANCH  32  33
ATOM     33  C   UNL     1       1.656   4.118  18.376  0.00  0.00    +0.000 C 
ATOM     34  O   UNL     1       0.899   3.473  17.665  0.00  0.00    +0.000 OA
BRANCH  33  35
ATOM     35  O   UNL     1       1.363   4.447  19.652  0.00  0.00    +0.000 OA
ATOM     36  H   UNL     1       0.423   4.302  19.872  0.00  0.00    +0.000 HD
ENDBRANCH  33  35
ENDBRANCH  32  33
ENDBRANCH  24  26
ENDBRANCH   1  23
TORSDOF 5
ENDMDL
MODEL 3
REMARK VINA RESULT:      -9.3      3.305     10.579
REMARK  Name = 
REMARK  5 active torsions:
REMARK  status: ('A' for Active; 'I' for Inactive)
REMARK    1  A    between atoms: C_2  and  C_14
REMARK    2  A    between atoms: N_3  and  C_4
REMARK    3  A    between atoms: C_10  and  C_11
REMARK    4  A    between atoms: C_11  and  O_13
REMARK    5  A    between atoms: N_22  and  C_23
REMARK                            x       y       z     vdW  Elec       q    Type
REMARK                         _______ _______ _______ _____ _____    ______ ____
ROOT
ATOM      1  C   UNL     1       1.089   9.173  19.382  0.00  0.00    +0.000 A 
ATOM      2  C   UNL     1       1.678   9.713  18.218  0.00  0.00    +0.000 A 
ATOM      3  C   UNL     1       2.636   8.980  17.519  0.00  0.00    +0.000 A 
ATOM      4  C   UNL     1       2.975   7.736  18.022  0.00  0.00    +0.000 A 
ATOM      5  C   UNL     1       2.420   7.215  19.171  0.00  0.00    +0.000 A 
ATOM      6  C   UNL     1       1.470   7.910  19.875  0.00  0.00    +0.000 A 
ATOM      7  C   UNL     1       3.068   5.936  19.441  0.00  0.00    +0.000 C 
ATOM      8  O   UNL     1       2.833   5.251  20.419  0.00  0.00    +0.000 OA
ATOM      9  N   UNL     1       3.960   5.730  18.424  0.00  0.00    +0.000 N 
ATOM     10  C   UNL     1       3.970   6.789  17.551  0.00  0.00    +0.000 C 
ATOM     11  O   UNL     1       4.634   7.019  16.565  0.00  0.00    +0.000 OA
ENDROOT
BRANCH   9  12
ATOM     12  C   UNL     1       4.889   4.600  18.394  0.00  0.00    +0.000 C 
ATOM     13  C   UNL     1       5.939   4.695  19.514  0.00  0.00    +0.000 C 
ATOM     14  C   UNL     1       7.067   5.666  19.185  0.00  0.00    +0.000 C 
ATOM     15  C   UNL     1       7.746   5.325  17.859  0.00  0.00    +0.000 C 
ATOM     16  C   UNL     1       6.820   4.865  16.758  0.00  0.00    +0.000 A 
ATOM     17  C   UNL     1       7.297   4.837  15.438  0.00  0.00    +0.000 A 
ATOM     18  C   UNL     1       6.476   4.415  14.391  0.00  0.00    +0.000 A 
ATOM     19  C   UNL     1       5.179   3.986  14.651  0.00  0.00    +0.000 A 
ATOM     20  C   UNL     1       4.695   3.995  15.957  0.00  0.00    +0.000 A 
ATOM     21  C   UNL     1       5.503   4.448  17.017  0.00  0.00    +0.000 A 
ENDBRANCH   9  12
BRANCH   1  23
ATOM     22  O   UNL     1      -0.430   9.292  21.097  0.00  0.00    +0.000 OA
ATOM     23  C   UNL     1       0.097   9.915  20.183  0.00  0.00    +0.000 C 
ATOM     24  N   UNL     1      -0.221  11.206  19.776  0.00  0.00    +0.000 N 
ATOM     25  H   UNL     1       0.201  11.569  18.925  0.00  0.00    +0.000 HD
BRANCH  24  26
ATOM     26  C   UNL     1      -1.210  12.011  20.413  0.00  0.00    +0.000 A 
ATOM     27  C   UNL     1      -0.947  12.591  21.668  0.00  0.00    +0.000 A 
ATOM     28  C   UNL     1      -1.884  13.378  22.325  0.00  0.00    +0.000 A 
ATOM     29 CL   UNL     1      -1.498  14.056  23.857  0.00  0.00    +0.000 Cl
ATOM     30  C   UNL     1      -3.117  13.623  21.743  0.00  0.00    +0.000 A 
ATOM     31  C   UNL     1      -3.403  13.077  20.490  0.00  0.00    +0.000 A 
ATOM     32  C   UNL     1      -2.463  12.272  19.815  0.00  0.00    +0.000 A 
BRANCH  32  33
ATOM     33  C   UNL     1      -2.889  11.756  18.489  0.00  0.00    +0.000 C 
ATOM     34  O   UNL     1      -3.832  10.992  18.343  0.00  0.00    +0.000 OA
BRANCH  33  35
ATOM     35  O   UNL     1      -2.124  12.183  17.462  0.00  0.00    +0.000 OA
ATOM     36  H   UNL     1      -2.641  12.643  16.773  0.00  0.00    +0.000 HD
ENDBRANCH  33  35
ENDBRANCH  32  33
ENDBRANCH  24  26
ENDBRANCH   1  23
TORSDOF 5
ENDMDL
MODEL 4
REMARK VINA RESULT:      -9.1      2.969      4.722
REMARK  Name = 
REMARK  5 active torsions:
REMARK  status: ('A' for Active; 'I' for Inactive)
REMARK    1  A    between atoms: C_2  and  C_14
REMARK    2  A    between atoms: N_3  and  C_4
REMARK    3  A    between atoms: C_10  and  C_11
REMARK    4  A    between atoms: C_11  and  O_13
REMARK    5  A    between atoms: N_22  and  C_23
REMARK                            x       y       z     vdW  Elec       q    Type
REMARK                         _______ _______ _______ _____ _____    ______ ____
ROOT
ATOM      1  C   UNL     1       2.502   6.634  19.341  0.00  0.00    +0.000 A 
ATOM      2  C   UNL     1       1.960   6.239  20.584  0.00  0.00    +0.000 A 
ATOM      3  C   UNL     1       1.153   7.121  21.302  0.00  0.00    +0.000 A 
ATOM      4  C   UNL     1       0.932   8.370  20.751  0.00  0.00    +0.000 A 
ATOM      5  C   UNL     1       1.479   8.769  19.550  0.00  0.00    +0.000 A 
ATOM      6  C   UNL     1       2.270   7.920  18.818  0.00  0.00    +0.000 A 
ATOM      7  C   UNL     1       1.103  10.160  19.326  0.00  0.00    +0.000 C 
ATOM      8  O   UNL     1       1.476  10.817  18.372  0.00  0.00    +0.000 OA
ATOM      9  N   UNL     1       0.319  10.526  20.386  0.00  0.00    +0.000 N 
ATOM     10  C   UNL     1       0.198   9.502  21.291  0.00  0.00    +0.000 C 
ATOM     11  O   UNL     1      -0.358   9.430  22.364  0.00  0.00    +0.000 OA
ENDROOT
BRANCH   9  12
ATOM     12  C   UNL     1      -0.169  11.892  20.584  0.00  0.00    +0.000 C 
ATOM     13  C   UNL     1      -1.524  12.120  19.892  0.00  0.00    +0.000 C 
ATOM     14  C   UNL     1      -1.390  12.356  18.392  0.00  0.00    +0.000 C 
ATOM     15  C   UNL     1      -0.442  13.512  18.080  0.00  0.00    +0.000 C 
ATOM     16  C   UNL     1       0.785  13.599  18.957  0.00  0.00    +0.000 A 
ATOM     17  C   UNL     1       1.853  14.415  18.551  0.00  0.00    +0.000 A 
ATOM     18  C   UNL     1       3.004  14.527  19.332  0.00  0.00    +0.000 A 
ATOM     19  C   UNL     1       3.092  13.850  20.544  0.00  0.00    +0.000 A 
ATOM     20  C   UNL     1       2.036  13.046  20.967  0.00  0.00    +0.000 A 
ATOM     21  C   UNL     1       0.884  12.901  20.172  0.00  0.00    +0.000 A 
ENDBRANCH   9  12
BRANCH   1  23
ATOM     22  O   UNL     1       3.230   4.553  18.706  0.00  0.00    +0.000 OA
ATOM     23  C   UNL     1       3.390   5.758  18.553  0.00  0.00    +0.000 C 
ATOM     24  N   UNL     1       4.380   6.367  17.790  0.00  0.00    +0.000 N 
ATOM     25  H   UNL     1       4.485   7.377  17.840  0.00  0.00    +0.000 HD
BRANCH  24  26
ATOM     26  C   UNL     1       5.350   5.643  17.035  0.00  0.00    +0.000 A 
ATOM     27  C   UNL     1       5.049   5.212  15.730  0.00  0.00    +0.000 A 
ATOM     28  C   UNL     1       5.962   4.500  14.962  0.00  0.00    +0.000 A 
ATOM     29 CL   UNL     1       5.531   4.002  13.375  0.00  0.00    +0.000 Cl
ATOM     30  C   UNL     1       7.217   4.205  15.471  0.00  0.00    +0.000 A 
ATOM     31  C   UNL     1       7.553   4.635  16.756  0.00  0.00    +0.000 A 
ATOM     32  C   UNL     1       6.633   5.352  17.548  0.00  0.00    +0.000 A 
BRANCH  32  33
ATOM     33  C   UNL     1       7.115   5.753  18.894  0.00  0.00    +0.000 C 
ATOM     34  O   UNL     1       6.642   5.313  19.931  0.00  0.00    +0.000 OA
BRANCH  33  35
ATOM     35  O   UNL     1       8.106   6.671  18.871  0.00  0.00    +0.000 OA
ATOM     36  H   UNL     1       8.146   7.203  19.689  0.00  0.00    +0.000 HD
ENDBRANCH  33  35
ENDBRANCH  32  33
ENDBRANCH  24  26
ENDBRANCH   1  23
TORSDOF 5
ENDMDL
MODEL 5
REMARK VINA RESULT:      -8.8      1.725      3.045
REMARK  Name = 
REMARK  5 active torsions:
REMARK  status: ('A' for Active; 'I' for Inactive)
REMARK    1  A    between atoms: C_2  and  C_14
REMARK    2  A    between atoms: N_3  and  C_4
REMARK    3  A    between atoms: C_10  and  C_11
REMARK    4  A    between atoms: C_11  and  O_13
REMARK    5  A    between atoms: N_22  and  C_23
REMARK                            x       y       z     vdW  Elec       q    Type
REMARK                         _______ _______ _______ _____ _____    ______ ____
ROOT
ATOM      1  C   UNL     1       1.478   8.654  19.605  0.00  0.00    +0.000 A 
ATOM      2  C   UNL     1       1.051   9.469  18.534  0.00  0.00    +0.000 A 
ATOM      3  C   UNL     1       0.323  10.629  18.791  0.00  0.00    +0.000 A 
ATOM      4  C   UNL     1       0.039  10.922  20.113  0.00  0.00    +0.000 A 
ATOM      5  C   UNL     1       0.433  10.116  21.160  0.00  0.00    +0.000 A 
ATOM      6  C   UNL     1       1.157   8.972  20.938  0.00  0.00    +0.000 A 
ATOM      7  C   UNL     1      -0.107  10.685  22.390  0.00  0.00    +0.000 C 
ATOM      8  O   UNL     1       0.023  10.173  23.487  0.00  0.00    +0.000 OA
ATOM      9  N   UNL     1      -0.772  11.825  22.031  0.00  0.00    +0.000 N 
ATOM     10  C   UNL     1      -0.742  12.010  20.672  0.00  0.00    +0.000 C 
ATOM     11  O   UNL     1      -1.240  12.853  19.958  0.00  0.00    +0.000 OA
ENDROOT
BRANCH   9  12
ATOM     12  C   UNL     1      -1.549  12.627  22.978  0.00  0.00    +0.000 C 
ATOM     13  C   UNL     1      -2.994  12.116  23.107  0.00  0.00    +0.000 C 
ATOM     14  C   UNL     1      -3.885  12.564  21.954  0.00  0.00    +0.000 C 
ATOM     15  C   UNL     1      -3.880  14.083  21.786  0.00  0.00    +0.000 C 
ATOM     16  C   UNL     1      -2.542  14.753  21.993  0.00  0.00    +0.000 A 
ATOM     17  C   UNL     1      -2.371  16.075  21.555  0.00  0.00    +0.000 A 
ATOM     18  C   UNL     1      -1.153  16.734  21.729  0.00  0.00    +0.000 A 
ATOM     19  C   UNL     1      -0.098  16.091  22.369  0.00  0.00    +0.000 A 
ATOM     20  C   UNL     1      -0.256  14.783  22.821  0.00  0.00    +0.000 A 
ATOM     21  C   UNL     1      -1.470  14.099  22.623  0.00  0.00    +0.000 A 
ENDBRANCH   9  12
BRANCH   1  23
ATOM     22  O   UNL     1       2.391   6.700  20.388  0.00  0.00    +0.000 OA
ATOM     23  C   UNL     1       2.220   7.397  19.394  0.00  0.00    +0.000 C 
ATOM     24  N   UNL     1       2.739   7.162  18.125  0.00  0.00    +0.000 N 
ATOM     25  H   UNL     1       2.630   7.878  17.412  0.00  0.00    +0.000 HD
BRANCH  24  26
ATOM     26  C   UNL     1       3.535   6.025  17.797  0.00  0.00    +0.000 A 
ATOM     27  C   UNL     1       4.915   6.174  17.567  0.00  0.00    +0.000 A 
ATOM     28  C   UNL     1       5.726   5.094  17.240  0.00  0.00    +0.000 A 
ATOM     29 CL   UNL     1       7.405   5.346  16.969  0.00  0.00    +0.000 Cl
ATOM     30  C   UNL     1       5.185   3.822  17.144  0.00  0.00    +0.000 A 
ATOM     31  C   UNL     1       3.822   3.638  17.385  0.00  0.00    +0.000 A 
ATOM     32  C   UNL     1       2.987   4.727  17.711  0.00  0.00    +0.000 A 
BRANCH  32  33
ATOM     33  C   UNL     1       1.558   4.395  17.946  0.00  0.00    +0.000 C 
ATOM     34  O   UNL     1       0.726   4.359  17.052  0.00  0.00    +0.000 OA
BRANCH  33  35
ATOM     35  O   UNL     1       1.254   4.167  19.242  0.00  0.00    +0.000 OA
ATOM     36  H   UNL     1       0.368   3.772  19.357  0.00  0.00    +0.000 HD
ENDBRANCH  33  35
ENDBRANCH  32  33
ENDBRANCH  24  26
ENDBRANCH   1  23
TORSDOF 5
ENDMDL
MODEL 6
REMARK VINA RESULT:      -8.7      2.610      3.760
REMARK  Name = 
REMARK  5 active torsions:
REMARK  status: ('A' for Active; 'I' for Inactive)
REMARK    1  A    between atoms: C_2  and  C_14
REMARK    2  A    between atoms: N_3  and  C_4
REMARK    3  A    between atoms: C_10  and  C_11
REMARK    4  A    between atoms: C_11  and  O_13
REMARK    5  A    between atoms: N_22  and  C_23
REMARK                            x       y       z     vdW  Elec       q    Type
REMARK                         _______ _______ _______ _____ _____    ______ ____
ROOT
ATOM      1  C   UNL     1       2.586   6.991  19.065  0.00  0.00    +0.000 A 
ATOM      2  C   UNL     1       2.019   6.777  20.340  0.00  0.00    +0.000 A 
ATOM      3  C   UNL     1       1.206   7.754  20.913  0.00  0.00    +0.000 A 
ATOM      4  C   UNL     1       1.002   8.915  20.187  0.00  0.00    +0.000 A 
ATOM      5  C   UNL     1       1.573   9.138  18.952  0.00  0.00    +0.000 A 
ATOM      6  C   UNL     1       2.371   8.191  18.362  0.00  0.00    +0.000 A 
ATOM      7  C   UNL     1       1.210  10.486  18.528  0.00  0.00    +0.000 C 
ATOM      8  O   UNL     1       1.605  11.000  17.498  0.00  0.00    +0.000 OA
ATOM      9  N   UNL     1       0.410  11.000  19.511  0.00  0.00    +0.000 N 
ATOM     10  C   UNL     1       0.267  10.114  20.549  0.00  0.00    +0.000 C 
ATOM     11  O   UNL     1      -0.309  10.196  21.611  0.00  0.00    +0.000 OA
ENDROOT
BRANCH   9  12
ATOM     12  C   UNL     1      -0.072  12.382  19.506  0.00  0.00    +0.000 C 
ATOM     13  C   UNL     1       0.598  13.224  20.605  0.00  0.00    +0.000 C 
ATOM     14  C   UNL     1      -0.009  12.989  21.983  0.00  0.00    +0.000 C 
ATOM     15  C   UNL     1      -1.518  13.226  21.990  0.00  0.00    +0.000 C 
ATOM     16  C   UNL     1      -2.255  12.742  20.763  0.00  0.00    +0.000 A 
ATOM     17  C   UNL     1      -3.653  12.626  20.813  0.00  0.00    +0.000 A 
ATOM     18  C   UNL     1      -4.374  12.186  19.702  0.00  0.00    +0.000 A 
ATOM     19  C   UNL     1      -3.712  11.886  18.516  0.00  0.00    +0.000 A 
ATOM     20  C   UNL     1      -2.326  12.009  18.446  0.00  0.00    +0.000 A 
ATOM     21  C   UNL     1      -1.586  12.421  19.570  0.00  0.00    +0.000 A 
ENDBRANCH   9  12
BRANCH   1  23
ATOM     22  O   UNL     1       3.427   4.866  18.861  0.00  0.00    +0.000 OA
ATOM     23  C   UNL     1       3.482   6.009  18.424  0.00  0.00    +0.000 C 
ATOM     24  N   UNL     1       4.367   6.480  17.460  0.00  0.00    +0.000 N 
ATOM     25  H   UNL     1       4.397   7.479  17.270  0.00  0.00    +0.000 HD
BRANCH  24  26
ATOM     26  C   UNL     1       5.335   5.660  16.811  0.00  0.00    +0.000 A 
ATOM     27  C   UNL     1       5.078   5.150  15.525  0.00  0.00    +0.000 A 
ATOM     28  C   UNL     1       5.991   4.342  14.858  0.00  0.00    +0.000 A 
ATOM     29 CL   UNL     1       5.613   3.751  13.289  0.00  0.00    +0.000 Cl
ATOM     30  C   UNL     1       7.202   4.026  15.452  0.00  0.00    +0.000 A 
ATOM     31  C   UNL     1       7.495   4.531  16.720  0.00  0.00    +0.000 A 
ATOM     32  C   UNL     1       6.574   5.346  17.410  0.00  0.00    +0.000 A 
BRANCH  32  33
ATOM     33  C   UNL     1       7.009   5.820  18.749  0.00  0.00    +0.000 C 
ATOM     34  O   UNL     1       7.902   6.639  18.908  0.00  0.00    +0.000 OA
BRANCH  33  35
ATOM     35  O   UNL     1       6.350   5.244  19.776  0.00  0.00    +0.000 OA
ATOM     36  H   UNL     1       6.239   5.845  20.538  0.00  0.00    +0.000 HD
ENDBRANCH  33  35
ENDBRANCH  32  33
ENDBRANCH  24  26
ENDBRANCH   1  23
TORSDOF 5
ENDMDL
MODEL 7
REMARK VINA RESULT:      -8.7      3.366     10.653
REMARK  Name = 
REMARK  5 active torsions:
REMARK  status: ('A' for Active; 'I' for Inactive)
REMARK    1  A    between atoms: C_2  and  C_14
REMARK    2  A    between atoms: N_3  and  C_4
REMARK    3  A    between atoms: C_10  and  C_11
REMARK    4  A    between atoms: C_11  and  O_13
REMARK    5  A    between atoms: N_22  and  C_23
REMARK                            x       y       z     vdW  Elec       q    Type
REMARK                         _______ _______ _______ _____ _____    ______ ____
ROOT
ATOM      1  C   UNL     1       1.099   9.328  19.235  0.00  0.00    +0.000 A 
ATOM      2  C   UNL     1       1.749   9.852  18.096  0.00  0.00    +0.000 A 
ATOM      3  C   UNL     1       2.717   9.094  17.438  0.00  0.00    +0.000 A 
ATOM      4  C   UNL     1       3.003   7.843  17.955  0.00  0.00    +0.000 A 
ATOM      5  C   UNL     1       2.388   7.338  19.081  0.00  0.00    +0.000 A 
ATOM      6  C   UNL     1       1.427   8.058  19.745  0.00  0.00    +0.000 A 
ATOM      7  C   UNL     1       2.992   6.043  19.378  0.00  0.00    +0.000 C 
ATOM      8  O   UNL     1       2.699   5.366  20.346  0.00  0.00    +0.000 OA
ATOM      9  N   UNL     1       3.920   5.814  18.399  0.00  0.00    +0.000 N 
ATOM     10  C   UNL     1       3.993   6.870  17.527  0.00  0.00    +0.000 C 
ATOM     11  O   UNL     1       4.703   7.083  16.569  0.00  0.00    +0.000 OA
ENDROOT
BRANCH   9  12
ATOM     12  C   UNL     1       4.821   4.660  18.409  0.00  0.00    +0.000 C 
ATOM     13  C   UNL     1       5.843   4.745  19.555  0.00  0.00    +0.000 C 
ATOM     14  C   UNL     1       7.004   5.683  19.244  0.00  0.00    +0.000 C 
ATOM     15  C   UNL     1       7.708   5.308  17.942  0.00  0.00    +0.000 C 
ATOM     16  C   UNL     1       6.800   4.855  16.822  0.00  0.00    +0.000 A 
ATOM     17  C   UNL     1       7.311   4.799  15.516  0.00  0.00    +0.000 A 
ATOM     18  C   UNL     1       6.509   4.383  14.452  0.00  0.00    +0.000 A 
ATOM     19  C   UNL     1       5.194   3.990  14.683  0.00  0.00    +0.000 A 
ATOM     20  C   UNL     1       4.676   4.028  15.975  0.00  0.00    +0.000 A 
ATOM     21  C   UNL     1       5.467   4.475  17.050  0.00  0.00    +0.000 A 
ENDBRANCH   9  12
BRANCH   1  23
ATOM     22  O   UNL     1      -0.421   9.517  20.943  0.00  0.00    +0.000 OA
ATOM     23  C   UNL     1       0.093  10.096  19.993  0.00  0.00    +0.000 C 
ATOM     24  N   UNL     1      -0.249  11.356  19.514  0.00  0.00    +0.000 N 
ATOM     25  H   UNL     1       0.166  11.677  18.643  0.00  0.00    +0.000 HD
BRANCH  24  26
ATOM     26  C   UNL     1      -1.253  12.178  20.105  0.00  0.00    +0.000 A 
ATOM     27  C   UNL     1      -2.598  12.039  19.713  0.00  0.00    +0.000 A 
ATOM     28  C   UNL     1      -3.607  12.822  20.260  0.00  0.00    +0.000 A 
ATOM     29 CL   UNL     1      -5.230  12.602  19.736  0.00  0.00    +0.000 Cl
ATOM     30  C   UNL     1      -3.307  13.766  21.228  0.00  0.00    +0.000 A 
ATOM     31  C   UNL     1      -1.985  13.916  21.651  0.00  0.00    +0.000 A 
ATOM     32  C   UNL     1      -0.951  13.132  21.101  0.00  0.00    +0.000 A 
BRANCH  32  33
ATOM     33  C   UNL     1       0.410  13.387  21.640  0.00  0.00    +0.000 C 
ATOM     34  O   UNL     1       1.410  12.824  21.221  0.00  0.00    +0.000 OA
BRANCH  33  35
ATOM     35  O   UNL     1       0.439  14.278  22.654  0.00  0.00    +0.000 OA
ATOM     36  H   UNL     1      -0.209  14.999  22.542  0.00  0.00    +0.000 HD
ENDBRANCH  33  35
ENDBRANCH  32  33
ENDBRANCH  24  26
ENDBRANCH   1  23
TORSDOF 5
ENDMDL
MODEL 8
REMARK VINA RESULT:      -8.7      1.178      2.722
REMARK  Name = 
REMARK  5 active torsions:
REMARK  status: ('A' for Active; 'I' for Inactive)
REMARK    1  A    between atoms: C_2  and  C_14
REMARK    2  A    between atoms: N_3  and  C_4
REMARK    3  A    between atoms: C_10  and  C_11
REMARK    4  A    between atoms: C_11  and  O_13
REMARK    5  A    between atoms: N_22  and  C_23
REMARK                            x       y       z     vdW  Elec       q    Type
REMARK                         _______ _______ _______ _____ _____    ______ ____
ROOT
ATOM      1  C   UNL     1       1.433   8.820  19.138  0.00  0.00    +0.000 A 
ATOM      2  C   UNL     1       0.821   9.634  18.159  0.00  0.00    +0.000 A 
ATOM      3  C   UNL     1       0.064  10.738  18.548  0.00  0.00    +0.000 A 
ATOM      4  C   UNL     1      -0.060  10.977  19.905  0.00  0.00    +0.000 A 
ATOM      5  C   UNL     1       0.515  10.171  20.864  0.00  0.00    +0.000 A 
ATOM      6  C   UNL     1       1.271   9.082  20.512  0.00  0.00    +0.000 A 
ATOM      7  C   UNL     1       0.109  10.672  22.173  0.00  0.00    +0.000 C 
ATOM      8  O   UNL     1       0.412  10.141  23.225  0.00  0.00    +0.000 OA
ATOM      9  N   UNL     1      -0.665  11.776  21.942  0.00  0.00    +0.000 N 
ATOM     10  C   UNL     1      -0.825  11.998  20.598  0.00  0.00    +0.000 C 
ATOM     11  O   UNL     1      -1.462  12.826  19.983  0.00  0.00    +0.000 OA
ENDROOT
BRANCH   9  12
ATOM     12  C   UNL     1      -1.358  12.502  23.008  0.00  0.00    +0.000 C 
ATOM     13  C   UNL     1      -2.772  11.946  23.251  0.00  0.00    +0.000 C 
ATOM     14  C   UNL     1      -3.784  12.436  22.222  0.00  0.00    +0.000 C 
ATOM     15  C   UNL     1      -3.828  13.961  22.146  0.00  0.00    +0.000 C 
ATOM     16  C   UNL     1      -2.490  14.653  22.257  0.00  0.00    +0.000 A 
ATOM     17  C   UNL     1      -2.392  16.003  21.884  0.00  0.00    +0.000 A 
ATOM     18  C   UNL     1      -1.175  16.683  21.973  0.00  0.00    +0.000 A 
ATOM     19  C   UNL     1      -0.048  16.032  22.465  0.00  0.00    +0.000 A 
ATOM     20  C   UNL     1      -0.133  14.697  22.852  0.00  0.00    +0.000 A 
ATOM     21  C   UNL     1      -1.346  13.993  22.736  0.00  0.00    +0.000 A 
ENDBRANCH   9  12
BRANCH   1  23
ATOM     22  O   UNL     1       2.291   7.354  17.595  0.00  0.00    +0.000 OA
ATOM     23  C   UNL     1       2.216   7.619  18.789  0.00  0.00    +0.000 C 
ATOM     24  N   UNL     1       2.711   6.849  19.836  0.00  0.00    +0.000 N 
ATOM     25  H   UNL     1       2.478   7.112  20.790  0.00  0.00    +0.000 HD
BRANCH  24  26
ATOM     26  C   UNL     1       3.423   5.628  19.648  0.00  0.00    +0.000 A 
ATOM     27  C   UNL     1       4.660   5.630  18.977  0.00  0.00    +0.000 A 
ATOM     28  C   UNL     1       5.385   4.463  18.768  0.00  0.00    +0.000 A 
ATOM     29 CL   UNL     1       6.890   4.536  17.940  0.00  0.00    +0.000 Cl
ATOM     30  C   UNL     1       4.901   3.252  19.234  0.00  0.00    +0.000 A 
ATOM     31  C   UNL     1       3.685   3.219  19.919  0.00  0.00    +0.000 A 
ATOM     32  C   UNL     1       2.937   4.395  20.133  0.00  0.00    +0.000 A 
BRANCH  32  33
ATOM     33  C   UNL     1       1.664   4.223  20.878  0.00  0.00    +0.000 C 
ATOM     34  O   UNL     1       0.628   4.792  20.567  0.00  0.00    +0.000 OA
BRANCH  33  35
ATOM     35  O   UNL     1       1.760   3.405  21.947  0.00  0.00    +0.000 OA
ATOM     36  H   UNL     1       0.890   3.088  22.259  0.00  0.00    +0.000 HD
ENDBRANCH  33  35
ENDBRANCH  32  33
ENDBRANCH  24  26
ENDBRANCH   1  23
TORSDOF 5
ENDMDL
MODEL 9
REMARK VINA RESULT:      -8.7      3.210     10.203
REMARK  Name = 
REMARK  5 active torsions:
REMARK  status: ('A' for Active; 'I' for Inactive)
REMARK    1  A    between atoms: C_2  and  C_14
REMARK    2  A    between atoms: N_3  and  C_4
REMARK    3  A    between atoms: C_10  and  C_11
REMARK    4  A    between atoms: C_11  and  O_13
REMARK    5  A    between atoms: N_22  and  C_23
REMARK                            x       y       z     vdW  Elec       q    Type
REMARK                         _______ _______ _______ _____ _____    ______ ____
ROOT
ATOM      1  C   UNL     1       0.486  10.249  20.887  0.00  0.00    +0.000 A 
ATOM      2  C   UNL     1       0.530   9.270  21.905  0.00  0.00    +0.000 A 
ATOM      3  C   UNL     1       1.144   8.042  21.662  0.00  0.00    +0.000 A 
ATOM      4  C   UNL     1       1.681   7.839  20.404  0.00  0.00    +0.000 A 
ATOM      5  C   UNL     1       1.620   8.782  19.400  0.00  0.00    +0.000 A 
ATOM      6  C   UNL     1       1.029  10.001  19.612  0.00  0.00    +0.000 A 
ATOM      7  C   UNL     1       2.208   8.198  18.200  0.00  0.00    +0.000 C 
ATOM      8  O   UNL     1       2.256   8.765  17.125  0.00  0.00    +0.000 OA
ATOM      9  N   UNL     1       2.627   6.942  18.545  0.00  0.00    +0.000 N 
ATOM     10  C   UNL     1       2.316   6.656  19.850  0.00  0.00    +0.000 C 
ATOM     11  O   UNL     1       2.467   5.657  20.519  0.00  0.00    +0.000 OA
ENDROOT
BRANCH   9  12
ATOM     12  C   UNL     1       3.175   5.989  17.577  0.00  0.00    +0.000 C 
ATOM     13  C   UNL     1       2.508   4.608  17.696  0.00  0.00    +0.000 C 
ATOM     14  C   UNL     1       3.054   3.785  18.857  0.00  0.00    +0.000 C 
ATOM     15  C   UNL     1       4.572   3.628  18.779  0.00  0.00    +0.000 C 
ATOM     16  C   UNL     1       5.327   4.853  18.319  0.00  0.00    +0.000 A 
ATOM     17  C   UNL     1       6.715   4.908  18.519  0.00  0.00    +0.000 A 
ATOM     18  C   UNL     1       7.453   6.019  18.106  0.00  0.00    +0.000 A 
ATOM     19  C   UNL     1       6.819   7.076  17.460  0.00  0.00    +0.000 A 
ATOM     20  C   UNL     1       5.444   7.030  17.242  0.00  0.00    +0.000 A 
ATOM     21  C   UNL     1       4.686   5.929  17.683  0.00  0.00    +0.000 A 
ENDBRANCH   9  12
BRANCH   1  23
ATOM     22  O   UNL     1       0.382  12.519  20.572  0.00  0.00    +0.000 OA
ATOM     23  C   UNL     1      -0.180  11.552  21.073  0.00  0.00    +0.000 C 
ATOM     24  N   UNL     1      -1.319  11.584  21.869  0.00  0.00    +0.000 N 
ATOM     25  H   UNL     1      -1.619  10.727  22.328  0.00  0.00    +0.000 HD
BRANCH  24  26
ATOM     26  C   UNL     1      -2.023  12.781  22.191  0.00  0.00    +0.000 A 
ATOM     27  C   UNL     1      -1.727  13.475  23.378  0.00  0.00    +0.000 A 
ATOM     28  C   UNL     1      -2.392  14.643  23.732  0.00  0.00    +0.000 A 
ATOM     29 CL   UNL     1      -1.984  15.441  25.199  0.00  0.00    +0.000 Cl
ATOM     30  C   UNL     1      -3.370  15.165  22.901  0.00  0.00    +0.000 A 
ATOM     31  C   UNL     1      -3.674  14.510  21.706  0.00  0.00    +0.000 A 
ATOM     32  C   UNL     1      -3.011  13.321  21.339  0.00  0.00    +0.000 A 
BRANCH  32  33
ATOM     33  C   UNL     1      -3.425  12.726  20.042  0.00  0.00    +0.000 C 
ATOM     34  O   UNL     1      -4.539  12.263  19.846  0.00  0.00    +0.000 OA
BRANCH  33  35
ATOM     35  O   UNL     1      -2.451  12.715  19.107  0.00  0.00    +0.000 OA
ATOM     36  H   UNL     1      -2.105  13.607  18.913  0.00  0.00    +0.000 HD
ENDBRANCH  33  35
ENDBRANCH  32  33
ENDBRANCH  24  26
ENDBRANCH   1  23
TORSDOF 5
ENDMDL
