MODEL 1
REMARK VINA RESULT:      -7.5      0.000      0.000
REMARK  Name = 
REMARK  3 active torsions:
REMARK  status: ('A' for Active; 'I' for Inactive)
REMARK    1  A    between atoms: C_1  and  C_2
REMARK    2  A    between atoms: C_5  and  C_6
REMARK    3  A    between atoms: C_10  and  C_12
REMARK                            x       y       z     vdW  Elec       q    Type
REMARK                         _______ _______ _______ _____ _____    ______ ____
ROOT
ATOM      1  C   UNL     1       5.954   4.867  17.361  0.00  0.00    +0.000 C 
ATOM      2  C   UNL     1       4.802   3.921  17.739  0.00  0.00    +0.000 C 
ATOM      3  C   UNL     1       3.418   4.494  17.442  0.00  0.00    +0.000 C 
ATOM      4  N   UNL     1       3.304   5.846  17.976  0.00  0.00    +0.000 N 
ATOM      5  C   UNL     1       2.461   6.095  19.060  0.00  0.00    +0.000 C 
ATOM      6  O   UNL     1       1.834   5.176  19.595  0.00  0.00    +0.000 OA
ATOM      7  C   UNL     1       4.253   6.790  17.399  0.00  0.00    +0.000 C 
ATOM      8  C   UNL     1       5.679   6.339  17.710  0.00  0.00    +0.000 C 
ENDROOT
BRANCH   1  13
ATOM      9  C   UNL     1       6.530   3.713  12.570  0.00  0.00    +0.000 C 
ATOM     10  C   UNL     1       6.676   4.312  13.909  0.00  0.00    +0.000 A 
ATOM     11  N   UNL     1       7.538   5.305  14.156  0.00  0.00    +0.000 NA
ATOM     12  O   UNL     1       7.337   5.579  15.502  0.00  0.00    +0.000 OA
ATOM     13  C   UNL     1       6.370   4.715  15.936  0.00  0.00    +0.000 A 
ATOM     14  N   UNL     1       5.931   3.911  14.993  0.00  0.00    +0.000 NA
ENDBRANCH   1  13
BRANCH   5  15
ATOM     15  C   UNL     1       2.378   7.540  19.619  0.00  0.00    +0.000 C 
ATOM     16  C   UNL     1       1.515   7.629  20.872  0.00  0.00    +0.000 C 
ATOM     17  C   UNL     1       0.988   9.038  20.840  0.00  0.00    +0.000 C 
ATOM     18  C   UNL     1       0.877   9.317  19.361  0.00  0.00    +0.000 C 
ATOM     19  O   UNL     1       1.843   8.497  18.694  0.00  0.00    +0.000 OA
ENDBRANCH   5  15
TORSDOF 2
ENDMDL
MODEL 2
REMARK VINA RESULT:      -7.2      3.149      4.271
REMARK  Name = 
REMARK  3 active torsions:
REMARK  status: ('A' for Active; 'I' for Inactive)
REMARK    1  A    between atoms: C_1  and  C_2
REMARK    2  A    between atoms: C_5  and  C_6
REMARK    3  A    between atoms: C_10  and  C_12
REMARK                            x       y       z     vdW  Elec       q    Type
REMARK                         _______ _______ _______ _____ _____    ______ ____
ROOT
ATOM      1  C   UNL     1       5.970   4.934  17.439  0.00  0.00    +0.000 C 
ATOM      2  C   UNL     1       4.812   5.275  16.486  0.00  0.00    +0.000 C 
ATOM      3  C   UNL     1       3.572   5.810  17.197  0.00  0.00    +0.000 C 
ATOM      4  N   UNL     1       3.214   4.944  18.313  0.00  0.00    +0.000 N 
ATOM      5  C   UNL     1       2.050   4.176  18.249  0.00  0.00    +0.000 C 
ATOM      6  O   UNL     1       1.335   4.196  17.243  0.00  0.00    +0.000 OA
ATOM      7  C   UNL     1       4.244   4.847  19.339  0.00  0.00    +0.000 C 
ATOM      8  C   UNL     1       5.513   4.246  18.737  0.00  0.00    +0.000 C 
ENDROOT
BRANCH   1  13
ATOM      9  C   UNL     1       8.197   9.356  17.760  0.00  0.00    +0.000 C 
ATOM     10  C   UNL     1       7.826   7.942  17.946  0.00  0.00    +0.000 A 
ATOM     11  N   UNL     1       8.425   7.160  18.851  0.00  0.00    +0.000 NA
ATOM     12  O   UNL     1       7.769   5.944  18.711  0.00  0.00    +0.000 OA
ATOM     13  C   UNL     1       6.836   6.115  17.726  0.00  0.00    +0.000 A 
ATOM     14  N   UNL     1       6.832   7.327  17.220  0.00  0.00    +0.000 NA
ENDBRANCH   1  13
BRANCH   5  15
ATOM     15  C   UNL     1       1.708   3.247  19.445  0.00  0.00    +0.000 C 
ATOM     16  C   UNL     1       1.327   4.030  20.697  0.00  0.00    +0.000 C 
ATOM     17  C   UNL     1       1.721   3.111  21.822  0.00  0.00    +0.000 C 
ATOM     18  C   UNL     1       2.917   2.386  21.254  0.00  0.00    +0.000 C 
ATOM     19  O   UNL     1       2.774   2.369  19.829  0.00  0.00    +0.000 OA
ENDBRANCH   5  15
TORSDOF 2
ENDMDL
MODEL 3
REMARK VINA RESULT:      -7.1      1.845      7.026
REMARK  Name = 
REMARK  3 active torsions:
REMARK  status: ('A' for Active; 'I' for Inactive)
REMARK    1  A    between atoms: C_1  and  C_2
REMARK    2  A    between atoms: C_5  and  C_6
REMARK    3  A    between atoms: C_10  and  C_12
REMARK                            x       y       z     vdW  Elec       q    Type
REMARK                         _______ _______ _______ _____ _____    ______ ____
ROOT
ATOM      1  C   UNL     1       3.683   4.124  18.565  0.00  0.00    +0.000 C 
ATOM      2  C   UNL     1       5.147   3.969  19.011  0.00  0.00    +0.000 C 
ATOM      3  C   UNL     1       6.062   5.080  18.502  0.00  0.00    +0.000 C 
ATOM      4  N   UNL     1       5.873   5.275  17.069  0.00  0.00    +0.000 N 
ATOM      5  C   UNL     1       6.890   4.919  16.181  0.00  0.00    +0.000 C 
ATOM      6  O   UNL     1       7.937   4.409  16.592  0.00  0.00    +0.000 OA
ATOM      7  C   UNL     1       4.522   5.678  16.702  0.00  0.00    +0.000 C 
ATOM      8  C   UNL     1       3.533   4.588  17.106  0.00  0.00    +0.000 C 
ENDROOT
BRANCH   1  13
ATOM      9  C   UNL     1       1.358   7.754  21.022  0.00  0.00    +0.000 C 
ATOM     10  C   UNL     1       1.860   6.440  20.579  0.00  0.00    +0.000 A 
ATOM     11  N   UNL     1       1.457   5.296  21.142  0.00  0.00    +0.000 NA
ATOM     12  O   UNL     1       2.139   4.324  20.422  0.00  0.00    +0.000 OA
ATOM     13  C   UNL     1       2.894   4.985  19.493  0.00  0.00    +0.000 A 
ATOM     14  N   UNL     1       2.760   6.291  19.550  0.00  0.00    +0.000 NA
ENDBRANCH   1  13
BRANCH   5  15
ATOM     15  C   UNL     1       6.650   5.118  14.661  0.00  0.00    +0.000 C 
ATOM     16  C   UNL     1       6.232   3.827  13.965  0.00  0.00    +0.000 C 
ATOM     17  C   UNL     1       6.724   4.010  12.555  0.00  0.00    +0.000 C 
ATOM     18  C   UNL     1       7.963   4.851  12.742  0.00  0.00    +0.000 C 
ATOM     19  O   UNL     1       7.793   5.608  13.947  0.00  0.00    +0.000 OA
ENDBRANCH   5  15
TORSDOF 2
ENDMDL
MODEL 4
REMARK VINA RESULT:      -7.1      3.247      4.348
REMARK  Name = 
REMARK  3 active torsions:
REMARK  status: ('A' for Active; 'I' for Inactive)
REMARK    1  A    between atoms: C_1  and  C_2
REMARK    2  A    between atoms: C_5  and  C_6
REMARK    3  A    between atoms: C_10  and  C_12
REMARK                            x       y       z     vdW  Elec       q    Type
REMARK                         _______ _______ _______ _____ _____    ______ ____
ROOT
ATOM      1  C   UNL     1       6.542   4.731  17.864  0.00  0.00    +0.000 C 
ATOM      2  C   UNL     1       5.765   4.420  16.574  0.00  0.00    +0.000 C 
ATOM      3  C   UNL     1       4.298   4.840  16.628  0.00  0.00    +0.000 C 
ATOM      4  N   UNL     1       3.676   4.353  17.853  0.00  0.00    +0.000 N 
ATOM      5  C   UNL     1       2.712   3.346  17.789  0.00  0.00    +0.000 C 
ATOM      6  O   UNL     1       2.403   2.837  16.707  0.00  0.00    +0.000 OA
ATOM      7  C   UNL     1       4.280   4.879  19.070  0.00  0.00    +0.000 C 
ATOM      8  C   UNL     1       5.742   4.444  19.146  0.00  0.00    +0.000 C 
ENDROOT
BRANCH   1  13
ATOM      9  C   UNL     1       8.871   9.021  18.754  0.00  0.00    +0.000 C 
ATOM     10  C   UNL     1       8.060   7.950  18.146  0.00  0.00    +0.000 A 
ATOM     11  N   UNL     1       7.507   8.074  16.935  0.00  0.00    +0.000 NA
ATOM     12  O   UNL     1       6.870   6.856  16.745  0.00  0.00    +0.000 OA
ATOM     13  C   UNL     1       7.101   6.115  17.870  0.00  0.00    +0.000 A 
ATOM     14  N   UNL     1       7.827   6.745  18.766  0.00  0.00    +0.000 NA
ENDBRANCH   1  13
BRANCH   5  15
ATOM     15  C   UNL     1       2.084   2.834  19.112  0.00  0.00    +0.000 C 
ATOM     16  C   UNL     1       1.366   3.940  19.879  0.00  0.00    +0.000 C 
ATOM     17  C   UNL     1       1.466   3.498  21.314  0.00  0.00    +0.000 C 
ATOM     18  C   UNL     1       2.786   2.766  21.344  0.00  0.00    +0.000 C 
ATOM     19  O   UNL     1       3.028   2.261  20.026  0.00  0.00    +0.000 OA
ENDBRANCH   5  15
TORSDOF 2
ENDMDL
MODEL 5
REMARK VINA RESULT:      -6.9      0.842      1.010
REMARK  Name = 
REMARK  3 active torsions:
REMARK  status: ('A' for Active; 'I' for Inactive)
REMARK    1  A    between atoms: C_1  and  C_2
REMARK    2  A    between atoms: C_5  and  C_6
REMARK    3  A    between atoms: C_10  and  C_12
REMARK                            x       y       z     vdW  Elec       q    Type
REMARK                         _______ _______ _______ _____ _____    ______ ____
ROOT
ATOM      1  C   UNL     1       5.940   4.810  17.277  0.00  0.00    +0.000 C 
ATOM      2  C   UNL     1       4.765   3.866  17.584  0.00  0.00    +0.000 C 
ATOM      3  C   UNL     1       3.396   4.486  17.312  0.00  0.00    +0.000 C 
ATOM      4  N   UNL     1       3.305   5.803  17.931  0.00  0.00    +0.000 N 
ATOM      5  C   UNL     1       2.456   5.999  19.021  0.00  0.00    +0.000 C 
ATOM      6  O   UNL     1       1.805   5.061  19.491  0.00  0.00    +0.000 OA
ATOM      7  C   UNL     1       4.278   6.761  17.424  0.00  0.00    +0.000 C 
ATOM      8  C   UNL     1       5.691   6.262  17.718  0.00  0.00    +0.000 C 
ENDROOT
BRANCH   1  13
ATOM      9  C   UNL     1       8.020   5.328  12.803  0.00  0.00    +0.000 C 
ATOM     10  C   UNL     1       7.199   4.867  13.937  0.00  0.00    +0.000 A 
ATOM     11  N   UNL     1       6.403   3.796  13.852  0.00  0.00    +0.000 NA
ATOM     12  O   UNL     1       5.848   3.705  15.122  0.00  0.00    +0.000 OA
ATOM     13  C   UNL     1       6.367   4.741  15.849  0.00  0.00    +0.000 A 
ATOM     14  N   UNL     1       7.202   5.489  15.164  0.00  0.00    +0.000 NA
ENDBRANCH   1  13
BRANCH   5  15
ATOM     15  C   UNL     1       2.397   7.407  19.671  0.00  0.00    +0.000 C 
ATOM     16  C   UNL     1       1.502   7.439  20.906  0.00  0.00    +0.000 C 
ATOM     17  C   UNL     1       1.014   8.863  20.952  0.00  0.00    +0.000 C 
ATOM     18  C   UNL     1       0.952   9.240  19.492  0.00  0.00    +0.000 C 
ATOM     19  O   UNL     1       1.913   8.436  18.798  0.00  0.00    +0.000 OA
ENDBRANCH   5  15
TORSDOF 2
ENDMDL
MODEL 6
REMARK VINA RESULT:      -6.8      3.098      4.579
REMARK  Name = 
REMARK  3 active torsions:
REMARK  status: ('A' for Active; 'I' for Inactive)
REMARK    1  A    between atoms: C_1  and  C_2
REMARK    2  A    between atoms: C_5  and  C_6
REMARK    3  A    between atoms: C_10  and  C_12
REMARK                            x       y       z     vdW  Elec       q    Type
REMARK                         _______ _______ _______ _____ _____    ______ ____
ROOT
ATOM      1  C   UNL     1       6.323   6.188  17.105  0.00  0.00    +0.000 C 
ATOM      2  C   UNL     1       4.994   6.738  16.561  0.00  0.00    +0.000 C 
ATOM      3  C   UNL     1       3.927   6.932  17.637  0.00  0.00    +0.000 C 
ATOM      4  N   UNL     1       3.807   5.732  18.455  0.00  0.00    +0.000 N 
ATOM      5  C   UNL     1       2.655   4.948  18.372  0.00  0.00    +0.000 C 
ATOM      6  O   UNL     1       1.748   5.242  17.588  0.00  0.00    +0.000 OA
ATOM      7  C   UNL     1       5.028   5.381  19.170  0.00  0.00    +0.000 C 
ATOM      8  C   UNL     1       6.144   5.092  18.168  0.00  0.00    +0.000 C 
ENDROOT
BRANCH   1  13
ATOM      9  C   UNL     1       8.764  10.393  18.098  0.00  0.00    +0.000 C 
ATOM     10  C   UNL     1       8.302   8.993  18.088  0.00  0.00    +0.000 A 
ATOM     11  N   UNL     1       8.788   8.075  18.932  0.00  0.00    +0.000 NA
ATOM     12  O   UNL     1       8.077   6.928  18.605  0.00  0.00    +0.000 OA
ATOM     13  C   UNL     1       7.230   7.270  17.587  0.00  0.00    +0.000 A 
ATOM     14  N   UNL     1       7.332   8.530  17.229  0.00  0.00    +0.000 NA
ENDBRANCH   1  13
BRANCH   5  15
ATOM     15  C   UNL     1       2.567   3.665  19.240  0.00  0.00    +0.000 C 
ATOM     16  C   UNL     1       1.480   2.711  18.756  0.00  0.00    +0.000 C 
ATOM     17  C   UNL     1       1.073   1.976  20.005  0.00  0.00    +0.000 C 
ATOM     18  C   UNL     1       1.280   3.013  21.082  0.00  0.00    +0.000 C 
ATOM     19  O   UNL     1       2.297   3.911  20.626  0.00  0.00    +0.000 OA
ENDBRANCH   5  15
TORSDOF 2
ENDMDL
MODEL 7
REMARK VINA RESULT:      -6.8      2.734      3.505
REMARK  Name = 
REMARK  3 active torsions:
REMARK  status: ('A' for Active; 'I' for Inactive)
REMARK    1  A    between atoms: C_1  and  C_2
REMARK    2  A    between atoms: C_5  and  C_6
REMARK    3  A    between atoms: C_10  and  C_12
REMARK                            x       y       z     vdW  Elec       q    Type
REMARK                         _______ _______ _______ _____ _____    ______ ____
ROOT
ATOM      1  C   UNL     1       5.788   5.551  15.437  0.00  0.00    +0.000 C 
ATOM      2  C   UNL     1       6.785   5.683  16.600  0.00  0.00    +0.000 C 
ATOM      3  C   UNL     1       6.854   4.444  17.490  0.00  0.00    +0.000 C 
ATOM      4  N   UNL     1       5.513   4.022  17.875  0.00  0.00    +0.000 N 
ATOM      5  C   UNL     1       5.098   4.155  19.201  0.00  0.00    +0.000 C 
ATOM      6  O   UNL     1       5.844   4.658  20.048  0.00  0.00    +0.000 OA
ATOM      7  C   UNL     1       4.666   3.651  16.750  0.00  0.00    +0.000 C 
ATOM      8  C   UNL     1       4.474   4.857  15.832  0.00  0.00    +0.000 C 
ENDROOT
BRANCH   1  13
ATOM      9  C   UNL     1       6.997   2.802  11.486  0.00  0.00    +0.000 C 
ATOM     10  C   UNL     1       6.977   3.830  12.543  0.00  0.00    +0.000 A 
ATOM     11  N   UNL     1       7.846   4.846  12.566  0.00  0.00    +0.000 NA
ATOM     12  O   UNL     1       7.465   5.572  13.687  0.00  0.00    +0.000 OA
ATOM     13  C   UNL     1       6.399   4.913  14.234  0.00  0.00    +0.000 A 
ATOM     14  N   UNL     1       6.061   3.831  13.569  0.00  0.00    +0.000 NA
ENDBRANCH   1  13
BRANCH   5  15
ATOM     15  C   UNL     1       3.658   3.716  19.575  0.00  0.00    +0.000 C 
ATOM     16  C   UNL     1       2.846   4.852  20.188  0.00  0.00    +0.000 C 
ATOM     17  C   UNL     1       1.861   4.143  21.079  0.00  0.00    +0.000 C 
ATOM     18  C   UNL     1       2.635   2.928  21.528  0.00  0.00    +0.000 C 
ATOM     19  O   UNL     1       3.599   2.631  20.511  0.00  0.00    +0.000 OA
ENDBRANCH   5  15
TORSDOF 2
ENDMDL
MODEL 8
REMARK VINA RESULT:      -6.8      3.226      4.704
REMARK  Name = 
REMARK  3 active torsions:
REMARK  status: ('A' for Active; 'I' for Inactive)
REMARK    1  A    between atoms: C_1  and  C_2
REMARK    2  A    between atoms: C_5  and  C_6
REMARK    3  A    between atoms: C_10  and  C_12
REMARK                            x       y       z     vdW  Elec       q    Type
REMARK                         _______ _______ _______ _____ _____    ______ ____
ROOT
ATOM      1  C   UNL     1       7.320   5.775  17.950  0.00  0.00    +0.000 C 
ATOM      2  C   UNL     1       6.547   5.499  16.649  0.00  0.00    +0.000 C 
ATOM      3  C   UNL     1       5.052   5.791  16.752  0.00  0.00    +0.000 C 
ATOM      4  N   UNL     1       4.494   5.164  17.944  0.00  0.00    +0.000 N 
ATOM      5  C   UNL     1       3.614   4.088  17.813  0.00  0.00    +0.000 C 
ATOM      6  O   UNL     1       3.328   3.639  16.699  0.00  0.00    +0.000 OA
ATOM      7  C   UNL     1       5.075   5.644  19.190  0.00  0.00    +0.000 C 
ATOM      8  C   UNL     1       6.569   5.327  19.215  0.00  0.00    +0.000 C 
ENDROOT
BRANCH   1  13
ATOM      9  C   UNL     1       9.327  10.158  19.126  0.00  0.00    +0.000 C 
ATOM     10  C   UNL     1       8.582   9.076  18.456  0.00  0.00    +0.000 A 
ATOM     11  N   UNL     1       7.972   9.253  17.279  0.00  0.00    +0.000 NA
ATOM     12  O   UNL     1       7.428   8.005  17.007  0.00  0.00    +0.000 OA
ATOM     13  C   UNL     1       7.764   7.195  18.056  0.00  0.00    +0.000 A 
ATOM     14  N   UNL     1       8.473   7.808  18.978  0.00  0.00    +0.000 NA
ENDBRANCH   1  13
BRANCH   5  15
ATOM     15  C   UNL     1       3.054   3.428  19.101  0.00  0.00    +0.000 C 
ATOM     16  C   UNL     1       2.161   2.230  18.797  0.00  0.00    +0.000 C 
ATOM     17  C   UNL     1       1.213   2.189  19.966  0.00  0.00    +0.000 C 
ATOM     18  C   UNL     1       1.074   3.647  20.331  0.00  0.00    +0.000 C 
ATOM     19  O   UNL     1       2.276   4.310  19.921  0.00  0.00    +0.000 OA
ENDBRANCH   5  15
TORSDOF 2
ENDMDL
MODEL 9
REMARK VINA RESULT:      -6.5      2.251      3.175
REMARK  Name = 
REMARK  3 active torsions:
REMARK  status: ('A' for Active; 'I' for Inactive)
REMARK    1  A    between atoms: C_1  and  C_2
REMARK    2  A    between atoms: C_5  and  C_6
REMARK    3  A    between atoms: C_10  and  C_12
REMARK                            x       y       z     vdW  Elec       q    Type
REMARK                         _______ _______ _______ _____ _____    ______ ____
ROOT
ATOM      1  C   UNL     1       6.209   5.743  15.280  0.00  0.00    +0.000 C 
ATOM      2  C   UNL     1       7.368   5.630  16.285  0.00  0.00    +0.000 C 
ATOM      3  C   UNL     1       7.194   4.499  17.295  0.00  0.00    +0.000 C 
ATOM      4  N   UNL     1       5.865   4.553  17.893  0.00  0.00    +0.000 N 
ATOM      5  C   UNL     1       5.724   4.903  19.237  0.00  0.00    +0.000 C 
ATOM      6  O   UNL     1       6.710   5.199  19.919  0.00  0.00    +0.000 OA
ATOM      7  C   UNL     1       4.780   4.396  16.933  0.00  0.00    +0.000 C 
ATOM      8  C   UNL     1       4.825   5.534  15.916  0.00  0.00    +0.000 C 
ENDROOT
BRANCH   1  13
ATOM      9  C   UNL     1       5.954   2.387  11.635  0.00  0.00    +0.000 C 
ATOM     10  C   UNL     1       6.366   3.504  12.504  0.00  0.00    +0.000 A 
ATOM     11  N   UNL     1       7.389   4.309  12.194  0.00  0.00    +0.000 NA
ATOM     12  O   UNL     1       7.415   5.216  13.244  0.00  0.00    +0.000 OA
ATOM     13  C   UNL     1       6.400   4.863  14.091  0.00  0.00    +0.000 A 
ATOM     14  N   UNL     1       5.726   3.812  13.682  0.00  0.00    +0.000 NA
ENDBRANCH   1  13
BRANCH   5  15
ATOM     15  C   UNL     1       4.295   4.973  19.838  0.00  0.00    +0.000 C 
ATOM     16  C   UNL     1       3.529   3.666  19.668  0.00  0.00    +0.000 C 
ATOM     17  C   UNL     1       2.089   4.103  19.626  0.00  0.00    +0.000 C 
ATOM     18  C   UNL     1       2.174   5.463  18.979  0.00  0.00    +0.000 C 
ATOM     19  O   UNL     1       3.470   5.999  19.270  0.00  0.00    +0.000 OA
ENDBRANCH   5  15
TORSDOF 2
ENDMDL
