MODEL 1
REMARK VINA RESULT:      -8.5      0.000      0.000
REMARK  Name = 
REMARK  5 active torsions:
REMARK  status: ('A' for Active; 'I' for Inactive)
REMARK    1  A    between atoms: C_1  and  C_2
REMARK    2  A    between atoms: C_4  and  C_5
REMARK    3  A    between atoms: C_10  and  N_11
REMARK    4  A    between atoms: C_12  and  C_14
REMARK    5  A    between atoms: C_21  and  C_22
REMARK                            x       y       z     vdW  Elec       q    Type
REMARK                         _______ _______ _______ _____ _____    ______ ____
ROOT
ATOM      1  C   UNL     1       4.240   6.150  18.080  0.00  0.00    +0.000 A 
ATOM      2  C   UNL     1       3.721   5.680  19.298  0.00  0.00    +0.000 A 
ATOM      3  C   UNL     1       2.666   6.303  19.964  0.00  0.00    +0.000 A 
ATOM      4  C   UNL     1       2.145   7.507  19.486  0.00  0.00    +0.000 A 
ATOM      5  C   UNL     1       1.140   8.221  20.147  0.00  0.00    +0.000 A 
ATOM      6  C   UNL     1       0.703   9.428  19.617  0.00  0.00    +0.000 A 
ATOM      7  N   UNL     1       1.225   9.930  18.477  0.00  0.00    +0.000 NA
ATOM      8  C   UNL     1       2.188   9.231  17.843  0.00  0.00    +0.000 A 
ATOM      9  C   UNL     1       2.683   8.021  18.290  0.00  0.00    +0.000 A 
ATOM     10  C   UNL     1       3.690   7.340  17.590  0.00  0.00    +0.000 A 
ENDROOT
BRANCH   1  14
ATOM     11  C   UNL     1       5.951   3.975  13.897  0.00  0.00    +0.000 C 
ATOM     12  C   UNL     1       6.156   4.409  15.316  0.00  0.00    +0.000 A 
ATOM     13  C   UNL     1       5.140   5.027  16.035  0.00  0.00    +0.000 A 
ATOM     14  C   UNL     1       5.350   5.468  17.364  0.00  0.00    +0.000 A 
ATOM     15  C   UNL     1       6.624   5.238  17.918  0.00  0.00    +0.000 A 
ATOM     16  C   UNL     1       7.069   5.618  19.301  0.00  0.00    +0.000 C 
ATOM     17  C   UNL     1       7.578   4.618  17.110  0.00  0.00    +0.000 A 
ATOM     18  N   UNL     1       7.377   4.201  15.841  0.00  0.00    +0.000 NA
ENDBRANCH   1  14
BRANCH   6  19
ATOM     19  N   UNL     1      -0.283  10.159  20.290  0.00  0.00    +0.000 N 
ATOM     20  C   UNL     1      -0.001  11.196  21.163  0.00  0.00    +0.000 C 
ATOM     21  O   UNL     1       1.089  11.640  21.482  0.00  0.00    +0.000 OA
ATOM     22  H   UNL     1      -1.230   9.925  20.104  0.00  0.00    +0.000 HD
BRANCH  20  23
ATOM     23  C   UNL     1      -1.183  11.862  21.767  0.00  0.00    +0.000 C 
ATOM     24  C   UNL     1      -1.641  11.383  23.135  0.00  0.00    +0.000 C 
ATOM     25  C   UNL     1      -1.199  12.805  22.954  0.00  0.00    +0.000 C 
ENDBRANCH  20  23
ENDBRANCH   6  19
TORSDOF 3
ENDMDL
MODEL 2
REMARK VINA RESULT:      -8.1      1.694      2.914
REMARK  Name = 
REMARK  5 active torsions:
REMARK  status: ('A' for Active; 'I' for Inactive)
REMARK    1  A    between atoms: C_1  and  C_2
REMARK    2  A    between atoms: C_4  and  C_5
REMARK    3  A    between atoms: C_10  and  N_11
REMARK    4  A    between atoms: C_12  and  C_14
REMARK    5  A    between atoms: C_21  and  C_22
REMARK                            x       y       z     vdW  Elec       q    Type
REMARK                         _______ _______ _______ _____ _____    ______ ____
ROOT
ATOM      1  C   UNL     1       2.679   7.275  18.424  0.00  0.00    +0.000 A 
ATOM      2  C   UNL     1       2.132   8.314  17.652  0.00  0.00    +0.000 A 
ATOM      3  C   UNL     1       1.362   9.340  18.200  0.00  0.00    +0.000 A 
ATOM      4  C   UNL     1       1.010   9.311  19.551  0.00  0.00    +0.000 A 
ATOM      5  C   UNL     1       0.178  10.268  20.144  0.00  0.00    +0.000 A 
ATOM      6  C   UNL     1      -0.147  10.144  21.488  0.00  0.00    +0.000 A 
ATOM      7  N   UNL     1       0.321   9.124  22.239  0.00  0.00    +0.000 NA
ATOM      8  C   UNL     1       1.128   8.212  21.660  0.00  0.00    +0.000 A 
ATOM      9  C   UNL     1       1.511   8.252  20.333  0.00  0.00    +0.000 A 
ATOM     10  C   UNL     1       2.350   7.272  19.784  0.00  0.00    +0.000 A 
ENDROOT
BRANCH   1  14
ATOM     11  C   UNL     1       7.142   5.773  16.696  0.00  0.00    +0.000 C 
ATOM     12  C   UNL     1       5.702   5.494  16.997  0.00  0.00    +0.000 A 
ATOM     13  C   UNL     1       4.870   6.476  17.521  0.00  0.00    +0.000 A 
ATOM     14  C   UNL     1       3.519   6.197  17.838  0.00  0.00    +0.000 A 
ATOM     15  C   UNL     1       3.062   4.889  17.583  0.00  0.00    +0.000 A 
ATOM     16  C   UNL     1       1.676   4.372  17.839  0.00  0.00    +0.000 C 
ATOM     17  C   UNL     1       3.978   3.974  17.064  0.00  0.00    +0.000 A 
ATOM     18  N   UNL     1       5.268   4.241  16.767  0.00  0.00    +0.000 NA
ENDBRANCH   1  14
BRANCH   6  19
ATOM     19  N   UNL     1      -1.001  11.083  22.079  0.00  0.00    +0.000 N 
ATOM     20  C   UNL     1      -0.654  12.407  22.282  0.00  0.00    +0.000 C 
ATOM     21  O   UNL     1       0.392  12.968  21.997  0.00  0.00    +0.000 OA
ATOM     22  H   UNL     1      -1.908  10.773  22.341  0.00  0.00    +0.000 HD
BRANCH  20  23
ATOM     23  C   UNL     1      -1.701  13.254  22.909  0.00  0.00    +0.000 C 
ATOM     24  C   UNL     1      -2.904  13.633  22.060  0.00  0.00    +0.000 C 
ATOM     25  C   UNL     1      -3.101  12.833  23.315  0.00  0.00    +0.000 C 
ENDBRANCH  20  23
ENDBRANCH   6  19
TORSDOF 3
ENDMDL
MODEL 3
REMARK VINA RESULT:      -8.0      2.133      3.337
REMARK  Name = 
REMARK  5 active torsions:
REMARK  status: ('A' for Active; 'I' for Inactive)
REMARK    1  A    between atoms: C_1  and  C_2
REMARK    2  A    between atoms: C_4  and  C_5
REMARK    3  A    between atoms: C_10  and  N_11
REMARK    4  A    between atoms: C_12  and  C_14
REMARK    5  A    between atoms: C_21  and  C_22
REMARK                            x       y       z     vdW  Elec       q    Type
REMARK                         _______ _______ _______ _____ _____    ______ ____
ROOT
ATOM      1  C   UNL     1       2.277   7.224  18.647  0.00  0.00    +0.000 A 
ATOM      2  C   UNL     1       1.856   8.242  17.774  0.00  0.00    +0.000 A 
ATOM      3  C   UNL     1       1.345   9.460  18.220  0.00  0.00    +0.000 A 
ATOM      4  C   UNL     1       1.128   9.676  19.583  0.00  0.00    +0.000 A 
ATOM      5  C   UNL     1       0.547  10.844  20.089  0.00  0.00    +0.000 A 
ATOM      6  C   UNL     1       0.338  10.961  21.457  0.00  0.00    +0.000 A 
ATOM      7  N   UNL     1       0.682   9.974  22.312  0.00  0.00    +0.000 NA
ATOM      8  C   UNL     1       1.247   8.855  21.815  0.00  0.00    +0.000 A 
ATOM      9  C   UNL     1       1.500   8.649  20.473  0.00  0.00    +0.000 A 
ATOM     10  C   UNL     1       2.087   7.461  20.013  0.00  0.00    +0.000 A 
ENDROOT
BRANCH   1  14
ATOM     11  C   UNL     1       1.832   2.251  18.174  0.00  0.00    +0.000 C 
ATOM     12  C   UNL     1       2.603   3.515  17.952  0.00  0.00    +0.000 A 
ATOM     13  C   UNL     1       2.128   4.739  18.408  0.00  0.00    +0.000 A 
ATOM     14  C   UNL     1       2.843   5.937  18.165  0.00  0.00    +0.000 A 
ATOM     15  C   UNL     1       4.054   5.823  17.456  0.00  0.00    +0.000 A 
ATOM     16  C   UNL     1       4.973   6.952  17.087  0.00  0.00    +0.000 C 
ATOM     17  C   UNL     1       4.439   4.549  17.034  0.00  0.00    +0.000 A 
ATOM     18  N   UNL     1       3.754   3.409  17.264  0.00  0.00    +0.000 NA
ENDBRANCH   1  14
BRANCH   6  19
ATOM     19  N   UNL     1      -0.267  12.117  21.965  0.00  0.00    +0.000 N 
ATOM     20  C   UNL     1      -1.330  12.093  22.851  0.00  0.00    +0.000 C 
ATOM     21  O   UNL     1      -1.896  11.124  23.329  0.00  0.00    +0.000 OA
ATOM     22  H   UNL     1       0.111  12.990  21.683  0.00  0.00    +0.000 HD
BRANCH  20  23
ATOM     23  C   UNL     1      -1.825  13.423  23.290  0.00  0.00    +0.000 C 
ATOM     24  C   UNL     1      -3.010  14.017  22.546  0.00  0.00    +0.000 C 
ATOM     25  C   UNL     1      -3.123  13.727  24.014  0.00  0.00    +0.000 C 
ENDBRANCH  20  23
ENDBRANCH   6  19
TORSDOF 3
ENDMDL
MODEL 4
REMARK VINA RESULT:      -7.9      1.886      2.936
REMARK  Name = 
REMARK  5 active torsions:
REMARK  status: ('A' for Active; 'I' for Inactive)
REMARK    1  A    between atoms: C_1  and  C_2
REMARK    2  A    between atoms: C_4  and  C_5
REMARK    3  A    between atoms: C_10  and  N_11
REMARK    4  A    between atoms: C_12  and  C_14
REMARK    5  A    between atoms: C_21  and  C_22
REMARK                            x       y       z     vdW  Elec       q    Type
REMARK                         _______ _______ _______ _____ _____    ______ ____
ROOT
ATOM      1  C   UNL     1       2.577   7.114  18.412  0.00  0.00    +0.000 A 
ATOM      2  C   UNL     1       2.238   8.149  17.523  0.00  0.00    +0.000 A 
ATOM      3  C   UNL     1       1.615   9.327  17.934  0.00  0.00    +0.000 A 
ATOM      4  C   UNL     1       1.200   9.479  19.259  0.00  0.00    +0.000 A 
ATOM      5  C   UNL     1       0.503  10.603  19.717  0.00  0.00    +0.000 A 
ATOM      6  C   UNL     1       0.099  10.656  21.044  0.00  0.00    +0.000 A 
ATOM      7  N   UNL     1       0.364   9.650  21.905  0.00  0.00    +0.000 NA
ATOM      8  C   UNL     1       1.042   8.575  21.456  0.00  0.00    +0.000 A 
ATOM      9  C   UNL     1       1.489   8.433  20.156  0.00  0.00    +0.000 A 
ATOM     10  C   UNL     1       2.187   7.289  19.744  0.00  0.00    +0.000 A 
ENDROOT
BRANCH   1  14
ATOM     11  C   UNL     1       2.434   2.146  17.738  0.00  0.00    +0.000 C 
ATOM     12  C   UNL     1       3.166   3.449  17.658  0.00  0.00    +0.000 A 
ATOM     13  C   UNL     1       2.579   4.635  18.083  0.00  0.00    +0.000 A 
ATOM     14  C   UNL     1       3.261   5.870  17.971  0.00  0.00    +0.000 A 
ATOM     15  C   UNL     1       4.559   5.833  17.426  0.00  0.00    +0.000 A 
ATOM     16  C   UNL     1       5.464   7.013  17.215  0.00  0.00    +0.000 C 
ATOM     17  C   UNL     1       5.056   4.594  17.022  0.00  0.00    +0.000 A 
ATOM     18  N   UNL     1       4.402   3.418  17.125  0.00  0.00    +0.000 NA
ENDBRANCH   1  14
BRANCH   6  19
ATOM     19  N   UNL     1      -0.622  11.766  21.500  0.00  0.00    +0.000 N 
ATOM     20  C   UNL     1      -0.040  12.990  21.783  0.00  0.00    +0.000 C 
ATOM     21  O   UNL     1       1.134  13.309  21.687  0.00  0.00    +0.000 OA
ATOM     22  H   UNL     1      -1.605  11.661  21.600  0.00  0.00    +0.000 HD
BRANCH  20  23
ATOM     23  C   UNL     1      -0.973  14.051  22.240  0.00  0.00    +0.000 C 
ATOM     24  C   UNL     1      -1.304  14.110  23.722  0.00  0.00    +0.000 C 
ATOM     25  C   UNL     1      -0.634  15.280  23.062  0.00  0.00    +0.000 C 
ENDBRANCH  20  23
ENDBRANCH   6  19
TORSDOF 3
ENDMDL
MODEL 5
REMARK VINA RESULT:      -7.9      1.605      2.541
REMARK  Name = 
REMARK  5 active torsions:
REMARK  status: ('A' for Active; 'I' for Inactive)
REMARK    1  A    between atoms: C_1  and  C_2
REMARK    2  A    between atoms: C_4  and  C_5
REMARK    3  A    between atoms: C_10  and  N_11
REMARK    4  A    between atoms: C_12  and  C_14
REMARK    5  A    between atoms: C_21  and  C_22
REMARK                            x       y       z     vdW  Elec       q    Type
REMARK                         _______ _______ _______ _____ _____    ______ ____
ROOT
ATOM      1  C   UNL     1       2.632   6.842  18.784  0.00  0.00    +0.000 A 
ATOM      2  C   UNL     1       2.244   6.698  20.127  0.00  0.00    +0.000 A 
ATOM      3  C   UNL     1       1.468   7.644  20.797  0.00  0.00    +0.000 A 
ATOM      4  C   UNL     1       1.130   8.847  20.173  0.00  0.00    +0.000 A 
ATOM      5  C   UNL     1       0.421   9.868  20.816  0.00  0.00    +0.000 A 
ATOM      6  C   UNL     1       0.156  11.046  20.130  0.00  0.00    +0.000 A 
ATOM      7  N   UNL     1       0.566  11.231  18.857  0.00  0.00    +0.000 NA
ATOM      8  C   UNL     1       1.243  10.238  18.245  0.00  0.00    +0.000 A 
ATOM      9  C   UNL     1       1.550   9.031  18.841  0.00  0.00    +0.000 A 
ATOM     10  C   UNL     1       2.261   8.036  18.155  0.00  0.00    +0.000 A 
ENDROOT
BRANCH   1  14
ATOM     11  C   UNL     1       7.067   5.398  16.938  0.00  0.00    +0.000 C 
ATOM     12  C   UNL     1       5.610   5.143  17.175  0.00  0.00    +0.000 A 
ATOM     13  C   UNL     1       4.808   6.080  17.815  0.00  0.00    +0.000 A 
ATOM     14  C   UNL     1       3.439   5.819  18.069  0.00  0.00    +0.000 A 
ATOM     15  C   UNL     1       2.936   4.579  17.631  0.00  0.00    +0.000 A 
ATOM     16  C   UNL     1       1.524   4.092  17.790  0.00  0.00    +0.000 C 
ATOM     17  C   UNL     1       3.825   3.704  17.005  0.00  0.00    +0.000 A 
ATOM     18  N   UNL     1       5.130   3.953  16.768  0.00  0.00    +0.000 NA
ENDBRANCH   1  14
BRANCH   6  19
ATOM     19  N   UNL     1      -0.530  12.080  20.778  0.00  0.00    +0.000 N 
ATOM     20  C   UNL     1       0.104  13.120  21.436  0.00  0.00    +0.000 C 
ATOM     21  O   UNL     1       1.301  13.319  21.560  0.00  0.00    +0.000 OA
ATOM     22  H   UNL     1      -1.522  12.065  20.735  0.00  0.00    +0.000 HD
BRANCH  20  23
ATOM     23  C   UNL     1      -0.796  14.131  22.047  0.00  0.00    +0.000 C 
ATOM     24  C   UNL     1      -1.360  13.833  23.427  0.00  0.00    +0.000 C 
ATOM     25  C   UNL     1      -0.491  15.039  23.224  0.00  0.00    +0.000 C 
ENDBRANCH  20  23
ENDBRANCH   6  19
TORSDOF 3
ENDMDL
MODEL 6
REMARK VINA RESULT:      -7.8      1.838      3.024
REMARK  Name = 
REMARK  5 active torsions:
REMARK  status: ('A' for Active; 'I' for Inactive)
REMARK    1  A    between atoms: C_1  and  C_2
REMARK    2  A    between atoms: C_4  and  C_5
REMARK    3  A    between atoms: C_10  and  N_11
REMARK    4  A    between atoms: C_12  and  C_14
REMARK    5  A    between atoms: C_21  and  C_22
REMARK                            x       y       z     vdW  Elec       q    Type
REMARK                         _______ _______ _______ _____ _____    ______ ____
ROOT
ATOM      1  C   UNL     1       2.773   7.131  18.464  0.00  0.00    +0.000 A 
ATOM      2  C   UNL     1       2.483   8.216  17.619  0.00  0.00    +0.000 A 
ATOM      3  C   UNL     1       1.803   9.354  18.052  0.00  0.00    +0.000 A 
ATOM      4  C   UNL     1       1.280   9.412  19.346  0.00  0.00    +0.000 A 
ATOM      5  C   UNL     1       0.524  10.490  19.817  0.00  0.00    +0.000 A 
ATOM      6  C   UNL     1       0.014  10.450  21.108  0.00  0.00    +0.000 A 
ATOM      7  N   UNL     1       0.233   9.395  21.922  0.00  0.00    +0.000 NA
ATOM      8  C   UNL     1       0.969   8.364  21.461  0.00  0.00    +0.000 A 
ATOM      9  C   UNL     1       1.521   8.314  20.196  0.00  0.00    +0.000 A 
ATOM     10  C   UNL     1       2.276   7.212  19.769  0.00  0.00    +0.000 A 
ENDROOT
BRANCH   1  14
ATOM     11  C   UNL     1       7.170   4.932  17.467  0.00  0.00    +0.000 C 
ATOM     12  C   UNL     1       5.674   4.887  17.520  0.00  0.00    +0.000 A 
ATOM     13  C   UNL     1       4.931   5.991  17.920  0.00  0.00    +0.000 A 
ATOM     14  C   UNL     1       3.519   5.932  18.002  0.00  0.00    +0.000 A 
ATOM     15  C   UNL     1       2.912   4.711  17.647  0.00  0.00    +0.000 A 
ATOM     16  C   UNL     1       1.438   4.421  17.658  0.00  0.00    +0.000 C 
ATOM     17  C   UNL     1       3.746   3.660  17.267  0.00  0.00    +0.000 A 
ATOM     18  N   UNL     1       5.093   3.717  17.194  0.00  0.00    +0.000 NA
ENDBRANCH   1  14
BRANCH   6  19
ATOM     19  N   UNL     1      -0.766  11.515  21.574  0.00  0.00    +0.000 N 
ATOM     20  C   UNL     1      -1.804  12.073  20.849  0.00  0.00    +0.000 C 
ATOM     21  O   UNL     1      -2.211  11.757  19.743  0.00  0.00    +0.000 OA
ATOM     22  H   UNL     1      -0.566  11.863  22.483  0.00  0.00    +0.000 HD
BRANCH  20  23
ATOM     23  C   UNL     1      -2.526  13.185  21.519  0.00  0.00    +0.000 C 
ATOM     24  C   UNL     1      -3.832  12.856  22.225  0.00  0.00    +0.000 C 
ATOM     25  C   UNL     1      -2.682  13.412  23.011  0.00  0.00    +0.000 C 
ENDBRANCH  20  23
ENDBRANCH   6  19
TORSDOF 3
ENDMDL
MODEL 7
REMARK VINA RESULT:      -7.8      1.523      2.457
REMARK  Name = 
REMARK  5 active torsions:
REMARK  status: ('A' for Active; 'I' for Inactive)
REMARK    1  A    between atoms: C_1  and  C_2
REMARK    2  A    between atoms: C_4  and  C_5
REMARK    3  A    between atoms: C_10  and  N_11
REMARK    4  A    between atoms: C_12  and  C_14
REMARK    5  A    between atoms: C_21  and  C_22
REMARK                            x       y       z     vdW  Elec       q    Type
REMARK                         _______ _______ _______ _____ _____    ______ ____
ROOT
ATOM      1  C   UNL     1       2.685   6.866  18.769  0.00  0.00    +0.000 A 
ATOM      2  C   UNL     1       2.273   6.580  20.083  0.00  0.00    +0.000 A 
ATOM      3  C   UNL     1       1.423   7.413  20.809  0.00  0.00    +0.000 A 
ATOM      4  C   UNL     1       1.027   8.645  20.283  0.00  0.00    +0.000 A 
ATOM      5  C   UNL     1       0.240   9.560  20.991  0.00  0.00    +0.000 A 
ATOM      6  C   UNL     1      -0.080  10.777  20.404  0.00  0.00    +0.000 A 
ATOM      7  N   UNL     1       0.349  11.099  19.165  0.00  0.00    +0.000 NA
ATOM      8  C   UNL     1       1.102  10.208  18.488  0.00  0.00    +0.000 A 
ATOM      9  C   UNL     1       1.467   8.972  18.986  0.00  0.00    +0.000 A 
ATOM     10  C   UNL     1       2.256   8.086  18.237  0.00  0.00    +0.000 A 
ENDROOT
BRANCH   1  14
ATOM     11  C   UNL     1       7.187   5.965  16.751  0.00  0.00    +0.000 C 
ATOM     12  C   UNL     1       5.773   5.550  17.015  0.00  0.00    +0.000 A 
ATOM     13  C   UNL     1       4.897   6.373  17.714  0.00  0.00    +0.000 A 
ATOM     14  C   UNL     1       3.572   5.961  17.993  0.00  0.00    +0.000 A 
ATOM     15  C   UNL     1       3.187   4.692  17.517  0.00  0.00    +0.000 A 
ATOM     16  C   UNL     1       1.839   4.054  17.694  0.00  0.00    +0.000 C 
ATOM     17  C   UNL     1       4.142   3.940  16.834  0.00  0.00    +0.000 A 
ATOM     18  N   UNL     1       5.407   4.333  16.573  0.00  0.00    +0.000 NA
ENDBRANCH   1  14
BRANCH   6  19
ATOM     19  N   UNL     1      -0.846  11.706  21.118  0.00  0.00    +0.000 N 
ATOM     20  C   UNL     1      -0.935  11.719  22.499  0.00  0.00    +0.000 C 
ATOM     21  O   UNL     1      -0.394  10.973  23.299  0.00  0.00    +0.000 OA
ATOM     22  H   UNL     1      -1.325  12.401  20.594  0.00  0.00    +0.000 HD
BRANCH  20  23
ATOM     23  C   UNL     1      -1.783  12.793  23.075  0.00  0.00    +0.000 C 
ATOM     24  C   UNL     1      -1.107  14.102  23.451  0.00  0.00    +0.000 C 
ATOM     25  C   UNL     1      -2.191  14.096  22.413  0.00  0.00    +0.000 C 
ENDBRANCH  20  23
ENDBRANCH   6  19
TORSDOF 3
ENDMDL
MODEL 8
REMARK VINA RESULT:      -7.8      2.655      9.051
REMARK  Name = 
REMARK  5 active torsions:
REMARK  status: ('A' for Active; 'I' for Inactive)
REMARK    1  A    between atoms: C_1  and  C_2
REMARK    2  A    between atoms: C_4  and  C_5
REMARK    3  A    between atoms: C_10  and  N_11
REMARK    4  A    between atoms: C_12  and  C_14
REMARK    5  A    between atoms: C_21  and  C_22
REMARK                            x       y       z     vdW  Elec       q    Type
REMARK                         _______ _______ _______ _____ _____    ______ ____
ROOT
ATOM      1  C   UNL     1       0.585   9.787  20.009  0.00  0.00    +0.000 A 
ATOM      2  C   UNL     1       1.021  10.277  18.766  0.00  0.00    +0.000 A 
ATOM      3  C   UNL     1       1.857   9.552  17.916  0.00  0.00    +0.000 A 
ATOM      4  C   UNL     1       2.388   8.327  18.328  0.00  0.00    +0.000 A 
ATOM      5  C   UNL     1       3.291   7.588  17.556  0.00  0.00    +0.000 A 
ATOM      6  C   UNL     1       3.796   6.396  18.058  0.00  0.00    +0.000 A 
ATOM      7  N   UNL     1       3.434   5.931  19.273  0.00  0.00    +0.000 NA
ATOM      8  C   UNL     1       2.558   6.647  20.006  0.00  0.00    +0.000 A 
ATOM      9  C   UNL     1       2.000   7.840  19.591  0.00  0.00    +0.000 A 
ATOM     10  C   UNL     1       1.095   8.544  20.400  0.00  0.00    +0.000 A 
ENDROOT
BRANCH   1  14
ATOM     11  C   UNL     1      -3.007  13.251  20.514  0.00  0.00    +0.000 C 
ATOM     12  C   UNL     1      -2.070  12.250  21.117  0.00  0.00    +0.000 A 
ATOM     13  C   UNL     1      -1.183  11.526  20.329  0.00  0.00    +0.000 A 
ATOM     14  C   UNL     1      -0.324  10.555  20.899  0.00  0.00    +0.000 A 
ATOM     15  C   UNL     1      -0.406  10.373  22.293  0.00  0.00    +0.000 A 
ATOM     16  C   UNL     1       0.403   9.405  23.107  0.00  0.00    +0.000 C 
ATOM     17  C   UNL     1      -1.336  11.143  22.993  0.00  0.00    +0.000 A 
ATOM     18  N   UNL     1      -2.156  12.065  22.447  0.00  0.00    +0.000 NA
ENDBRANCH   1  14
BRANCH   6  19
ATOM     19  N   UNL     1       4.720   5.666  17.301  0.00  0.00    +0.000 N 
ATOM     20  C   UNL     1       4.450   4.420  16.762  0.00  0.00    +0.000 C 
ATOM     21  O   UNL     1       3.419   3.771  16.837  0.00  0.00    +0.000 OA
ATOM     22  H   UNL     1       5.604   6.088  17.131  0.00  0.00    +0.000 HD
BRANCH  20  23
ATOM     23  C   UNL     1       5.552   3.812  15.974  0.00  0.00    +0.000 C 
ATOM     24  C   UNL     1       5.720   4.259  14.531  0.00  0.00    +0.000 C 
ATOM     25  C   UNL     1       6.832   4.484  15.513  0.00  0.00    +0.000 C 
ENDBRANCH  20  23
ENDBRANCH   6  19
TORSDOF 3
ENDMDL
MODEL 9
REMARK VINA RESULT:      -7.7      1.922      3.216
REMARK  Name = 
REMARK  5 active torsions:
REMARK  status: ('A' for Active; 'I' for Inactive)
REMARK    1  A    between atoms: C_1  and  C_2
REMARK    2  A    between atoms: C_4  and  C_5
REMARK    3  A    between atoms: C_10  and  N_11
REMARK    4  A    between atoms: C_12  and  C_14
REMARK    5  A    between atoms: C_21  and  C_22
REMARK                            x       y       z     vdW  Elec       q    Type
REMARK                         _______ _______ _______ _____ _____    ______ ____
ROOT
ATOM      1  C   UNL     1       2.317   7.048  18.707  0.00  0.00    +0.000 A 
ATOM      2  C   UNL     1       1.908   8.054  17.815  0.00  0.00    +0.000 A 
ATOM      3  C   UNL     1       1.406   9.285  18.239  0.00  0.00    +0.000 A 
ATOM      4  C   UNL     1       1.187   9.525  19.597  0.00  0.00    +0.000 A 
ATOM      5  C   UNL     1       0.616  10.708  20.081  0.00  0.00    +0.000 A 
ATOM      6  C   UNL     1       0.405  10.850  21.445  0.00  0.00    +0.000 A 
ATOM      7  N   UNL     1       0.738   9.875  22.318  0.00  0.00    +0.000 NA
ATOM      8  C   UNL     1       1.294   8.743  21.843  0.00  0.00    +0.000 A 
ATOM      9  C   UNL     1       1.548   8.511  20.505  0.00  0.00    +0.000 A 
ATOM     10  C   UNL     1       2.126   7.310  20.068  0.00  0.00    +0.000 A 
ENDROOT
BRANCH   1  14
ATOM     11  C   UNL     1       5.726   4.553  16.004  0.00  0.00    +0.000 C 
ATOM     12  C   UNL     1       4.541   4.558  16.919  0.00  0.00    +0.000 A 
ATOM     13  C   UNL     1       3.970   5.748  17.354  0.00  0.00    +0.000 A 
ATOM     14  C   UNL     1       2.872   5.748  18.249  0.00  0.00    +0.000 A 
ATOM     15  C   UNL     1       2.386   4.491  18.660  0.00  0.00    +0.000 A 
ATOM     16  C   UNL     1       1.238   4.251  19.598  0.00  0.00    +0.000 C 
ATOM     17  C   UNL     1       3.035   3.356  18.173  0.00  0.00    +0.000 A 
ATOM     18  N   UNL     1       4.084   3.358  17.323  0.00  0.00    +0.000 NA
ENDBRANCH   1  14
BRANCH   6  19
ATOM     19  N   UNL     1      -0.192  12.020  21.932  0.00  0.00    +0.000 N 
ATOM     20  C   UNL     1      -1.249  12.022  22.824  0.00  0.00    +0.000 C 
ATOM     21  O   UNL     1      -1.818  11.066  23.325  0.00  0.00    +0.000 OA
ATOM     22  H   UNL     1       0.190  12.886  21.628  0.00  0.00    +0.000 HD
BRANCH  20  23
ATOM     23  C   UNL     1      -1.735  13.364  23.236  0.00  0.00    +0.000 C 
ATOM     24  C   UNL     1      -2.877  13.977  22.442  0.00  0.00    +0.000 C 
ATOM     25  C   UNL     1      -3.054  13.698  23.906  0.00  0.00    +0.000 C 
ENDBRANCH  20  23
ENDBRANCH   6  19
TORSDOF 3
ENDMDL
