MODEL 1
REMARK VINA RESULT:      -7.7      0.000      0.000
REMARK  Name = 
REMARK  3 active torsions:
REMARK  status: ('A' for Active; 'I' for Inactive)
REMARK    1  A    between atoms: C_1  and  N_2
REMARK    2  A    between atoms: C_4  and  C_5
REMARK    3  A    between atoms: C_16  and  C_18
REMARK                            x       y       z     vdW  Elec       q    Type
REMARK                         _______ _______ _______ _____ _____    ______ ____
ROOT
ATOM      1  C   UNL     1       0.674  13.101  21.374  0.00  0.00    +0.000 C 
ATOM      2  N   UNL     1       0.564  13.237  19.927  0.00  0.00    +0.000 NA
ATOM      3  C   UNL     1      -0.827  13.161  19.460  0.00  0.00    +0.000 C 
ATOM      4  C   UNL     1      -1.352  11.724  19.267  0.00  0.00    +0.000 C 
ATOM      5  C   UNL     1      -0.399  10.923  18.373  0.00  0.00    +0.000 C 
ATOM      6  C   UNL     1       1.049  10.917  18.915  0.00  0.00    +0.000 C 
ATOM      7  C   UNL     1       1.199  10.097  20.223  0.00  0.00    +0.000 C 
ATOM      8  C   UNL     1       0.955   8.606  20.033  0.00  0.00    +0.000 C 
ATOM      9  N   UNL     1       1.814   8.080  18.980  0.00  0.00    +0.000 N 
ATOM     10  C   UNL     1       2.512   6.901  19.248  0.00  0.00    +0.000 C 
ATOM     11  O   UNL     1       2.385   6.287  20.309  0.00  0.00    +0.000 OA
ATOM     12  C   UNL     1       1.660   8.755  17.689  0.00  0.00    +0.000 C 
ATOM     13  C   UNL     1       1.968  10.251  17.847  0.00  0.00    +0.000 C 
ATOM     14  C   UNL     1       1.477  12.391  19.141  0.00  0.00    +0.000 C 
ENDROOT
BRANCH   4  15
ATOM     15  C   UNL     1      -2.759  11.696  18.697  0.00  0.00    +0.000 A 
ATOM     16  C   UNL     1      -3.858  12.175  19.429  0.00  0.00    +0.000 A 
ATOM     17  C   UNL     1      -5.142  12.138  18.888  0.00  0.00    +0.000 A 
ATOM     18  C   UNL     1      -5.345  11.622  17.611  0.00  0.00    +0.000 A 
ATOM     19  C   UNL     1      -4.263  11.158  16.868  0.00  0.00    +0.000 A 
ATOM     20  C   UNL     1      -2.975  11.198  17.405  0.00  0.00    +0.000 A 
ENDBRANCH   4  15
BRANCH  10  21
ATOM     21  C   UNL     1       3.441   6.323  18.247  0.00  0.00    +0.000 A 
ATOM     22  C   UNL     1       4.443   7.073  17.628  0.00  0.00    +0.000 A 
ATOM     23  C   UNL     1       5.240   6.493  16.643  0.00  0.00    +0.000 A 
ATOM     24  C   UNL     1       5.101   5.139  16.340  0.00  0.00    +0.000 A 
ATOM     25  C   UNL     1       4.171   4.361  17.027  0.00  0.00    +0.000 A 
ATOM     26  C   UNL     1       3.337   4.952  17.975  0.00  0.00    +0.000 A 
ENDBRANCH  10  21
TORSDOF 2
ENDMDL
MODEL 2
REMARK VINA RESULT:      -7.6      0.831      1.166
REMARK  Name = 
REMARK  3 active torsions:
REMARK  status: ('A' for Active; 'I' for Inactive)
REMARK    1  A    between atoms: C_1  and  N_2
REMARK    2  A    between atoms: C_4  and  C_5
REMARK    3  A    between atoms: C_16  and  C_18
REMARK                            x       y       z     vdW  Elec       q    Type
REMARK                         _______ _______ _______ _____ _____    ______ ____
ROOT
ATOM      1  C   UNL     1       1.008  12.915  20.885  0.00  0.00    +0.000 C 
ATOM      2  N   UNL     1       0.935  12.856  19.431  0.00  0.00    +0.000 NA
ATOM      3  C   UNL     1      -0.449  12.825  18.938  0.00  0.00    +0.000 C 
ATOM      4  C   UNL     1      -1.086  11.421  18.929  0.00  0.00    +0.000 C 
ATOM      5  C   UNL     1      -0.186  10.431  18.182  0.00  0.00    +0.000 C 
ATOM      6  C   UNL     1       1.246  10.386  18.762  0.00  0.00    +0.000 C 
ATOM      7  C   UNL     1       1.305   9.748  20.174  0.00  0.00    +0.000 C 
ATOM      8  C   UNL     1       0.943   8.269  20.182  0.00  0.00    +0.000 C 
ATOM      9  N   UNL     1       1.775   7.535  19.238  0.00  0.00    +0.000 N 
ATOM     10  C   UNL     1       2.369   6.354  19.685  0.00  0.00    +0.000 C 
ATOM     11  O   UNL     1       2.174   5.906  20.816  0.00  0.00    +0.000 OA
ATOM     12  C   UNL     1       1.700   8.034  17.862  0.00  0.00    +0.000 C 
ATOM     13  C   UNL     1       2.127   9.508  17.822  0.00  0.00    +0.000 C 
ATOM     14  C   UNL     1       1.790  11.839  18.795  0.00  0.00    +0.000 C 
ENDROOT
BRANCH   4  15
ATOM     15  C   UNL     1      -2.481  11.425  18.328  0.00  0.00    +0.000 A 
ATOM     16  C   UNL     1      -3.588  11.905  19.045  0.00  0.00    +0.000 A 
ATOM     17  C   UNL     1      -4.861  11.897  18.476  0.00  0.00    +0.000 A 
ATOM     18  C   UNL     1      -5.042  11.410  17.184  0.00  0.00    +0.000 A 
ATOM     19  C   UNL     1      -3.950  10.947  16.456  0.00  0.00    +0.000 A 
ATOM     20  C   UNL     1      -2.674  10.957  17.022  0.00  0.00    +0.000 A 
ENDBRANCH   4  15
BRANCH  10  21
ATOM     21  C   UNL     1       3.266   5.571  18.801  0.00  0.00    +0.000 A 
ATOM     22  C   UNL     1       2.790   4.616  17.899  0.00  0.00    +0.000 A 
ATOM     23  C   UNL     1       3.686   3.860  17.146  0.00  0.00    +0.000 A 
ATOM     24  C   UNL     1       5.054   4.119  17.221  0.00  0.00    +0.000 A 
ATOM     25  C   UNL     1       5.527   5.141  18.044  0.00  0.00    +0.000 A 
ATOM     26  C   UNL     1       4.637   5.862  18.838  0.00  0.00    +0.000 A 
ENDBRANCH  10  21
TORSDOF 2
ENDMDL
MODEL 3
REMARK VINA RESULT:      -7.4      1.184      1.636
REMARK  Name = 
REMARK  3 active torsions:
REMARK  status: ('A' for Active; 'I' for Inactive)
REMARK    1  A    between atoms: C_1  and  N_2
REMARK    2  A    between atoms: C_4  and  C_5
REMARK    3  A    between atoms: C_16  and  C_18
REMARK                            x       y       z     vdW  Elec       q    Type
REMARK                         _______ _______ _______ _____ _____    ______ ____
ROOT
ATOM      1  C   UNL     1       0.508  12.056  21.316  0.00  0.00    +0.000 C 
ATOM      2  N   UNL     1       0.738  12.246  19.889  0.00  0.00    +0.000 NA
ATOM      3  C   UNL     1      -0.504  12.190  19.107  0.00  0.00    +0.000 C 
ATOM      4  C   UNL     1      -0.960  10.763  18.744  0.00  0.00    +0.000 C 
ATOM      5  C   UNL     1       0.180   9.994  18.069  0.00  0.00    +0.000 C 
ATOM      6  C   UNL     1       1.461   9.963  18.935  0.00  0.00    +0.000 C 
ATOM      7  C   UNL     1       1.306   9.096  20.210  0.00  0.00    +0.000 C 
ATOM      8  C   UNL     1       1.123   7.614  19.913  0.00  0.00    +0.000 C 
ATOM      9  N   UNL     1       2.208   7.125  19.073  0.00  0.00    +0.000 N 
ATOM     10  C   UNL     1       2.832   5.935  19.452  0.00  0.00    +0.000 C 
ATOM     11  O   UNL     1       2.464   5.283  20.432  0.00  0.00    +0.000 OA
ATOM     12  C   UNL     1       2.356   7.848  17.807  0.00  0.00    +0.000 C 
ATOM     13  C   UNL     1       2.609   9.336  18.088  0.00  0.00    +0.000 C 
ATOM     14  C   UNL     1       1.815  11.427  19.308  0.00  0.00    +0.000 C 
ENDROOT
BRANCH   4  15
ATOM     15  C   UNL     1      -2.195  10.760  17.861  0.00  0.00    +0.000 A 
ATOM     16  C   UNL     1      -2.236  10.038  16.657  0.00  0.00    +0.000 A 
ATOM     17  C   UNL     1      -3.379  10.051  15.859  0.00  0.00    +0.000 A 
ATOM     18  C   UNL     1      -4.495  10.784  16.253  0.00  0.00    +0.000 A 
ATOM     19  C   UNL     1      -4.474  11.491  17.453  0.00  0.00    +0.000 A 
ATOM     20  C   UNL     1      -3.333  11.477  18.255  0.00  0.00    +0.000 A 
ENDBRANCH   4  15
BRANCH  10  21
ATOM     21  C   UNL     1       3.972   5.392  18.677  0.00  0.00    +0.000 A 
ATOM     22  C   UNL     1       5.298   5.517  19.099  0.00  0.00    +0.000 A 
ATOM     23  C   UNL     1       6.334   5.050  18.292  0.00  0.00    +0.000 A 
ATOM     24  C   UNL     1       6.045   4.374  17.107  0.00  0.00    +0.000 A 
ATOM     25  C   UNL     1       4.720   4.157  16.731  0.00  0.00    +0.000 A 
ATOM     26  C   UNL     1       3.685   4.670  17.511  0.00  0.00    +0.000 A 
ENDBRANCH  10  21
TORSDOF 2
ENDMDL
MODEL 4
REMARK VINA RESULT:      -7.3      3.487      8.039
REMARK  Name = 
REMARK  3 active torsions:
REMARK  status: ('A' for Active; 'I' for Inactive)
REMARK    1  A    between atoms: C_1  and  N_2
REMARK    2  A    between atoms: C_4  and  C_5
REMARK    3  A    between atoms: C_16  and  C_18
REMARK                            x       y       z     vdW  Elec       q    Type
REMARK                         _______ _______ _______ _____ _____    ______ ____
ROOT
ATOM      1  C   UNL     1      -0.411  10.330  23.053  0.00  0.00    +0.000 C 
ATOM      2  N   UNL     1      -0.944  10.027  21.731  0.00  0.00    +0.000 NA
ATOM      3  C   UNL     1      -0.161   9.000  21.031  0.00  0.00    +0.000 C 
ATOM      4  C   UNL     1       1.083   9.542  20.299  0.00  0.00    +0.000 C 
ATOM      5  C   UNL     1       0.695  10.700  19.373  0.00  0.00    +0.000 C 
ATOM      6  C   UNL     1      -0.042  11.831  20.126  0.00  0.00    +0.000 C 
ATOM      7  C   UNL     1       0.879  12.603  21.106  0.00  0.00    +0.000 C 
ATOM      8  C   UNL     1       1.979  13.390  20.406  0.00  0.00    +0.000 C 
ATOM      9  N   UNL     1       1.409  14.282  19.405  0.00  0.00    +0.000 N 
ATOM     10  C   UNL     1       1.852  15.606  19.395  0.00  0.00    +0.000 C 
ATOM     11  O   UNL     1       2.726  16.014  20.164  0.00  0.00    +0.000 OA
ATOM     12  C   UNL     1       0.594  13.604  18.394  0.00  0.00    +0.000 C 
ATOM     13  C   UNL     1      -0.562  12.859  19.076  0.00  0.00    +0.000 C 
ATOM     14  C   UNL     1      -1.237  11.196  20.884  0.00  0.00    +0.000 C 
ENDROOT
BRANCH   4  15
ATOM     15  C   UNL     1       1.807   8.460  19.517  0.00  0.00    +0.000 A 
ATOM     16  C   UNL     1       2.073   7.201  20.077  0.00  0.00    +0.000 A 
ATOM     17  C   UNL     1       2.742   6.223  19.343  0.00  0.00    +0.000 A 
ATOM     18  C   UNL     1       3.154   6.490  18.040  0.00  0.00    +0.000 A 
ATOM     19  C   UNL     1       2.882   7.730  17.466  0.00  0.00    +0.000 A 
ATOM     20  C   UNL     1       2.209   8.709  18.197  0.00  0.00    +0.000 A 
ENDBRANCH   4  15
BRANCH  10  21
ATOM     21  C   UNL     1       1.291  16.589  18.438  0.00  0.00    +0.000 A 
ATOM     22  C   UNL     1      -0.030  17.036  18.505  0.00  0.00    +0.000 A 
ATOM     23  C   UNL     1      -0.522  17.907  17.534  0.00  0.00    +0.000 A 
ATOM     24  C   UNL     1       0.329  18.407  16.549  0.00  0.00    +0.000 A 
ATOM     25  C   UNL     1       1.675  18.043  16.538  0.00  0.00    +0.000 A 
ATOM     26  C   UNL     1       2.155  17.131  17.476  0.00  0.00    +0.000 A 
ENDBRANCH  10  21
TORSDOF 2
ENDMDL
MODEL 5
REMARK VINA RESULT:      -7.2      3.402      8.023
REMARK  Name = 
REMARK  3 active torsions:
REMARK  status: ('A' for Active; 'I' for Inactive)
REMARK    1  A    between atoms: C_1  and  N_2
REMARK    2  A    between atoms: C_4  and  C_5
REMARK    3  A    between atoms: C_16  and  C_18
REMARK                            x       y       z     vdW  Elec       q    Type
REMARK                         _______ _______ _______ _____ _____    ______ ____
ROOT
ATOM      1  C   UNL     1      -0.275  10.118  23.112  0.00  0.00    +0.000 C 
ATOM      2  N   UNL     1      -0.827   9.829  21.795  0.00  0.00    +0.000 NA
ATOM      3  C   UNL     1      -0.047   8.817  21.069  0.00  0.00    +0.000 C 
ATOM      4  C   UNL     1       1.181   9.379  20.324  0.00  0.00    +0.000 C 
ATOM      5  C   UNL     1       0.768  10.546  19.421  0.00  0.00    +0.000 C 
ATOM      6  C   UNL     1       0.035  11.662  20.200  0.00  0.00    +0.000 C 
ATOM      7  C   UNL     1       0.966  12.428  21.176  0.00  0.00    +0.000 C 
ATOM      8  C   UNL     1       2.048  13.233  20.469  0.00  0.00    +0.000 C 
ATOM      9  N   UNL     1       1.455  14.134  19.490  0.00  0.00    +0.000 N 
ATOM     10  C   UNL     1       1.888  15.461  19.491  0.00  0.00    +0.000 C 
ATOM     11  O   UNL     1       2.770  15.866  20.251  0.00  0.00    +0.000 OA
ATOM     12  C   UNL     1       0.629  13.463  18.483  0.00  0.00    +0.000 C 
ATOM     13  C   UNL     1      -0.510  12.700  19.173  0.00  0.00    +0.000 C 
ATOM     14  C   UNL     1      -1.143  11.006  20.969  0.00  0.00    +0.000 C 
ENDROOT
BRANCH   4  15
ATOM     15  C   UNL     1       1.901   8.314  19.516  0.00  0.00    +0.000 A 
ATOM     16  C   UNL     1       2.377   8.571  18.221  0.00  0.00    +0.000 A 
ATOM     17  C   UNL     1       3.034   7.579  17.494  0.00  0.00    +0.000 A 
ATOM     18  C   UNL     1       3.222   6.317  18.053  0.00  0.00    +0.000 A 
ATOM     19  C   UNL     1       2.769   6.053  19.343  0.00  0.00    +0.000 A 
ATOM     20  C   UNL     1       2.115   7.046  20.074  0.00  0.00    +0.000 A 
ENDBRANCH   4  15
BRANCH  10  21
ATOM     21  C   UNL     1       1.304  16.453  18.557  0.00  0.00    +0.000 A 
ATOM     22  C   UNL     1       2.065  17.126  17.600  0.00  0.00    +0.000 A 
ATOM     23  C   UNL     1       1.474  18.101  16.797  0.00  0.00    +0.000 A 
ATOM     24  C   UNL     1       0.103  18.339  16.883  0.00  0.00    +0.000 A 
ATOM     25  C   UNL     1      -0.681  17.597  17.766  0.00  0.00    +0.000 A 
ATOM     26  C   UNL     1      -0.082  16.660  18.607  0.00  0.00    +0.000 A 
ENDBRANCH  10  21
TORSDOF 2
ENDMDL
MODEL 6
REMARK VINA RESULT:      -7.2      1.112      1.311
REMARK  Name = 
REMARK  3 active torsions:
REMARK  status: ('A' for Active; 'I' for Inactive)
REMARK    1  A    between atoms: C_1  and  N_2
REMARK    2  A    between atoms: C_4  and  C_5
REMARK    3  A    between atoms: C_16  and  C_18
REMARK                            x       y       z     vdW  Elec       q    Type
REMARK                         _______ _______ _______ _____ _____    ______ ____
ROOT
ATOM      1  C   UNL     1       0.332  11.701  21.516  0.00  0.00    +0.000 C 
ATOM      2  N   UNL     1       0.576  12.081  20.131  0.00  0.00    +0.000 NA
ATOM      3  C   UNL     1      -0.650  12.067  19.320  0.00  0.00    +0.000 C 
ATOM      4  C   UNL     1      -1.030  10.677  18.771  0.00  0.00    +0.000 C 
ATOM      5  C   UNL     1       0.158  10.055  18.029  0.00  0.00    +0.000 C 
ATOM      6  C   UNL     1       1.425   9.975  18.912  0.00  0.00    +0.000 C 
ATOM      7  C   UNL     1       1.293   8.946  20.064  0.00  0.00    +0.000 C 
ATOM      8  C   UNL     1       1.188   7.506  19.579  0.00  0.00    +0.000 C 
ATOM      9  N   UNL     1       2.308   7.180  18.707  0.00  0.00    +0.000 N 
ATOM     10  C   UNL     1       2.984   5.982  18.947  0.00  0.00    +0.000 C 
ATOM     11  O   UNL     1       2.634   5.194  19.828  0.00  0.00    +0.000 OA
ATOM     12  C   UNL     1       2.440   8.064  17.546  0.00  0.00    +0.000 C 
ATOM     13  C   UNL     1       2.615   9.514  18.018  0.00  0.00    +0.000 C 
ATOM     14  C   UNL     1       1.700  11.394  19.474  0.00  0.00    +0.000 C 
ENDROOT
BRANCH   4  15
ATOM     15  C   UNL     1      -2.249  10.729  17.867  0.00  0.00    +0.000 A 
ATOM     16  C   UNL     1      -3.391  11.466  18.216  0.00  0.00    +0.000 A 
ATOM     17  C   UNL     1      -4.502  11.498  17.373  0.00  0.00    +0.000 A 
ATOM     18  C   UNL     1      -4.484  10.793  16.172  0.00  0.00    +0.000 A 
ATOM     19  C   UNL     1      -3.350  10.071  15.806  0.00  0.00    +0.000 A 
ATOM     20  C   UNL     1      -2.237  10.041  16.646  0.00  0.00    +0.000 A 
ENDBRANCH   4  15
BRANCH  10  21
ATOM     21  C   UNL     1       4.162   5.596  18.135  0.00  0.00    +0.000 A 
ATOM     22  C   UNL     1       5.429   6.148  18.335  0.00  0.00    +0.000 A 
ATOM     23  C   UNL     1       6.483   5.800  17.492  0.00  0.00    +0.000 A 
ATOM     24  C   UNL     1       6.299   4.830  16.508  0.00  0.00    +0.000 A 
ATOM     25  C   UNL     1       5.062   4.201  16.370  0.00  0.00    +0.000 A 
ATOM     26  C   UNL     1       3.993   4.587  17.177  0.00  0.00    +0.000 A 
ENDBRANCH  10  21
TORSDOF 2
ENDMDL
MODEL 7
REMARK VINA RESULT:      -7.1      2.849      4.342
REMARK  Name = 
REMARK  3 active torsions:
REMARK  status: ('A' for Active; 'I' for Inactive)
REMARK    1  A    between atoms: C_1  and  N_2
REMARK    2  A    between atoms: C_4  and  C_5
REMARK    3  A    between atoms: C_16  and  C_18
REMARK                            x       y       z     vdW  Elec       q    Type
REMARK                         _______ _______ _______ _____ _____    ______ ____
ROOT
ATOM      1  C   UNL     1      -1.551  15.762  22.544  0.00  0.00    +0.000 C 
ATOM      2  N   UNL     1      -2.313  15.349  21.373  0.00  0.00    +0.000 NA
ATOM      3  C   UNL     1      -3.675  14.915  21.713  0.00  0.00    +0.000 C 
ATOM      4  C   UNL     1      -3.774  13.447  22.174  0.00  0.00    +0.000 C 
ATOM      5  C   UNL     1      -3.113  12.520  21.148  0.00  0.00    +0.000 C 
ATOM      6  C   UNL     1      -1.645  12.913  20.861  0.00  0.00    +0.000 C 
ATOM      7  C   UNL     1      -0.705  12.651  22.066  0.00  0.00    +0.000 C 
ATOM      8  C   UNL     1      -0.548  11.173  22.399  0.00  0.00    +0.000 C 
ATOM      9  N   UNL     1      -0.118  10.429  21.223  0.00  0.00    +0.000 N 
ATOM     10  C   UNL     1       0.945   9.537  21.378  0.00  0.00    +0.000 C 
ATOM     11  O   UNL     1       1.482   9.336  22.469  0.00  0.00    +0.000 OA
ATOM     12  C   UNL     1      -1.011  10.564  20.069  0.00  0.00    +0.000 C 
ATOM     13  C   UNL     1      -1.129  12.043  19.676  0.00  0.00    +0.000 C 
ATOM     14  C   UNL     1      -1.625  14.413  20.468  0.00  0.00    +0.000 C 
ENDROOT
BRANCH   4  15
ATOM     15  C   UNL     1      -5.209  13.018  22.426  0.00  0.00    +0.000 A 
ATOM     16  C   UNL     1      -6.038  12.578  21.382  0.00  0.00    +0.000 A 
ATOM     17  C   UNL     1      -7.354  12.191  21.635  0.00  0.00    +0.000 A 
ATOM     18  C   UNL     1      -7.856  12.239  22.933  0.00  0.00    +0.000 A 
ATOM     19  C   UNL     1      -7.039  12.658  23.980  0.00  0.00    +0.000 A 
ATOM     20  C   UNL     1      -5.721  13.042  23.730  0.00  0.00    +0.000 A 
ENDBRANCH   4  15
BRANCH  10  21
ATOM     21  C   UNL     1       1.473   8.773  20.222  0.00  0.00    +0.000 A 
ATOM     22  C   UNL     1       1.605   9.330  18.949  0.00  0.00    +0.000 A 
ATOM     23  C   UNL     1       2.040   8.542  17.884  0.00  0.00    +0.000 A 
ATOM     24  C   UNL     1       2.433   7.223  18.107  0.00  0.00    +0.000 A 
ATOM     25  C   UNL     1       2.399   6.692  19.397  0.00  0.00    +0.000 A 
ATOM     26  C   UNL     1       1.914   7.463  20.452  0.00  0.00    +0.000 A 
ENDBRANCH  10  21
TORSDOF 2
ENDMDL
MODEL 8
REMARK VINA RESULT:      -6.9      2.932      4.393
REMARK  Name = 
REMARK  3 active torsions:
REMARK  status: ('A' for Active; 'I' for Inactive)
REMARK    1  A    between atoms: C_1  and  N_2
REMARK    2  A    between atoms: C_4  and  C_5
REMARK    3  A    between atoms: C_16  and  C_18
REMARK                            x       y       z     vdW  Elec       q    Type
REMARK                         _______ _______ _______ _____ _____    ______ ____
ROOT
ATOM      1  C   UNL     1      -1.479  15.556  23.177  0.00  0.00    +0.000 C 
ATOM      2  N   UNL     1      -2.198  15.305  21.935  0.00  0.00    +0.000 NA
ATOM      3  C   UNL     1      -3.589  14.890  22.165  0.00  0.00    +0.000 C 
ATOM      4  C   UNL     1      -3.760  13.385  22.455  0.00  0.00    +0.000 C 
ATOM      5  C   UNL     1      -3.083  12.551  21.362  0.00  0.00    +0.000 C 
ATOM      6  C   UNL     1      -1.591  12.915  21.185  0.00  0.00    +0.000 C 
ATOM      7  C   UNL     1      -0.719  12.485  22.393  0.00  0.00    +0.000 C 
ATOM      8  C   UNL     1      -0.629  10.975  22.566  0.00  0.00    +0.000 C 
ATOM      9  N   UNL     1      -0.169  10.348  21.335  0.00  0.00    +0.000 N 
ATOM     10  C   UNL     1       0.853   9.402  21.436  0.00  0.00    +0.000 C 
ATOM     11  O   UNL     1       1.330   9.063  22.521  0.00  0.00    +0.000 OA
ATOM     12  C   UNL     1      -1.001  10.643  20.166  0.00  0.00    +0.000 C 
ATOM     13  C   UNL     1      -1.049  12.160  19.934  0.00  0.00    +0.000 C 
ATOM     14  C   UNL     1      -1.501  14.447  20.962  0.00  0.00    +0.000 C 
ENDROOT
BRANCH   4  15
ATOM     15  C   UNL     1      -5.219  12.989  22.595  0.00  0.00    +0.000 A 
ATOM     16  C   UNL     1      -5.880  13.042  23.833  0.00  0.00    +0.000 A 
ATOM     17  C   UNL     1      -7.219  12.670  23.940  0.00  0.00    +0.000 A 
ATOM     18  C   UNL     1      -7.915  12.242  22.813  0.00  0.00    +0.000 A 
ATOM     19  C   UNL     1      -7.277  12.200  21.576  0.00  0.00    +0.000 A 
ATOM     20  C   UNL     1      -5.937  12.574  21.465  0.00  0.00    +0.000 A 
ENDBRANCH   4  15
BRANCH  10  21
ATOM     21  C   UNL     1       1.409   8.750  20.227  0.00  0.00    +0.000 A 
ATOM     22  C   UNL     1       1.897   7.442  20.233  0.00  0.00    +0.000 A 
ATOM     23  C   UNL     1       2.474   6.906  19.083  0.00  0.00    +0.000 A 
ATOM     24  C   UNL     1       2.481   7.642  17.898  0.00  0.00    +0.000 A 
ATOM     25  C   UNL     1       1.903   8.910  17.860  0.00  0.00    +0.000 A 
ATOM     26  C   UNL     1       1.373   9.467  19.023  0.00  0.00    +0.000 A 
ENDBRANCH  10  21
TORSDOF 2
ENDMDL
MODEL 9
REMARK VINA RESULT:      -6.8      2.094      4.780
REMARK  Name = 
REMARK  3 active torsions:
REMARK  status: ('A' for Active; 'I' for Inactive)
REMARK    1  A    between atoms: C_1  and  N_2
REMARK    2  A    between atoms: C_4  and  C_5
REMARK    3  A    between atoms: C_16  and  C_18
REMARK                            x       y       z     vdW  Elec       q    Type
REMARK                         _______ _______ _______ _____ _____    ______ ____
ROOT
ATOM      1  C   UNL     1      -1.597  11.882  17.632  0.00  0.00    +0.000 C 
ATOM      2  N   UNL     1      -1.532  11.833  19.087  0.00  0.00    +0.000 NA
ATOM      3  C   UNL     1      -0.643  12.861  19.645  0.00  0.00    +0.000 C 
ATOM      4  C   UNL     1       0.848  12.466  19.663  0.00  0.00    +0.000 C 
ATOM      5  C   UNL     1       1.032  11.109  20.351  0.00  0.00    +0.000 C 
ATOM      6  C   UNL     1       0.173  10.000  19.702  0.00  0.00    +0.000 C 
ATOM      7  C   UNL     1       0.656   9.617  18.279  0.00  0.00    +0.000 C 
ATOM      8  C   UNL     1       2.031   8.963  18.265  0.00  0.00    +0.000 C 
ATOM      9  N   UNL     1       2.056   7.812  19.157  0.00  0.00    +0.000 N 
ATOM     10  C   UNL     1       2.605   6.626  18.664  0.00  0.00    +0.000 C 
ATOM     11  O   UNL     1       3.096   6.548  17.536  0.00  0.00    +0.000 OA
ATOM     12  C   UNL     1       1.692   8.120  20.542  0.00  0.00    +0.000 C 
ATOM     13  C   UNL     1       0.279   8.720  20.584  0.00  0.00    +0.000 C 
ATOM     14  C   UNL     1      -1.296  10.499  19.665  0.00  0.00    +0.000 C 
ENDROOT
BRANCH   4  15
ATOM     15  C   UNL     1       1.714  13.519  20.330  0.00  0.00    +0.000 A 
ATOM     16  C   UNL     1       3.009  13.805  19.869  0.00  0.00    +0.000 A 
ATOM     17  C   UNL     1       3.790  14.774  20.498  0.00  0.00    +0.000 A 
ATOM     18  C   UNL     1       3.286  15.469  21.594  0.00  0.00    +0.000 A 
ATOM     19  C   UNL     1       1.997  15.208  22.052  0.00  0.00    +0.000 A 
ATOM     20  C   UNL     1       1.213  14.241  21.422  0.00  0.00    +0.000 A 
ENDBRANCH   4  15
BRANCH  10  21
ATOM     21  C   UNL     1       2.629   5.397  19.492  0.00  0.00    +0.000 A 
ATOM     22  C   UNL     1       1.625   5.088  20.411  0.00  0.00    +0.000 A 
ATOM     23  C   UNL     1       1.738   3.953  21.213  0.00  0.00    +0.000 A 
ATOM     24  C   UNL     1       2.806   3.075  21.033  0.00  0.00    +0.000 A 
ATOM     25  C   UNL     1       3.758   3.326  20.046  0.00  0.00    +0.000 A 
ATOM     26  C   UNL     1       3.674   4.487  19.280  0.00  0.00    +0.000 A 
ENDBRANCH  10  21
TORSDOF 2
ENDMDL
