MODEL 1
REMARK VINA RESULT:      -8.8      0.000      0.000
REMARK  Name = 
REMARK  7 active torsions:
REMARK  status: ('A' for Active; 'I' for Inactive)
REMARK    1  A    between atoms: C_1  and  O_2
REMARK    2  A    between atoms: O_2  and  C_3
REMARK    3  A    between atoms: C_6  and  C_7
REMARK    4  A    between atoms: C_7  and  N_8
REMARK    5  A    between atoms: C_10  and  C_11
REMARK    6  A    between atoms: C_11  and  N_12
REMARK    7  A    between atoms: N_12  and  C_13
REMARK                            x       y       z     vdW  Elec       q    Type
REMARK                         _______ _______ _______ _____ _____    ______ ____
ROOT
ATOM      1  N   UNL     1       2.666   6.157  17.532  0.00  0.00    +0.000 N 
ATOM      2  H   UNL     1       2.283   5.887  16.627  0.00  0.00    +0.000 HD
ENDROOT
BRANCH   1   3
ATOM      3  C   UNL     1       3.386   5.113  18.155  0.00  0.00    +0.000 A 
ATOM      4  C   UNL     1       3.078   4.478  19.371  0.00  0.00    +0.000 A 
ATOM      5  C   UNL     1       4.021   3.578  19.851  0.00  0.00    +0.000 A 
ATOM      6  N   UNL     1       5.310   3.674  19.497  0.00  0.00    +0.000 NA
ATOM      7  C   UNL     1       5.607   4.324  18.361  0.00  0.00    +0.000 A 
ATOM      8  C   UNL     1       6.892   4.666  17.957  0.00  0.00    +0.000 A 
ATOM      9  C   UNL     1       7.153   4.986  16.625  0.00  0.00    +0.000 A 
ATOM     10  C   UNL     1       6.161   4.779  15.679  0.00  0.00    +0.000 A 
ATOM     11 CL   UNL     1       6.565   4.677  14.015  0.00  0.00    +0.000 Cl
ATOM     12  C   UNL     1       4.850   4.668  16.110  0.00  0.00    +0.000 A 
ATOM     13  C   UNL     1       4.579   4.673  17.502  0.00  0.00    +0.000 A 
ATOM     14  C   UNL     1       3.594   2.347  20.602  0.00  0.00    +0.000 C 
ATOM     15  C   UNL     1       2.183   2.368  21.181  0.00  0.00    +0.000 C 
ATOM     16  C   UNL     1       1.566   3.746  21.347  0.00  0.00    +0.000 C 
ATOM     17  C   UNL     1       1.934   4.790  20.290  0.00  0.00    +0.000 C 
ENDBRANCH   1   3
BRANCH   1  18
ATOM     18  C   UNL     1       3.140   7.548  17.550  0.00  0.00    +0.000 C 
BRANCH  18  21
ATOM     19  N   UNL     1       1.217  10.355  18.871  0.00  0.00    +0.000 N 
ATOM     20  C   UNL     1       2.176   9.946  17.978  0.00  0.00    +0.000 A 
ATOM     21  C   UNL     1       2.419   8.637  18.314  0.00  0.00    +0.000 A 
ATOM     22  N   UNL     1       1.664   8.313  19.415  0.00  0.00    +0.000 NA
ATOM     23  N   UNL     1       0.920   9.364  19.729  0.00  0.00    +0.000 NA
BRANCH  19  24
ATOM     24  C   UNL     1       0.383  11.554  18.791  0.00  0.00    +0.000 C 
BRANCH  24  28
ATOM     25  C   UNL     1      -3.754  10.701  17.881  0.00  0.00    +0.000 A 
ATOM     26  C   UNL     1      -3.422  11.742  18.746  0.00  0.00    +0.000 A 
ATOM     27  C   UNL     1      -2.088  12.023  19.041  0.00  0.00    +0.000 A 
ATOM     28  C   UNL     1      -1.060  11.243  18.496  0.00  0.00    +0.000 A 
ATOM     29  C   UNL     1      -1.401  10.188  17.634  0.00  0.00    +0.000 A 
ATOM     30  C   UNL     1      -2.741   9.918  17.331  0.00  0.00    +0.000 A 
BRANCH  25  32
ATOM     31  C   UNL     1      -5.878  11.712  17.641  0.00  0.00    +0.000 C 
ATOM     32  O   UNL     1      -5.095  10.525  17.678  0.00  0.00    +0.000 OA
ENDBRANCH  25  32
ENDBRANCH  24  28
ENDBRANCH  19  24
ENDBRANCH  18  21
ENDBRANCH   1  18
TORSDOF 6
ENDMDL
MODEL 2
REMARK VINA RESULT:      -8.6      2.086      3.710
REMARK  Name = 
REMARK  7 active torsions:
REMARK  status: ('A' for Active; 'I' for Inactive)
REMARK    1  A    between atoms: C_1  and  O_2
REMARK    2  A    between atoms: O_2  and  C_3
REMARK    3  A    between atoms: C_6  and  C_7
REMARK    4  A    between atoms: C_7  and  N_8
REMARK    5  A    between atoms: C_10  and  C_11
REMARK    6  A    between atoms: C_11  and  N_12
REMARK    7  A    between atoms: N_12  and  C_13
REMARK                            x       y       z     vdW  Elec       q    Type
REMARK                         _______ _______ _______ _____ _____    ______ ____
ROOT
ATOM      1  N   UNL     1       2.842   6.519  18.112  0.00  0.00    +0.000 N 
ATOM      2  H   UNL     1       2.236   5.946  17.527  0.00  0.00    +0.000 HD
ENDROOT
BRANCH   1   3
ATOM      3  C   UNL     1       4.002   5.832  18.535  0.00  0.00    +0.000 A 
ATOM      4  C   UNL     1       5.334   6.122  18.187  0.00  0.00    +0.000 A 
ATOM      5  C   UNL     1       6.292   5.211  18.612  0.00  0.00    +0.000 A 
ATOM      6  N   UNL     1       5.969   3.936  18.865  0.00  0.00    +0.000 NA
ATOM      7  C   UNL     1       4.688   3.653  19.147  0.00  0.00    +0.000 A 
ATOM      8  C   UNL     1       4.164   2.369  19.250  0.00  0.00    +0.000 A 
ATOM      9  C   UNL     1       2.953   2.150  19.906  0.00  0.00    +0.000 A 
ATOM     10  C   UNL     1       2.375   3.192  20.614  0.00  0.00    +0.000 A 
ATOM     11 CL   UNL     1       1.195   2.867  21.816  0.00  0.00    +0.000 Cl
ATOM     12  C   UNL     1       2.767   4.487  20.320  0.00  0.00    +0.000 A 
ATOM     13  C   UNL     1       3.808   4.696  19.380  0.00  0.00    +0.000 A 
ATOM     14  C   UNL     1       7.668   5.673  19.008  0.00  0.00    +0.000 C 
ATOM     15  C   UNL     1       8.082   7.054  18.510  0.00  0.00    +0.000 C 
ATOM     16  C   UNL     1       7.295   7.585  17.325  0.00  0.00    +0.000 C 
ATOM     17  C   UNL     1       5.813   7.206  17.266  0.00  0.00    +0.000 C 
ENDBRANCH   1   3
BRANCH   1  18
ATOM     18  C   UNL     1       2.884   7.922  17.675  0.00  0.00    +0.000 C 
BRANCH  18  21
ATOM     19  N   UNL     1       0.823  10.691  18.861  0.00  0.00    +0.000 N 
ATOM     20  C   UNL     1       1.793  10.284  17.981  0.00  0.00    +0.000 A 
ATOM     21  C   UNL     1       2.112   9.012  18.386  0.00  0.00    +0.000 A 
ATOM     22  N   UNL     1       1.387   8.711  19.514  0.00  0.00    +0.000 NA
ATOM     23  N   UNL     1       0.590   9.736  19.778  0.00  0.00    +0.000 NA
BRANCH  19  24
ATOM     24  C   UNL     1      -0.077  11.836  18.725  0.00  0.00    +0.000 C 
BRANCH  24  28
ATOM     25  C   UNL     1      -4.172  10.718  17.917  0.00  0.00    +0.000 A 
ATOM     26  C   UNL     1      -3.882  11.708  18.854  0.00  0.00    +0.000 A 
ATOM     27  C   UNL     1      -2.563  12.074  19.117  0.00  0.00    +0.000 A 
ATOM     28  C   UNL     1      -1.502  11.431  18.464  0.00  0.00    +0.000 A 
ATOM     29  C   UNL     1      -1.799  10.426  17.530  0.00  0.00    +0.000 A 
ATOM     30  C   UNL     1      -3.126  10.071  17.260  0.00  0.00    +0.000 A 
BRANCH  25  32
ATOM     31  C   UNL     1      -6.392  11.193  18.578  0.00  0.00    +0.000 C 
ATOM     32  O   UNL     1      -5.502  10.448  17.755  0.00  0.00    +0.000 OA
ENDBRANCH  25  32
ENDBRANCH  24  28
ENDBRANCH  19  24
ENDBRANCH  18  21
ENDBRANCH   1  18
TORSDOF 6
ENDMDL
MODEL 3
REMARK VINA RESULT:      -8.6      1.052      1.354
REMARK  Name = 
REMARK  7 active torsions:
REMARK  status: ('A' for Active; 'I' for Inactive)
REMARK    1  A    between atoms: C_1  and  O_2
REMARK    2  A    between atoms: O_2  and  C_3
REMARK    3  A    between atoms: C_6  and  C_7
REMARK    4  A    between atoms: C_7  and  N_8
REMARK    5  A    between atoms: C_10  and  C_11
REMARK    6  A    between atoms: C_11  and  N_12
REMARK    7  A    between atoms: N_12  and  C_13
REMARK                            x       y       z     vdW  Elec       q    Type
REMARK                         _______ _______ _______ _____ _____    ______ ____
ROOT
ATOM      1  N   UNL     1       2.696   6.326  17.488  0.00  0.00    +0.000 N 
ATOM      2  H   UNL     1       2.526   6.172  16.495  0.00  0.00    +0.000 HD
ENDROOT
BRANCH   1   3
ATOM      3  C   UNL     1       3.365   5.244  18.102  0.00  0.00    +0.000 A 
ATOM      4  C   UNL     1       2.969   4.549  19.260  0.00  0.00    +0.000 A 
ATOM      5  C   UNL     1       3.871   3.616  19.755  0.00  0.00    +0.000 A 
ATOM      6  N   UNL     1       5.182   3.717  19.495  0.00  0.00    +0.000 NA
ATOM      7  C   UNL     1       5.560   4.422  18.418  0.00  0.00    +0.000 A 
ATOM      8  C   UNL     1       6.873   4.771  18.121  0.00  0.00    +0.000 A 
ATOM      9  C   UNL     1       7.226   5.158  16.829  0.00  0.00    +0.000 A 
ATOM     10  C   UNL     1       6.300   5.011  15.808  0.00  0.00    +0.000 A 
ATOM     11 CL   UNL     1       6.817   4.991  14.172  0.00  0.00    +0.000 Cl
ATOM     12  C   UNL     1       4.962   4.891  16.142  0.00  0.00    +0.000 A 
ATOM     13  C   UNL     1       4.596   4.826  17.510  0.00  0.00    +0.000 A 
ATOM     14  C   UNL     1       3.385   2.352  20.410  0.00  0.00    +0.000 C 
ATOM     15  C   UNL     1       1.938   2.358  20.891  0.00  0.00    +0.000 C 
ATOM     16  C   UNL     1       1.320   3.731  21.087  0.00  0.00    +0.000 C 
ATOM     17  C   UNL     1       1.767   4.825  20.114  0.00  0.00    +0.000 C 
ENDBRANCH   1   3
BRANCH   1  18
ATOM     18  C   UNL     1       3.036   7.724  17.790  0.00  0.00    +0.000 C 
BRANCH  18  21
ATOM     19  N   UNL     1       0.680   9.872  19.566  0.00  0.00    +0.000 N 
ATOM     20  C   UNL     1       1.503   9.734  18.478  0.00  0.00    +0.000 A 
ATOM     21  C   UNL     1       2.199   8.575  18.719  0.00  0.00    +0.000 A 
ATOM     22  N   UNL     1       1.831   8.085  19.949  0.00  0.00    +0.000 NA
ATOM     23  N   UNL     1       0.888   8.874  20.443  0.00  0.00    +0.000 NA
BRANCH  19  24
ATOM     24  C   UNL     1      -0.477  10.759  19.698  0.00  0.00    +0.000 C 
BRANCH  24  28
ATOM     25  C   UNL     1      -3.197  10.592  16.345  0.00  0.00    +0.000 A 
ATOM     26  C   UNL     1      -3.147   9.548  17.266  0.00  0.00    +0.000 A 
ATOM     27  C   UNL     1      -2.273   9.597  18.351  0.00  0.00    +0.000 A 
ATOM     28  C   UNL     1      -1.407  10.686  18.518  0.00  0.00    +0.000 A 
ATOM     29  C   UNL     1      -1.452  11.731  17.580  0.00  0.00    +0.000 A 
ATOM     30  C   UNL     1      -2.341  11.682  16.499  0.00  0.00    +0.000 A 
BRANCH  25  32
ATOM     31  C   UNL     1      -3.532  10.106  14.055  0.00  0.00    +0.000 C 
ATOM     32  O   UNL     1      -4.091  10.420  15.325  0.00  0.00    +0.000 OA
ENDBRANCH  25  32
ENDBRANCH  24  28
ENDBRANCH  19  24
ENDBRANCH  18  21
ENDBRANCH   1  18
TORSDOF 6
ENDMDL
MODEL 4
REMARK VINA RESULT:      -8.6      2.081      3.816
REMARK  Name = 
REMARK  7 active torsions:
REMARK  status: ('A' for Active; 'I' for Inactive)
REMARK    1  A    between atoms: C_1  and  O_2
REMARK    2  A    between atoms: O_2  and  C_3
REMARK    3  A    between atoms: C_6  and  C_7
REMARK    4  A    between atoms: C_7  and  N_8
REMARK    5  A    between atoms: C_10  and  C_11
REMARK    6  A    between atoms: C_11  and  N_12
REMARK    7  A    between atoms: N_12  and  C_13
REMARK                            x       y       z     vdW  Elec       q    Type
REMARK                         _______ _______ _______ _____ _____    ______ ____
ROOT
ATOM      1  N   UNL     1       2.940   6.400  17.735  0.00  0.00    +0.000 N 
ATOM      2  H   UNL     1       2.594   5.873  16.934  0.00  0.00    +0.000 HD
ENDROOT
BRANCH   1   3
ATOM      3  C   UNL     1       4.087   5.817  18.319  0.00  0.00    +0.000 A 
ATOM      4  C   UNL     1       5.430   6.138  18.053  0.00  0.00    +0.000 A 
ATOM      5  C   UNL     1       6.386   5.323  18.645  0.00  0.00    +0.000 A 
ATOM      6  N   UNL     1       6.095   4.064  19.001  0.00  0.00    +0.000 NA
ATOM      7  C   UNL     1       4.807   3.746  19.205  0.00  0.00    +0.000 A 
ATOM      8  C   UNL     1       4.330   2.454  19.396  0.00  0.00    +0.000 A 
ATOM      9  C   UNL     1       3.078   2.240  19.970  0.00  0.00    +0.000 A 
ATOM     10  C   UNL     1       2.398   3.317  20.517  0.00  0.00    +0.000 A 
ATOM     11 CL   UNL     1       1.133   3.054  21.646  0.00  0.00    +0.000 Cl
ATOM     12  C   UNL     1       2.759   4.594  20.125  0.00  0.00    +0.000 A 
ATOM     13  C   UNL     1       3.868   4.762  19.257  0.00  0.00    +0.000 A 
ATOM     14  C   UNL     1       7.702   5.890  19.103  0.00  0.00    +0.000 C 
ATOM     15  C   UNL     1       8.100   7.234  18.502  0.00  0.00    +0.000 C 
ATOM     16  C   UNL     1       7.396   7.605  17.209  0.00  0.00    +0.000 C 
ATOM     17  C   UNL     1       5.942   7.148  17.068  0.00  0.00    +0.000 C 
ENDBRANCH   1   3
BRANCH   1  18
ATOM     18  C   UNL     1       2.814   7.853  17.549  0.00  0.00    +0.000 C 
BRANCH  18  21
ATOM     19  N   UNL     1       1.058  10.273  19.642  0.00  0.00    +0.000 N 
ATOM     20  C   UNL     1       1.860  10.080  18.546  0.00  0.00    +0.000 A 
ATOM     21  C   UNL     1       2.201   8.751  18.601  0.00  0.00    +0.000 A 
ATOM     22  N   UNL     1       1.657   8.200  19.737  0.00  0.00    +0.000 NA
ATOM     23  N   UNL     1       0.945   9.135  20.349  0.00  0.00    +0.000 NA
BRANCH  19  24
ATOM     24  C   UNL     1       0.183  11.414  19.913  0.00  0.00    +0.000 C 
BRANCH  24  28
ATOM     25  C   UNL     1      -3.653  11.074  17.953  0.00  0.00    +0.000 A 
ATOM     26  C   UNL     1      -2.571  10.309  17.524  0.00  0.00    +0.000 A 
ATOM     27  C   UNL     1      -1.331  10.413  18.154  0.00  0.00    +0.000 A 
ATOM     28  C   UNL     1      -1.144  11.312  19.212  0.00  0.00    +0.000 A 
ATOM     29  C   UNL     1      -2.235  12.090  19.633  0.00  0.00    +0.000 A 
ATOM     30  C   UNL     1      -3.481  11.972  19.005  0.00  0.00    +0.000 A 
BRANCH  25  32
ATOM     31  C   UNL     1      -5.672  12.011  17.155  0.00  0.00    +0.000 C 
ATOM     32  O   UNL     1      -4.810  10.883  17.250  0.00  0.00    +0.000 OA
ENDBRANCH  25  32
ENDBRANCH  24  28
ENDBRANCH  19  24
ENDBRANCH  18  21
ENDBRANCH   1  18
TORSDOF 6
ENDMDL
MODEL 5
REMARK VINA RESULT:      -8.6      2.267      4.103
REMARK  Name = 
REMARK  7 active torsions:
REMARK  status: ('A' for Active; 'I' for Inactive)
REMARK    1  A    between atoms: C_1  and  O_2
REMARK    2  A    between atoms: O_2  and  C_3
REMARK    3  A    between atoms: C_6  and  C_7
REMARK    4  A    between atoms: C_7  and  N_8
REMARK    5  A    between atoms: C_10  and  C_11
REMARK    6  A    between atoms: C_11  and  N_12
REMARK    7  A    between atoms: N_12  and  C_13
REMARK                            x       y       z     vdW  Elec       q    Type
REMARK                         _______ _______ _______ _____ _____    ______ ____
ROOT
ATOM      1  N   UNL     1       3.717   6.487  19.669  0.00  0.00    +0.000 N 
ATOM      2  H   UNL     1       4.358   6.409  20.458  0.00  0.00    +0.000 HD
ENDROOT
BRANCH   1   3
ATOM      3  C   UNL     1       3.804   5.390  18.783  0.00  0.00    +0.000 A 
ATOM      4  C   UNL     1       4.500   5.340  17.561  0.00  0.00    +0.000 A 
ATOM      5  C   UNL     1       4.315   4.197  16.795  0.00  0.00    +0.000 A 
ATOM      6  N   UNL     1       3.209   3.450  16.924  0.00  0.00    +0.000 NA
ATOM      7  C   UNL     1       2.518   3.537  18.071  0.00  0.00    +0.000 A 
ATOM      8  C   UNL     1       1.265   2.975  18.285  0.00  0.00    +0.000 A 
ATOM      9  C   UNL     1       0.790   2.780  19.582  0.00  0.00    +0.000 A 
ATOM     10  C   UNL     1       1.652   2.977  20.649  0.00  0.00    +0.000 A 
ATOM     11 CL   UNL     1       1.298   2.292  22.181  0.00  0.00    +0.000 Cl
ATOM     12  C   UNL     1       2.789   3.741  20.447  0.00  0.00    +0.000 A 
ATOM     13  C   UNL     1       3.081   4.211  19.141  0.00  0.00    +0.000 A 
ATOM     14  C   UNL     1       5.437   3.642  15.961  0.00  0.00    +0.000 C 
ATOM     15  C   UNL     1       6.582   4.601  15.652  0.00  0.00    +0.000 C 
ATOM     16  C   UNL     1       6.257   6.076  15.801  0.00  0.00    +0.000 C 
ATOM     17  C   UNL     1       5.277   6.449  16.917  0.00  0.00    +0.000 C 
ENDBRANCH   1   3
BRANCH   1  18
ATOM     18  C   UNL     1       2.427   7.081  20.049  0.00  0.00    +0.000 C 
BRANCH  18  21
ATOM     19  N   UNL     1       0.811  10.013  18.596  0.00  0.00    +0.000 N 
ATOM     20  C   UNL     1       0.763   9.047  19.568  0.00  0.00    +0.000 A 
ATOM     21  C   UNL     1       1.774   8.178  19.237  0.00  0.00    +0.000 A 
ATOM     22  N   UNL     1       2.355   8.599  18.065  0.00  0.00    +0.000 NA
ATOM     23  N   UNL     1       1.772   9.731  17.699  0.00  0.00    +0.000 NA
BRANCH  19  24
ATOM     24  C   UNL     1       0.165  11.325  18.616  0.00  0.00    +0.000 C 
BRANCH  24  28
ATOM     25  C   UNL     1      -4.077  11.072  17.832  0.00  0.00    +0.000 A 
ATOM     26  C   UNL     1      -3.174  10.328  17.076  0.00  0.00    +0.000 A 
ATOM     27  C   UNL     1      -1.804  10.405  17.326  0.00  0.00    +0.000 A 
ATOM     28  C   UNL     1      -1.310  11.255  18.324  0.00  0.00    +0.000 A 
ATOM     29  C   UNL     1      -2.223  12.011  19.075  0.00  0.00    +0.000 A 
ATOM     30  C   UNL     1      -3.599  11.921  18.829  0.00  0.00    +0.000 A 
BRANCH  25  32
ATOM     31  C   UNL     1      -6.336  11.112  18.528  0.00  0.00    +0.000 C 
ATOM     32  O   UNL     1      -5.390  10.913  17.485  0.00  0.00    +0.000 OA
ENDBRANCH  25  32
ENDBRANCH  24  28
ENDBRANCH  19  24
ENDBRANCH  18  21
ENDBRANCH   1  18
TORSDOF 6
ENDMDL
MODEL 6
REMARK VINA RESULT:      -8.5      2.193      3.938
REMARK  Name = 
REMARK  7 active torsions:
REMARK  status: ('A' for Active; 'I' for Inactive)
REMARK    1  A    between atoms: C_1  and  O_2
REMARK    2  A    between atoms: O_2  and  C_3
REMARK    3  A    between atoms: C_6  and  C_7
REMARK    4  A    between atoms: C_7  and  N_8
REMARK    5  A    between atoms: C_10  and  C_11
REMARK    6  A    between atoms: C_11  and  N_12
REMARK    7  A    between atoms: N_12  and  C_13
REMARK                            x       y       z     vdW  Elec       q    Type
REMARK                         _______ _______ _______ _____ _____    ______ ____
ROOT
ATOM      1  N   UNL     1       2.950   6.737  18.924  0.00  0.00    +0.000 N 
ATOM      2  H   UNL     1       2.389   6.570  19.759  0.00  0.00    +0.000 HD
ENDROOT
BRANCH   1   3
ATOM      3  C   UNL     1       3.401   5.542  18.321  0.00  0.00    +0.000 A 
ATOM      4  C   UNL     1       4.240   5.423  17.198  0.00  0.00    +0.000 A 
ATOM      5  C   UNL     1       4.424   4.139  16.702  0.00  0.00    +0.000 A 
ATOM      6  N   UNL     1       3.514   3.178  16.916  0.00  0.00    +0.000 NA
ATOM      7  C   UNL     1       2.682   3.318  17.960  0.00  0.00    +0.000 A 
ATOM      8  C   UNL     1       1.577   2.511  18.204  0.00  0.00    +0.000 A 
ATOM      9  C   UNL     1       0.998   2.470  19.473  0.00  0.00    +0.000 A 
ATOM     10  C   UNL     1       1.649   3.093  20.527  0.00  0.00    +0.000 A 
ATOM     11 CL   UNL     1       1.271   2.666  22.145  0.00  0.00    +0.000 Cl
ATOM     12  C   UNL     1       2.593   4.063  20.239  0.00  0.00    +0.000 A 
ATOM     13  C   UNL     1       2.932   4.316  18.885  0.00  0.00    +0.000 A 
ATOM     14  C   UNL     1       5.741   3.730  16.100  0.00  0.00    +0.000 C 
ATOM     15  C   UNL     1       6.662   4.865  15.665  0.00  0.00    +0.000 C 
ATOM     16  C   UNL     1       5.987   6.208  15.449  0.00  0.00    +0.000 C 
ATOM     17  C   UNL     1       4.814   6.538  16.375  0.00  0.00    +0.000 C 
ENDBRANCH   1   3
BRANCH   1  18
ATOM     18  C   UNL     1       2.455   7.871  18.131  0.00  0.00    +0.000 C 
BRANCH  18  21
ATOM     19  N   UNL     1       0.585  10.844  19.125  0.00  0.00    +0.000 N 
ATOM     20  C   UNL     1       1.508  10.310  18.261  0.00  0.00    +0.000 A 
ATOM     21  C   UNL     1       1.764   9.059  18.764  0.00  0.00    +0.000 A 
ATOM     22  N   UNL     1       1.052   8.894  19.928  0.00  0.00    +0.000 NA
ATOM     23  N   UNL     1       0.321   9.982  20.123  0.00  0.00    +0.000 NA
BRANCH  19  24
ATOM     24  C   UNL     1      -0.252  12.025  18.912  0.00  0.00    +0.000 C 
BRANCH  24  28
ATOM     25  C   UNL     1      -4.363  11.084  17.970  0.00  0.00    +0.000 A 
ATOM     26  C   UNL     1      -4.057  11.912  19.048  0.00  0.00    +0.000 A 
ATOM     27  C   UNL     1      -2.733  12.221  19.355  0.00  0.00    +0.000 A 
ATOM     28  C   UNL     1      -1.683  11.679  18.602  0.00  0.00    +0.000 A 
ATOM     29  C   UNL     1      -1.995  10.835  17.523  0.00  0.00    +0.000 A 
ATOM     30  C   UNL     1      -3.328  10.539  17.211  0.00  0.00    +0.000 A 
BRANCH  25  32
ATOM     31  C   UNL     1      -6.471  10.668  18.956  0.00  0.00    +0.000 C 
ATOM     32  O   UNL     1      -5.697  10.855  17.777  0.00  0.00    +0.000 OA
ENDBRANCH  25  32
ENDBRANCH  24  28
ENDBRANCH  19  24
ENDBRANCH  18  21
ENDBRANCH   1  18
TORSDOF 6
ENDMDL
MODEL 7
REMARK VINA RESULT:      -8.5      3.224      4.829
REMARK  Name = 
REMARK  7 active torsions:
REMARK  status: ('A' for Active; 'I' for Inactive)
REMARK    1  A    between atoms: C_1  and  O_2
REMARK    2  A    between atoms: O_2  and  C_3
REMARK    3  A    between atoms: C_6  and  C_7
REMARK    4  A    between atoms: C_7  and  N_8
REMARK    5  A    between atoms: C_10  and  C_11
REMARK    6  A    between atoms: C_11  and  N_12
REMARK    7  A    between atoms: N_12  and  C_13
REMARK                            x       y       z     vdW  Elec       q    Type
REMARK                         _______ _______ _______ _____ _____    ______ ____
ROOT
ATOM      1  N   UNL     1       2.795   6.458  18.145  0.00  0.00    +0.000 N 
ATOM      2  H   UNL     1       2.313   5.966  17.393  0.00  0.00    +0.000 HD
ENDROOT
BRANCH   1   3
ATOM      3  C   UNL     1       3.961   5.789  18.578  0.00  0.00    +0.000 A 
ATOM      4  C   UNL     1       5.290   6.082  18.219  0.00  0.00    +0.000 A 
ATOM      5  C   UNL     1       6.256   5.188  18.659  0.00  0.00    +0.000 A 
ATOM      6  N   UNL     1       5.944   3.915  18.940  0.00  0.00    +0.000 NA
ATOM      7  C   UNL     1       4.665   3.628  19.232  0.00  0.00    +0.000 A 
ATOM      8  C   UNL     1       4.152   2.343  19.362  0.00  0.00    +0.000 A 
ATOM      9  C   UNL     1       2.945   2.127  20.027  0.00  0.00    +0.000 A 
ATOM     10  C   UNL     1       2.362   3.180  20.715  0.00  0.00    +0.000 A 
ATOM     11 CL   UNL     1       1.188   2.870  21.927  0.00  0.00    +0.000 Cl
ATOM     12  C   UNL     1       2.742   4.471  20.393  0.00  0.00    +0.000 A 
ATOM     13  C   UNL     1       3.779   4.669  19.446  0.00  0.00    +0.000 A 
ATOM     14  C   UNL     1       7.630   5.668  19.042  0.00  0.00    +0.000 C 
ATOM     15  C   UNL     1       8.032   7.042  18.514  0.00  0.00    +0.000 C 
ATOM     16  C   UNL     1       7.237   7.542  17.322  0.00  0.00    +0.000 C 
ATOM     17  C   UNL     1       5.758   7.150  17.276  0.00  0.00    +0.000 C 
ENDBRANCH   1   3
BRANCH   1  18
ATOM     18  C   UNL     1       2.750   7.918  17.980  0.00  0.00    +0.000 C 
BRANCH  18  21
ATOM     19  N   UNL     1       0.287  10.061  19.611  0.00  0.00    +0.000 N 
ATOM     20  C   UNL     1       1.077   9.864  18.507  0.00  0.00    +0.000 A 
ATOM     21  C   UNL     1       1.879   8.802  18.845  0.00  0.00    +0.000 A 
ATOM     22  N   UNL     1       1.603   8.432  20.140  0.00  0.00    +0.000 NA
ATOM     23  N   UNL     1       0.615   9.194  20.585  0.00  0.00    +0.000 NA
BRANCH  19  24
ATOM     24  C   UNL     1      -0.936  10.860  19.698  0.00  0.00    +0.000 C 
BRANCH  24  28
ATOM     25  C   UNL     1      -0.766  13.715  22.937  0.00  0.00    +0.000 A 
ATOM     26  C   UNL     1      -1.477  12.525  23.081  0.00  0.00    +0.000 A 
ATOM     27  C   UNL     1      -1.533  11.599  22.040  0.00  0.00    +0.000 A 
ATOM     28  C   UNL     1      -0.900  11.863  20.819  0.00  0.00    +0.000 A 
ATOM     29  C   UNL     1      -0.194  13.069  20.674  0.00  0.00    +0.000 A 
ATOM     30  C   UNL     1      -0.130  13.989  21.728  0.00  0.00    +0.000 A 
BRANCH  25  32
ATOM     31  C   UNL     1      -2.083  14.847  24.542  0.00  0.00    +0.000 C 
ATOM     32  O   UNL     1      -0.792  14.539  24.028  0.00  0.00    +0.000 OA
ENDBRANCH  25  32
ENDBRANCH  24  28
ENDBRANCH  19  24
ENDBRANCH  18  21
ENDBRANCH   1  18
TORSDOF 6
ENDMDL
MODEL 8
REMARK VINA RESULT:      -8.4      3.107      4.780
REMARK  Name = 
REMARK  7 active torsions:
REMARK  status: ('A' for Active; 'I' for Inactive)
REMARK    1  A    between atoms: C_1  and  O_2
REMARK    2  A    between atoms: O_2  and  C_3
REMARK    3  A    between atoms: C_6  and  C_7
REMARK    4  A    between atoms: C_7  and  N_8
REMARK    5  A    between atoms: C_10  and  C_11
REMARK    6  A    between atoms: C_11  and  N_12
REMARK    7  A    between atoms: N_12  and  C_13
REMARK                            x       y       z     vdW  Elec       q    Type
REMARK                         _______ _______ _______ _____ _____    ______ ____
ROOT
ATOM      1  N   UNL     1       3.168   6.705  19.820  0.00  0.00    +0.000 N 
ATOM      2  H   UNL     1       3.857   6.738  20.571  0.00  0.00    +0.000 HD
ENDROOT
BRANCH   1   3
ATOM      3  C   UNL     1       3.373   5.621  18.938  0.00  0.00    +0.000 A 
ATOM      4  C   UNL     1       4.066   5.643  17.714  0.00  0.00    +0.000 A 
ATOM      5  C   UNL     1       4.006   4.483  16.953  0.00  0.00    +0.000 A 
ATOM      6  N   UNL     1       2.989   3.620  17.087  0.00  0.00    +0.000 NA
ATOM      7  C   UNL     1       2.296   3.635  18.236  0.00  0.00    +0.000 A 
ATOM      8  C   UNL     1       1.112   2.940  18.456  0.00  0.00    +0.000 A 
ATOM      9  C   UNL     1       0.665   2.698  19.755  0.00  0.00    +0.000 A 
ATOM     10  C   UNL     1       1.504   2.993  20.819  0.00  0.00    +0.000 A 
ATOM     11 CL   UNL     1       1.231   2.279  22.354  0.00  0.00    +0.000 Cl
ATOM     12  C   UNL     1       2.549   3.876  20.611  0.00  0.00    +0.000 A 
ATOM     13  C   UNL     1       2.784   4.371  19.302  0.00  0.00    +0.000 A 
ATOM     14  C   UNL     1       5.180   4.052  16.117  0.00  0.00    +0.000 C 
ATOM     15  C   UNL     1       6.212   5.129  15.801  0.00  0.00    +0.000 C 
ATOM     16  C   UNL     1       5.727   6.561  15.946  0.00  0.00    +0.000 C 
ATOM     17  C   UNL     1       4.715   6.828  17.063  0.00  0.00    +0.000 C 
ENDBRANCH   1   3
BRANCH   1  18
ATOM     18  C   UNL     1       1.825   7.098  20.272  0.00  0.00    +0.000 C 
BRANCH  18  21
ATOM     19  N   UNL     1       0.736  10.582  20.292  0.00  0.00    +0.000 N 
ATOM     20  C   UNL     1       0.751   9.386  20.963  0.00  0.00    +0.000 A 
ATOM     21  C   UNL     1       1.281   8.494  20.063  0.00  0.00    +0.000 A 
ATOM     22  N   UNL     1       1.511   9.147  18.876  0.00  0.00    +0.000 NA
ATOM     23  N   UNL     1       1.195  10.423  19.038  0.00  0.00    +0.000 NA
BRANCH  19  24
ATOM     24  C   UNL     1       0.551  11.917  20.861  0.00  0.00    +0.000 C 
BRANCH  24  28
ATOM     25  C   UNL     1      -3.401  12.421  22.534  0.00  0.00    +0.000 A 
ATOM     26  C   UNL     1      -3.177  12.634  21.175  0.00  0.00    +0.000 A 
ATOM     27  C   UNL     1      -1.904  12.471  20.629  0.00  0.00    +0.000 A 
ATOM     28  C   UNL     1      -0.821  12.118  21.445  0.00  0.00    +0.000 A 
ATOM     29  C   UNL     1      -1.049  11.916  22.816  0.00  0.00    +0.000 A 
ATOM     30  C   UNL     1      -2.332  12.068  23.356  0.00  0.00    +0.000 A 
BRANCH  25  32
ATOM     31  C   UNL     1      -4.909  12.565  24.349  0.00  0.00    +0.000 C 
ATOM     32  O   UNL     1      -4.690  12.618  22.944  0.00  0.00    +0.000 OA
ENDBRANCH  25  32
ENDBRANCH  24  28
ENDBRANCH  19  24
ENDBRANCH  18  21
ENDBRANCH   1  18
TORSDOF 6
ENDMDL
MODEL 9
REMARK VINA RESULT:      -8.3      1.627      1.912
REMARK  Name = 
REMARK  7 active torsions:
REMARK  status: ('A' for Active; 'I' for Inactive)
REMARK    1  A    between atoms: C_1  and  O_2
REMARK    2  A    between atoms: O_2  and  C_3
REMARK    3  A    between atoms: C_6  and  C_7
REMARK    4  A    between atoms: C_7  and  N_8
REMARK    5  A    between atoms: C_10  and  C_11
REMARK    6  A    between atoms: C_11  and  N_12
REMARK    7  A    between atoms: N_12  and  C_13
REMARK                            x       y       z     vdW  Elec       q    Type
REMARK                         _______ _______ _______ _____ _____    ______ ____
ROOT
ATOM      1  N   UNL     1       2.972   7.029  19.619  0.00  0.00    +0.000 N 
ATOM      2  H   UNL     1       2.679   7.100  20.592  0.00  0.00    +0.000 HD
ENDROOT
BRANCH   1   3
ATOM      3  C   UNL     1       3.455   5.744  19.285  0.00  0.00    +0.000 A 
ATOM      4  C   UNL     1       2.792   4.517  19.463  0.00  0.00    +0.000 A 
ATOM      5  C   UNL     1       3.533   3.373  19.193  0.00  0.00    +0.000 A 
ATOM      6  N   UNL     1       4.872   3.385  19.262  0.00  0.00    +0.000 NA
ATOM      7  C   UNL     1       5.500   4.565  19.143  0.00  0.00    +0.000 A 
ATOM      8  C   UNL     1       6.856   4.767  19.375  0.00  0.00    +0.000 A 
ATOM      9  C   UNL     1       7.498   5.899  18.874  0.00  0.00    +0.000 A 
ATOM     10  C   UNL     1       6.817   6.718  17.988  0.00  0.00    +0.000 A 
ATOM     11 CL   UNL     1       7.683   7.802  16.978  0.00  0.00    +0.000 Cl
ATOM     12  C   UNL     1       5.436   6.645  17.948  0.00  0.00    +0.000 A 
ATOM     13  C   UNL     1       4.774   5.672  18.740  0.00  0.00    +0.000 A 
ATOM     14  C   UNL     1       2.876   2.154  18.605  0.00  0.00    +0.000 C 
ATOM     15  C   UNL     1       1.359   2.076  18.742  0.00  0.00    +0.000 C 
ATOM     16  C   UNL     1       0.756   2.952  19.826  0.00  0.00    +0.000 C 
ATOM     17  C   UNL     1       1.439   4.299  20.074  0.00  0.00    +0.000 C 
ENDBRANCH   1   3
BRANCH   1  18
ATOM     18  C   UNL     1       2.103   7.794  18.713  0.00  0.00    +0.000 C 
BRANCH  18  21
ATOM     19  N   UNL     1       0.420  11.005  19.131  0.00  0.00    +0.000 N 
ATOM     20  C   UNL     1       1.338  10.282  18.414  0.00  0.00    +0.000 A 
ATOM     21  C   UNL     1       1.475   9.110  19.116  0.00  0.00    +0.000 A 
ATOM     22  N   UNL     1       0.700   9.179  20.249  0.00  0.00    +0.000 NA
ATOM     23  N   UNL     1       0.045  10.331  20.232  0.00  0.00    +0.000 NA
BRANCH  19  24
ATOM     24  C   UNL     1      -0.314  12.192  18.692  0.00  0.00    +0.000 C 
BRANCH  24  28
ATOM     25  C   UNL     1      -4.518  11.369  18.121  0.00  0.00    +0.000 A 
ATOM     26  C   UNL     1      -3.584  10.968  17.167  0.00  0.00    +0.000 A 
ATOM     27  C   UNL     1      -2.226  11.230  17.348  0.00  0.00    +0.000 A 
ATOM     28  C   UNL     1      -1.780  11.927  18.478  0.00  0.00    +0.000 A 
ATOM     29  C   UNL     1      -2.727  12.339  19.430  0.00  0.00    +0.000 A 
ATOM     30  C   UNL     1      -4.087  12.062  19.251  0.00  0.00    +0.000 A 
BRANCH  25  32
ATOM     31  C   UNL     1      -6.699  12.163  17.668  0.00  0.00    +0.000 C 
ATOM     32  O   UNL     1      -5.816  11.058  17.824  0.00  0.00    +0.000 OA
ENDBRANCH  25  32
ENDBRANCH  24  28
ENDBRANCH  19  24
ENDBRANCH  18  21
ENDBRANCH   1  18
TORSDOF 6
ENDMDL
