MODEL 1
REMARK VINA RESULT:      -7.6      0.000      0.000
REMARK  Name = 
REMARK  6 active torsions:
REMARK  status: ('A' for Active; 'I' for Inactive)
REMARK    1  A    between atoms: C_1  and  C_2
REMARK    2  A    between atoms: C_2  and  O_3
REMARK    3  A    between atoms: O_3  and  C_4
REMARK    4  A    between atoms: C_4  and  C_6
REMARK    5  A    between atoms: C_12  and  O_13
REMARK    6  A    between atoms: O_13  and  C_14
REMARK                            x       y       z     vdW  Elec       q    Type
REMARK                         _______ _______ _______ _____ _____    ______ ____
ROOT
ATOM      1  C   UNL     1       5.810   5.469  16.535  0.00  0.00    +0.000 A 
ATOM      2  C   UNL     1       5.095   6.569  16.241  0.00  0.00    +0.000 A 
ATOM      3  N   UNL     1       4.085   7.084  17.012  0.00  0.00    +0.000 N 
ATOM      4  C   UNL     1       3.613   6.370  18.120  0.00  0.00    +0.000 A 
ATOM      5  C   UNL     1       2.512   6.812  18.848  0.00  0.00    +0.000 A 
ATOM      6  C   UNL     1       2.078   6.095  19.967  0.00  0.00    +0.000 A 
ATOM      7  C   UNL     1       2.739   4.932  20.382  0.00  0.00    +0.000 A 
ATOM      8  C   UNL     1       3.882   4.523  19.704  0.00  0.00    +0.000 A 
ATOM      9  C   UNL     1       4.303   5.230  18.568  0.00  0.00    +0.000 A 
ATOM     10  C   UNL     1       5.491   4.762  17.805  0.00  0.00    +0.000 A 
ATOM     11  O   UNL     1       6.156   3.826  18.235  0.00  0.00    +0.000 OA
ATOM     12  H   UNL     1       3.488   7.795  16.600  0.00  0.00    +0.000 HD
ENDROOT
BRANCH   1  13
ATOM     13  C   UNL     1       6.773   4.993  15.523  0.00  0.00    +0.000 C 
ATOM     14  O   UNL     1       7.731   5.646  15.136  0.00  0.00    +0.000 OA
BRANCH  13  15
ATOM     15  O   UNL     1       6.333   3.836  14.975  0.00  0.00    +0.000 OA
BRANCH  15  17
ATOM     16  C   UNL     1       6.351   3.558  12.608  0.00  0.00    +0.000 C 
ATOM     17  C   UNL     1       5.513   3.962  13.809  0.00  0.00    +0.000 C 
ENDBRANCH  15  17
ENDBRANCH  13  15
ENDBRANCH   1  13
BRANCH   7  18
ATOM     18  O   UNL     1       2.195   4.330  21.475  0.00  0.00    +0.000 OA
BRANCH  18  19
ATOM     19  C   UNL     1       1.915   2.936  21.444  0.00  0.00    +0.000 C 
ATOM     20  F   UNL     1       0.987   2.542  22.341  0.00  0.00    +0.000 F 
ATOM     21  F   UNL     1       1.509   2.585  20.205  0.00  0.00    +0.000 F 
ATOM     22  F   UNL     1       3.059   2.268  21.718  0.00  0.00    +0.000 F 
ENDBRANCH  18  19
ENDBRANCH   7  18
TORSDOF 5
ENDMDL
MODEL 2
REMARK VINA RESULT:      -7.6      0.629      1.110
REMARK  Name = 
REMARK  6 active torsions:
REMARK  status: ('A' for Active; 'I' for Inactive)
REMARK    1  A    between atoms: C_1  and  C_2
REMARK    2  A    between atoms: C_2  and  O_3
REMARK    3  A    between atoms: O_3  and  C_4
REMARK    4  A    between atoms: C_4  and  C_6
REMARK    5  A    between atoms: C_12  and  O_13
REMARK    6  A    between atoms: O_13  and  C_14
REMARK                            x       y       z     vdW  Elec       q    Type
REMARK                         _______ _______ _______ _____ _____    ______ ____
ROOT
ATOM      1  C   UNL     1       5.632   5.523  16.251  0.00  0.00    +0.000 A 
ATOM      2  C   UNL     1       5.006   6.706  16.137  0.00  0.00    +0.000 A 
ATOM      3  N   UNL     1       4.105   7.213  17.038  0.00  0.00    +0.000 N 
ATOM      4  C   UNL     1       3.647   6.419  18.096  0.00  0.00    +0.000 A 
ATOM      5  C   UNL     1       2.646   6.867  18.954  0.00  0.00    +0.000 A 
ATOM      6  C   UNL     1       2.226   6.065  20.019  0.00  0.00    +0.000 A 
ATOM      7  C   UNL     1       2.802   4.810  20.251  0.00  0.00    +0.000 A 
ATOM      8  C   UNL     1       3.851   4.386  19.443  0.00  0.00    +0.000 A 
ATOM      9  C   UNL     1       4.257   5.180  18.361  0.00  0.00    +0.000 A 
ATOM     10  C   UNL     1       5.338   4.703  17.458  0.00  0.00    +0.000 A 
ATOM     11  O   UNL     1       5.941   3.671  17.729  0.00  0.00    +0.000 OA
ATOM     12  H   UNL     1       3.551   8.016  16.755  0.00  0.00    +0.000 HD
ENDROOT
BRANCH   1  13
ATOM     13  C   UNL     1       6.474   5.086  15.119  0.00  0.00    +0.000 C 
ATOM     14  O   UNL     1       7.633   5.436  14.959  0.00  0.00    +0.000 OA
BRANCH  13  15
ATOM     15  O   UNL     1       5.721   4.410  14.219  0.00  0.00    +0.000 OA
BRANCH  15  17
ATOM     16  C   UNL     1       5.399   3.252  12.161  0.00  0.00    +0.000 C 
ATOM     17  C   UNL     1       6.428   3.812  13.128  0.00  0.00    +0.000 C 
ENDBRANCH  15  17
ENDBRANCH  13  15
ENDBRANCH   1  13
BRANCH   7  18
ATOM     18  O   UNL     1       2.282   4.134  21.312  0.00  0.00    +0.000 OA
BRANCH  18  19
ATOM     19  C   UNL     1       1.397   3.043  21.087  0.00  0.00    +0.000 C 
ATOM     20  F   UNL     1       1.934   2.041  20.361  0.00  0.00    +0.000 F 
ATOM     21  F   UNL     1       0.976   2.555  22.272  0.00  0.00    +0.000 F 
ATOM     22  F   UNL     1       0.319   3.505  20.414  0.00  0.00    +0.000 F 
ENDBRANCH  18  19
ENDBRANCH   7  18
TORSDOF 5
ENDMDL
MODEL 3
REMARK VINA RESULT:      -7.4      1.021      1.053
REMARK  Name = 
REMARK  6 active torsions:
REMARK  status: ('A' for Active; 'I' for Inactive)
REMARK    1  A    between atoms: C_1  and  C_2
REMARK    2  A    between atoms: C_2  and  O_3
REMARK    3  A    between atoms: O_3  and  C_4
REMARK    4  A    between atoms: C_4  and  C_6
REMARK    5  A    between atoms: C_12  and  O_13
REMARK    6  A    between atoms: O_13  and  C_14
REMARK                            x       y       z     vdW  Elec       q    Type
REMARK                         _______ _______ _______ _____ _____    ______ ____
ROOT
ATOM      1  C   UNL     1       5.457   5.275  15.981  0.00  0.00    +0.000 A 
ATOM      2  C   UNL     1       5.319   6.594  16.199  0.00  0.00    +0.000 A 
ATOM      3  N   UNL     1       4.538   7.155  17.176  0.00  0.00    +0.000 N 
ATOM      4  C   UNL     1       3.677   6.354  17.934  0.00  0.00    +0.000 A 
ATOM      5  C   UNL     1       2.788   6.913  18.849  0.00  0.00    +0.000 A 
ATOM      6  C   UNL     1       1.958   6.088  19.613  0.00  0.00    +0.000 A 
ATOM      7  C   UNL     1       2.006   4.695  19.484  0.00  0.00    +0.000 A 
ATOM      8  C   UNL     1       2.941   4.125  18.627  0.00  0.00    +0.000 A 
ATOM      9  C   UNL     1       3.757   4.954  17.843  0.00  0.00    +0.000 A 
ATOM     10  C   UNL     1       4.716   4.349  16.881  0.00  0.00    +0.000 A 
ATOM     11  O   UNL     1       4.863   3.132  16.856  0.00  0.00    +0.000 OA
ATOM     12  H   UNL     1       4.355   8.154  17.122  0.00  0.00    +0.000 HD
ENDROOT
BRANCH   1  13
ATOM     13  C   UNL     1       6.243   4.858  14.802  0.00  0.00    +0.000 C 
ATOM     14  O   UNL     1       7.374   5.255  14.564  0.00  0.00    +0.000 OA
BRANCH  13  15
ATOM     15  O   UNL     1       5.464   4.138  13.960  0.00  0.00    +0.000 OA
BRANCH  15  17
ATOM     16  C   UNL     1       5.032   3.194  11.815  0.00  0.00    +0.000 C 
ATOM     17  C   UNL     1       6.112   3.608  12.800  0.00  0.00    +0.000 C 
ENDBRANCH  15  17
ENDBRANCH  13  15
ENDBRANCH   1  13
BRANCH   7  18
ATOM     18  O   UNL     1       1.130   4.021  20.278  0.00  0.00    +0.000 OA
BRANCH  18  19
ATOM     19  C   UNL     1       1.597   2.951  21.092  0.00  0.00    +0.000 C 
ATOM     20  F   UNL     1       0.780   2.648  22.122  0.00  0.00    +0.000 F 
ATOM     21  F   UNL     1       1.776   1.852  20.330  0.00  0.00    +0.000 F 
ATOM     22  F   UNL     1       2.795   3.305  21.610  0.00  0.00    +0.000 F 
ENDBRANCH  18  19
ENDBRANCH   7  18
TORSDOF 5
ENDMDL
MODEL 4
REMARK VINA RESULT:      -7.3      4.124      7.024
REMARK  Name = 
REMARK  6 active torsions:
REMARK  status: ('A' for Active; 'I' for Inactive)
REMARK    1  A    between atoms: C_1  and  C_2
REMARK    2  A    between atoms: C_2  and  O_3
REMARK    3  A    between atoms: O_3  and  C_4
REMARK    4  A    between atoms: C_4  and  C_6
REMARK    5  A    between atoms: C_12  and  O_13
REMARK    6  A    between atoms: O_13  and  C_14
REMARK                            x       y       z     vdW  Elec       q    Type
REMARK                         _______ _______ _______ _____ _____    ______ ____
ROOT
ATOM      1  C   UNL     1       3.500   3.201  18.832  0.00  0.00    +0.000 A 
ATOM      2  C   UNL     1       4.625   3.410  19.537  0.00  0.00    +0.000 A 
ATOM      3  N   UNL     1       5.788   3.930  19.032  0.00  0.00    +0.000 N 
ATOM      4  C   UNL     1       5.928   4.133  17.654  0.00  0.00    +0.000 A 
ATOM      5  C   UNL     1       7.138   4.547  17.104  0.00  0.00    +0.000 A 
ATOM      6  C   UNL     1       7.243   4.768  15.727  0.00  0.00    +0.000 A 
ATOM      7  C   UNL     1       6.142   4.589  14.880  0.00  0.00    +0.000 A 
ATOM      8  C   UNL     1       4.912   4.247  15.430  0.00  0.00    +0.000 A 
ATOM      9  C   UNL     1       4.813   4.002  16.808  0.00  0.00    +0.000 A 
ATOM     10  C   UNL     1       3.513   3.577  17.391  0.00  0.00    +0.000 A 
ATOM     11  O   UNL     1       2.512   3.548  16.684  0.00  0.00    +0.000 OA
ATOM     12  H   UNL     1       6.627   3.860  19.602  0.00  0.00    +0.000 HD
ENDROOT
BRANCH   1  13
ATOM     13  C   UNL     1       2.385   2.516  19.515  0.00  0.00    +0.000 C 
ATOM     14  O   UNL     1       1.810   1.537  19.063  0.00  0.00    +0.000 OA
BRANCH  13  15
ATOM     15  O   UNL     1       1.993   3.235  20.593  0.00  0.00    +0.000 OA
BRANCH  15  17
ATOM     16  C   UNL     1       1.639   5.588  20.724  0.00  0.00    +0.000 C 
ATOM     17  C   UNL     1       1.018   4.253  20.352  0.00  0.00    +0.000 C 
ENDBRANCH  15  17
ENDBRANCH  13  15
ENDBRANCH   1  13
BRANCH   7  18
ATOM     18  O   UNL     1       6.395   4.824  13.564  0.00  0.00    +0.000 OA
BRANCH  18  19
ATOM     19  C   UNL     1       6.227   3.777  12.616  0.00  0.00    +0.000 C 
ATOM     20  F   UNL     1       6.463   2.544  13.111  0.00  0.00    +0.000 F 
ATOM     21  F   UNL     1       4.974   3.820  12.117  0.00  0.00    +0.000 F 
ATOM     22  F   UNL     1       7.094   3.983  11.599  0.00  0.00    +0.000 F 
ENDBRANCH  18  19
ENDBRANCH   7  18
TORSDOF 5
ENDMDL
MODEL 5
REMARK VINA RESULT:      -7.2      3.461      4.149
REMARK  Name = 
REMARK  6 active torsions:
REMARK  status: ('A' for Active; 'I' for Inactive)
REMARK    1  A    between atoms: C_1  and  C_2
REMARK    2  A    between atoms: C_2  and  O_3
REMARK    3  A    between atoms: O_3  and  C_4
REMARK    4  A    between atoms: C_4  and  C_6
REMARK    5  A    between atoms: C_12  and  O_13
REMARK    6  A    between atoms: O_13  and  C_14
REMARK                            x       y       z     vdW  Elec       q    Type
REMARK                         _______ _______ _______ _____ _____    ______ ____
ROOT
ATOM      1  C   UNL     1       5.600   4.811  15.888  0.00  0.00    +0.000 A 
ATOM      2  C   UNL     1       5.201   3.749  16.609  0.00  0.00    +0.000 A 
ATOM      3  N   UNL     1       4.235   3.773  17.581  0.00  0.00    +0.000 N 
ATOM      4  C   UNL     1       3.697   4.993  18.008  0.00  0.00    +0.000 A 
ATOM      5  C   UNL     1       2.803   5.054  19.074  0.00  0.00    +0.000 A 
ATOM      6  C   UNL     1       2.259   6.282  19.462  0.00  0.00    +0.000 A 
ATOM      7  C   UNL     1       2.591   7.465  18.790  0.00  0.00    +0.000 A 
ATOM      8  C   UNL     1       3.425   7.403  17.680  0.00  0.00    +0.000 A 
ATOM      9  C   UNL     1       3.989   6.174  17.305  0.00  0.00    +0.000 A 
ATOM     10  C   UNL     1       4.929   6.113  16.154  0.00  0.00    +0.000 A 
ATOM     11  O   UNL     1       5.122   7.116  15.476  0.00  0.00    +0.000 OA
ATOM     12  H   UNL     1       4.156   2.965  18.192  0.00  0.00    +0.000 HD
ENDROOT
BRANCH   1  13
ATOM     13  C   UNL     1       6.742   4.622  14.972  0.00  0.00    +0.000 C 
ATOM     14  O   UNL     1       7.696   5.383  14.909  0.00  0.00    +0.000 OA
BRANCH  13  15
ATOM     15  O   UNL     1       6.481   3.610  14.111  0.00  0.00    +0.000 OA
BRANCH  15  17
ATOM     16  C   UNL     1       5.653   2.951  11.975  0.00  0.00    +0.000 C 
ATOM     17  C   UNL     1       6.539   3.936  12.719  0.00  0.00    +0.000 C 
ENDBRANCH  15  17
ENDBRANCH  13  15
ENDBRANCH   1  13
BRANCH   7  18
ATOM     18  O   UNL     1       2.000   8.585  19.288  0.00  0.00    +0.000 OA
BRANCH  18  19
ATOM     19  C   UNL     1       1.361   9.497  18.403  0.00  0.00    +0.000 C 
ATOM     20  F   UNL     1       2.197  10.395  17.841  0.00  0.00    +0.000 F 
ATOM     21  F   UNL     1       0.729   8.810  17.428  0.00  0.00    +0.000 F 
ATOM     22  F   UNL     1       0.432  10.185  19.104  0.00  0.00    +0.000 F 
ENDBRANCH  18  19
ENDBRANCH   7  18
TORSDOF 5
ENDMDL
MODEL 6
REMARK VINA RESULT:      -7.0      1.350      1.510
REMARK  Name = 
REMARK  6 active torsions:
REMARK  status: ('A' for Active; 'I' for Inactive)
REMARK    1  A    between atoms: C_1  and  C_2
REMARK    2  A    between atoms: C_2  and  O_3
REMARK    3  A    between atoms: O_3  and  C_4
REMARK    4  A    between atoms: C_4  and  C_6
REMARK    5  A    between atoms: C_12  and  O_13
REMARK    6  A    between atoms: O_13  and  C_14
REMARK                            x       y       z     vdW  Elec       q    Type
REMARK                         _______ _______ _______ _____ _____    ______ ____
ROOT
ATOM      1  C   UNL     1       5.968   5.978  17.291  0.00  0.00    +0.000 A 
ATOM      2  C   UNL     1       5.008   6.782  16.803  0.00  0.00    +0.000 A 
ATOM      3  N   UNL     1       3.681   6.725  17.145  0.00  0.00    +0.000 N 
ATOM      4  C   UNL     1       3.204   5.674  17.938  0.00  0.00    +0.000 A 
ATOM      5  C   UNL     1       1.845   5.527  18.200  0.00  0.00    +0.000 A 
ATOM      6  C   UNL     1       1.398   4.484  19.017  0.00  0.00    +0.000 A 
ATOM      7  C   UNL     1       2.298   3.578  19.591  0.00  0.00    +0.000 A 
ATOM      8  C   UNL     1       3.662   3.760  19.393  0.00  0.00    +0.000 A 
ATOM      9  C   UNL     1       4.109   4.793  18.555  0.00  0.00    +0.000 A 
ATOM     10  C   UNL     1       5.564   4.954  18.293  0.00  0.00    +0.000 A 
ATOM     11  O   UNL     1       6.369   4.253  18.895  0.00  0.00    +0.000 OA
ATOM     12  H   UNL     1       3.020   7.243  16.573  0.00  0.00    +0.000 HD
ENDROOT
BRANCH   1  13
ATOM     13  C   UNL     1       7.320   6.104  16.712  0.00  0.00    +0.000 C 
ATOM     14  O   UNL     1       7.914   7.166  16.597  0.00  0.00    +0.000 OA
BRANCH  13  15
ATOM     15  O   UNL     1       7.704   4.922  16.174  0.00  0.00    +0.000 OA
BRANCH  15  17
ATOM     16  C   UNL     1       7.240   4.963  13.837  0.00  0.00    +0.000 C 
ATOM     17  C   UNL     1       6.837   4.372  15.177  0.00  0.00    +0.000 C 
ENDBRANCH  15  17
ENDBRANCH  13  15
ENDBRANCH   1  13
BRANCH   7  18
ATOM     18  O   UNL     1       1.720   2.607  20.348  0.00  0.00    +0.000 OA
BRANCH  18  19
ATOM     19  C   UNL     1       1.906   2.608  21.758  0.00  0.00    +0.000 C 
ATOM     20  F   UNL     1       0.840   2.162  22.454  0.00  0.00    +0.000 F 
ATOM     21  F   UNL     1       2.984   1.857  22.070  0.00  0.00    +0.000 F 
ATOM     22  F   UNL     1       2.150   3.879  22.151  0.00  0.00    +0.000 F 
ENDBRANCH  18  19
ENDBRANCH   7  18
TORSDOF 5
ENDMDL
MODEL 7
REMARK VINA RESULT:      -7.0      3.455      4.189
REMARK  Name = 
REMARK  6 active torsions:
REMARK  status: ('A' for Active; 'I' for Inactive)
REMARK    1  A    between atoms: C_1  and  C_2
REMARK    2  A    between atoms: C_2  and  O_3
REMARK    3  A    between atoms: O_3  and  C_4
REMARK    4  A    between atoms: C_4  and  C_6
REMARK    5  A    between atoms: C_12  and  O_13
REMARK    6  A    between atoms: O_13  and  C_14
REMARK                            x       y       z     vdW  Elec       q    Type
REMARK                         _______ _______ _______ _____ _____    ______ ____
ROOT
ATOM      1  C   UNL     1       5.576   4.922  16.496  0.00  0.00    +0.000 A 
ATOM      2  C   UNL     1       5.310   3.975  17.412  0.00  0.00    +0.000 A 
ATOM      3  N   UNL     1       4.371   4.080  18.406  0.00  0.00    +0.000 N 
ATOM      4  C   UNL     1       3.719   5.298  18.632  0.00  0.00    +0.000 A 
ATOM      5  C   UNL     1       2.852   5.464  19.708  0.00  0.00    +0.000 A 
ATOM      6  C   UNL     1       2.192   6.683  19.895  0.00  0.00    +0.000 A 
ATOM      7  C   UNL     1       2.380   7.750  19.008  0.00  0.00    +0.000 A 
ATOM      8  C   UNL     1       3.188   7.569  17.891  0.00  0.00    +0.000 A 
ATOM      9  C   UNL     1       3.867   6.355  17.717  0.00  0.00    +0.000 A 
ATOM     10  C   UNL     1       4.779   6.178  16.555  0.00  0.00    +0.000 A 
ATOM     11  O   UNL     1       4.848   7.054  15.701  0.00  0.00    +0.000 OA
ATOM     12  H   UNL     1       4.394   3.393  19.155  0.00  0.00    +0.000 HD
ENDROOT
BRANCH   1  13
ATOM     13  C   UNL     1       6.708   4.683  15.579  0.00  0.00    +0.000 C 
ATOM     14  O   UNL     1       7.680   5.419  15.494  0.00  0.00    +0.000 OA
BRANCH  13  15
ATOM     15  O   UNL     1       6.417   3.658  14.744  0.00  0.00    +0.000 OA
BRANCH  15  17
ATOM     16  C   UNL     1       6.343   3.493  12.368  0.00  0.00    +0.000 C 
ATOM     17  C   UNL     1       5.612   3.980  13.607  0.00  0.00    +0.000 C 
ENDBRANCH  15  17
ENDBRANCH  13  15
ENDBRANCH   1  13
BRANCH   7  18
ATOM     18  O   UNL     1       1.688   8.878  19.324  0.00  0.00    +0.000 OA
BRANCH  18  19
ATOM     19  C   UNL     1       1.077   9.642  18.291  0.00  0.00    +0.000 C 
ATOM     20  F   UNL     1       0.556   8.899  17.293  0.00  0.00    +0.000 F 
ATOM     21  F   UNL     1       0.108  10.418  18.819  0.00  0.00    +0.000 F 
ATOM     22  F   UNL     1       2.018  10.450  17.751  0.00  0.00    +0.000 F 
ENDBRANCH  18  19
ENDBRANCH   7  18
TORSDOF 5
ENDMDL
MODEL 8
REMARK VINA RESULT:      -7.0      3.738      6.763
REMARK  Name = 
REMARK  6 active torsions:
REMARK  status: ('A' for Active; 'I' for Inactive)
REMARK    1  A    between atoms: C_1  and  C_2
REMARK    2  A    between atoms: C_2  and  O_3
REMARK    3  A    between atoms: O_3  and  C_4
REMARK    4  A    between atoms: C_4  and  C_6
REMARK    5  A    between atoms: C_12  and  O_13
REMARK    6  A    between atoms: O_13  and  C_14
REMARK                            x       y       z     vdW  Elec       q    Type
REMARK                         _______ _______ _______ _____ _____    ______ ____
ROOT
ATOM      1  C   UNL     1       1.870   4.109  18.759  0.00  0.00    +0.000 A 
ATOM      2  C   UNL     1       2.064   5.371  19.176  0.00  0.00    +0.000 A 
ATOM      3  N   UNL     1       2.998   6.236  18.666  0.00  0.00    +0.000 N 
ATOM      4  C   UNL     1       3.951   5.780  17.749  0.00  0.00    +0.000 A 
ATOM      5  C   UNL     1       4.982   6.607  17.307  0.00  0.00    +0.000 A 
ATOM      6  C   UNL     1       5.905   6.134  16.369  0.00  0.00    +0.000 A 
ATOM      7  C   UNL     1       5.812   4.837  15.853  0.00  0.00    +0.000 A 
ATOM      8  C   UNL     1       4.745   4.030  16.233  0.00  0.00    +0.000 A 
ATOM      9  C   UNL     1       3.832   4.496  17.191  0.00  0.00    +0.000 A 
ATOM     10  C   UNL     1       2.724   3.614  17.646  0.00  0.00    +0.000 A 
ATOM     11  O   UNL     1       2.553   2.528  17.103  0.00  0.00    +0.000 OA
ATOM     12  H   UNL     1       3.189   7.089  19.185  0.00  0.00    +0.000 HD
ENDROOT
BRANCH   1  13
ATOM     13  C   UNL     1       0.903   3.284  19.512  0.00  0.00    +0.000 C 
ATOM     14  O   UNL     1       0.133   2.492  18.989  0.00  0.00    +0.000 OA
BRANCH  13  15
ATOM     15  O   UNL     1       0.879   3.672  20.809  0.00  0.00    +0.000 OA
BRANCH  15  17
ATOM     16  C   UNL     1       2.844   2.495  21.467  0.00  0.00    +0.000 C 
ATOM     17  C   UNL     1       1.371   2.723  21.760  0.00  0.00    +0.000 C 
ENDBRANCH  15  17
ENDBRANCH  13  15
ENDBRANCH   1  13
BRANCH   7  18
ATOM     18  O   UNL     1       6.788   4.509  14.963  0.00  0.00    +0.000 OA
BRANCH  18  19
ATOM     19  C   UNL     1       6.440   4.195  13.620  0.00  0.00    +0.000 C 
ATOM     20  F   UNL     1       7.279   4.714  12.699  0.00  0.00    +0.000 F 
ATOM     21  F   UNL     1       6.392   2.855  13.469  0.00  0.00    +0.000 F 
ATOM     22  F   UNL     1       5.206   4.692  13.375  0.00  0.00    +0.000 F 
ENDBRANCH  18  19
ENDBRANCH   7  18
TORSDOF 5
ENDMDL
MODEL 9
REMARK VINA RESULT:      -7.0      1.936      2.335
REMARK  Name = 
REMARK  6 active torsions:
REMARK  status: ('A' for Active; 'I' for Inactive)
REMARK    1  A    between atoms: C_1  and  C_2
REMARK    2  A    between atoms: C_2  and  O_3
REMARK    3  A    between atoms: O_3  and  C_4
REMARK    4  A    between atoms: C_4  and  C_6
REMARK    5  A    between atoms: C_12  and  O_13
REMARK    6  A    between atoms: O_13  and  C_14
REMARK                            x       y       z     vdW  Elec       q    Type
REMARK                         _______ _______ _______ _____ _____    ______ ____
ROOT
ATOM      1  C   UNL     1       6.669   5.007  15.586  0.00  0.00    +0.000 A 
ATOM      2  C   UNL     1       6.928   6.026  16.424  0.00  0.00    +0.000 A 
ATOM      3  N   UNL     1       6.384   6.178  17.673  0.00  0.00    +0.000 N 
ATOM      4  C   UNL     1       5.359   5.327  18.102  0.00  0.00    +0.000 A 
ATOM      5  C   UNL     1       4.709   5.534  19.316  0.00  0.00    +0.000 A 
ATOM      6  C   UNL     1       3.707   4.653  19.733  0.00  0.00    +0.000 A 
ATOM      7  C   UNL     1       3.344   3.548  18.953  0.00  0.00    +0.000 A 
ATOM      8  C   UNL     1       4.037   3.293  17.775  0.00  0.00    +0.000 A 
ATOM      9  C   UNL     1       5.026   4.190  17.345  0.00  0.00    +0.000 A 
ATOM     10  C   UNL     1       5.729   3.953  16.056  0.00  0.00    +0.000 A 
ATOM     11  O   UNL     1       5.516   2.921  15.431  0.00  0.00    +0.000 OA
ATOM     12  H   UNL     1       6.496   7.078  18.134  0.00  0.00    +0.000 HD
ENDROOT
BRANCH   1  13
ATOM     13  C   UNL     1       7.251   5.076  14.231  0.00  0.00    +0.000 C 
ATOM     14  O   UNL     1       8.315   5.620  13.975  0.00  0.00    +0.000 OA
BRANCH  13  15
ATOM     15  O   UNL     1       6.357   4.621  13.322  0.00  0.00    +0.000 OA
BRANCH  15  17
ATOM     16  C   UNL     1       5.779   2.824  11.866  0.00  0.00    +0.000 C 
ATOM     17  C   UNL     1       6.881   3.781  12.289  0.00  0.00    +0.000 C 
ENDBRANCH  15  17
ENDBRANCH  13  15
ENDBRANCH   1  13
BRANCH   7  18
ATOM     18  O   UNL     1       2.344   2.789  19.476  0.00  0.00    +0.000 OA
BRANCH  18  19
ATOM     19  C   UNL     1       0.990   3.087  19.153  0.00  0.00    +0.000 C 
ATOM     20  F   UNL     1       0.276   2.020  18.739  0.00  0.00    +0.000 F 
ATOM     21  F   UNL     1       0.383   3.638  20.225  0.00  0.00    +0.000 F 
ATOM     22  F   UNL     1       0.985   3.996  18.152  0.00  0.00    +0.000 F 
ENDBRANCH  18  19
ENDBRANCH   7  18
TORSDOF 5
ENDMDL
