MODEL 1
REMARK VINA RESULT:      -7.9      0.000      0.000
REMARK  Name = 
REMARK  6 active torsions:
REMARK  status: ('A' for Active; 'I' for Inactive)
REMARK    1  A    between atoms: C_1  and  C_2
REMARK    2  A    between atoms: C_6  and  C_7
REMARK    3  A    between atoms: N_9  and  C_10
REMARK    4  A    between atoms: C_16  and  O_17
REMARK    5  A    between atoms: C_18  and  O_19
REMARK    6  A    between atoms: C_20  and  C_21
REMARK                            x       y       z     vdW  Elec       q    Type
REMARK                         _______ _______ _______ _____ _____    ______ ____
ROOT
ATOM      1  C   UNL     1       2.607   4.595  17.678  0.00  0.00    +0.000 C 
ATOM      2  C   UNL     1       2.415   3.216  18.379  0.00  0.00    +0.000 C 
ATOM      3  N   UNL     1       3.575   2.483  18.902  0.00  0.00    +0.000 NA
ATOM      4  C   UNL     1       4.179   1.559  17.941  0.00  0.00    +0.000 C 
ATOM      5  C   UNL     1       4.571   3.235  19.681  0.00  0.00    +0.000 C 
ATOM      6  C   UNL     1       5.036   4.687  19.326  0.00  0.00    +0.000 C 
ATOM      7  C   UNL     1       5.120   5.016  17.841  0.00  0.00    +0.000 A 
ATOM      8  C   UNL     1       4.010   4.633  17.053  0.00  0.00    +0.000 A 
ATOM      9  C   UNL     1       4.264   4.091  15.791  0.00  0.00    +0.000 A 
ATOM     10  C   UNL     1       5.587   3.990  15.383  0.00  0.00    +0.000 A 
ATOM     11  C   UNL     1       6.601   4.682  16.051  0.00  0.00    +0.000 A 
ATOM     12  C   UNL     1       6.341   5.387  17.229  0.00  0.00    +0.000 A 
ENDROOT
BRANCH  12  13
ATOM     13  C   UNL     1       7.203   6.524  17.736  0.00  0.00    +0.000 A 
ATOM     14  C   UNL     1       7.902   6.457  18.948  0.00  0.00    +0.000 A 
ATOM     15  C   UNL     1       8.700   7.510  19.425  0.00  0.00    +0.000 A 
ATOM     16  C   UNL     1       8.691   8.745  18.791  0.00  0.00    +0.000 A 
ATOM     17  C   UNL     1       9.452   9.816  19.288  0.00  0.00    +0.000 A 
ATOM     18  C   UNL     1       9.124  11.118  18.919  0.00  0.00    +0.000 A 
ATOM     19  C   UNL     1       8.195  11.336  17.911  0.00  0.00    +0.000 A 
ATOM     20  C   UNL     1       7.637  10.248  17.229  0.00  0.00    +0.000 A 
ATOM     21  C   UNL     1       7.832   8.936  17.678  0.00  0.00    +0.000 A 
ATOM     22  C   UNL     1       7.179   7.802  17.136  0.00  0.00    +0.000 A 
ENDBRANCH  12  13
BRANCH   1  28
ATOM     23  C   UNL     1       2.145   9.636  17.894  0.00  0.00    +0.000 C 
ATOM     24  C   UNL     1       2.079   8.310  18.594  0.00  0.00    +0.000 A 
ATOM     25  C   UNL     1       1.898   8.251  19.977  0.00  0.00    +0.000 A 
ATOM     26  C   UNL     1       1.857   7.019  20.620  0.00  0.00    +0.000 A 
ATOM     27  C   UNL     1       2.029   5.836  19.893  0.00  0.00    +0.000 A 
ATOM     28  C   UNL     1       2.264   5.858  18.506  0.00  0.00    +0.000 A 
ATOM     29  C   UNL     1       2.237   7.117  17.867  0.00  0.00    +0.000 A 
ENDBRANCH   1  28
BRANCH  10  30
ATOM     30  O   UNL     1       5.952   3.166  14.353  0.00  0.00    +0.000 OA
ATOM     31  H   UNL     1       6.724   3.584  13.929  0.00  0.00    +0.000 HD
ENDBRANCH  10  30
BRANCH  11  32
ATOM     32  O   UNL     1       7.877   4.545  15.563  0.00  0.00    +0.000 OA
ATOM     33  H   UNL     1       7.870   3.702  15.069  0.00  0.00    +0.000 HD
ENDBRANCH  11  32
TORSDOF 4
ENDMDL
MODEL 2
REMARK VINA RESULT:      -7.7      7.034     11.314
REMARK  Name = 
REMARK  6 active torsions:
REMARK  status: ('A' for Active; 'I' for Inactive)
REMARK    1  A    between atoms: C_1  and  C_2
REMARK    2  A    between atoms: C_6  and  C_7
REMARK    3  A    between atoms: N_9  and  C_10
REMARK    4  A    between atoms: C_16  and  O_17
REMARK    5  A    between atoms: C_18  and  O_19
REMARK    6  A    between atoms: C_20  and  C_21
REMARK                            x       y       z     vdW  Elec       q    Type
REMARK                         _______ _______ _______ _____ _____    ______ ____
ROOT
ATOM      1  C   UNL     1       0.983  12.598  21.185  0.00  0.00    +0.000 C 
ATOM      2  C   UNL     1       2.086  13.506  20.561  0.00  0.00    +0.000 C 
ATOM      3  N   UNL     1       1.997  13.917  19.153  0.00  0.00    +0.000 NA
ATOM      4  C   UNL     1       2.660  13.003  18.222  0.00  0.00    +0.000 C 
ATOM      5  C   UNL     1       0.699  14.402  18.658  0.00  0.00    +0.000 C 
ATOM      6  C   UNL     1      -0.676  13.775  19.066  0.00  0.00    +0.000 C 
ATOM      7  C   UNL     1      -0.684  12.267  19.280  0.00  0.00    +0.000 A 
ATOM      8  C   UNL     1       0.366  11.742  20.068  0.00  0.00    +0.000 A 
ATOM      9  C   UNL     1       0.951  10.542  19.658  0.00  0.00    +0.000 A 
ATOM     10  C   UNL     1       0.446   9.930  18.519  0.00  0.00    +0.000 A 
ATOM     11  C   UNL     1      -0.788  10.312  17.984  0.00  0.00    +0.000 A 
ATOM     12  C   UNL     1      -1.490  11.408  18.494  0.00  0.00    +0.000 A 
ENDROOT
BRANCH  12  13
ATOM     13  C   UNL     1      -2.984  11.598  18.337  0.00  0.00    +0.000 A 
ATOM     14  C   UNL     1      -3.628  11.511  17.097  0.00  0.00    +0.000 A 
ATOM     15  C   UNL     1      -5.013  11.690  16.945  0.00  0.00    +0.000 A 
ATOM     16  C   UNL     1      -5.787  12.137  18.007  0.00  0.00    +0.000 A 
ATOM     17  C   UNL     1      -7.165  12.359  17.851  0.00  0.00    +0.000 A 
ATOM     18  C   UNL     1      -7.832  13.181  18.756  0.00  0.00    +0.000 A 
ATOM     19  C   UNL     1      -7.188  13.599  19.913  0.00  0.00    +0.000 A 
ATOM     20  C   UNL     1      -5.893  13.145  20.194  0.00  0.00    +0.000 A 
ATOM     21  C   UNL     1      -5.148  12.447  19.236  0.00  0.00    +0.000 A 
ATOM     22  C   UNL     1      -3.786  12.092  19.388  0.00  0.00    +0.000 A 
ENDBRANCH  12  13
BRANCH   1  28
ATOM     23  C   UNL     1      -3.430  12.352  23.663  0.00  0.00    +0.000 C 
ATOM     24  C   UNL     1      -2.230  13.156  23.254  0.00  0.00    +0.000 A 
ATOM     25  C   UNL     1      -2.172  14.524  23.528  0.00  0.00    +0.000 A 
ATOM     26  C   UNL     1      -1.065  15.266  23.131  0.00  0.00    +0.000 A 
ATOM     27  C   UNL     1      -0.022  14.655  22.426  0.00  0.00    +0.000 A 
ATOM     28  C   UNL     1      -0.068  13.291  22.087  0.00  0.00    +0.000 A 
ATOM     29  C   UNL     1      -1.172  12.546  22.559  0.00  0.00    +0.000 A 
ENDBRANCH   1  28
BRANCH  10  30
ATOM     30  O   UNL     1       1.161   8.977  17.848  0.00  0.00    +0.000 OA
ATOM     31  H   UNL     1       1.275   9.310  16.938  0.00  0.00    +0.000 HD
ENDBRANCH  10  30
BRANCH  11  32
ATOM     32  O   UNL     1      -1.223   9.635  16.872  0.00  0.00    +0.000 OA
ATOM     33  H   UNL     1      -1.484  10.331  16.238  0.00  0.00    +0.000 HD
ENDBRANCH  11  32
TORSDOF 4
ENDMDL
MODEL 3
REMARK VINA RESULT:      -7.6      0.725      1.349
REMARK  Name = 
REMARK  6 active torsions:
REMARK  status: ('A' for Active; 'I' for Inactive)
REMARK    1  A    between atoms: C_1  and  C_2
REMARK    2  A    between atoms: C_6  and  C_7
REMARK    3  A    between atoms: N_9  and  C_10
REMARK    4  A    between atoms: C_16  and  O_17
REMARK    5  A    between atoms: C_18  and  O_19
REMARK    6  A    between atoms: C_20  and  C_21
REMARK                            x       y       z     vdW  Elec       q    Type
REMARK                         _______ _______ _______ _____ _____    ______ ____
ROOT
ATOM      1  C   UNL     1       2.526   5.346  17.705  0.00  0.00    +0.000 C 
ATOM      2  C   UNL     1       2.162   4.115  18.589  0.00  0.00    +0.000 C 
ATOM      3  N   UNL     1       3.214   3.385  19.310  0.00  0.00    +0.000 NA
ATOM      4  C   UNL     1       3.797   2.276  18.551  0.00  0.00    +0.000 C 
ATOM      5  C   UNL     1       4.217   4.170  20.044  0.00  0.00    +0.000 C 
ATOM      6  C   UNL     1       4.834   5.507  19.514  0.00  0.00    +0.000 C 
ATOM      7  C   UNL     1       5.049   5.591  18.008  0.00  0.00    +0.000 A 
ATOM      8  C   UNL     1       3.966   5.176  17.198  0.00  0.00    +0.000 A 
ATOM      9  C   UNL     1       4.257   4.424  16.058  0.00  0.00    +0.000 A 
ATOM     10  C   UNL     1       5.589   4.157  15.779  0.00  0.00    +0.000 A 
ATOM     11  C   UNL     1       6.614   4.864  16.416  0.00  0.00    +0.000 A 
ATOM     12  C   UNL     1       6.338   5.764  17.448  0.00  0.00    +0.000 A 
ENDROOT
BRANCH  12  13
ATOM     13  C   UNL     1       7.261   6.896  17.847  0.00  0.00    +0.000 A 
ATOM     14  C   UNL     1       8.083   6.835  18.979  0.00  0.00    +0.000 A 
ATOM     15  C   UNL     1       8.939   7.883  19.356  0.00  0.00    +0.000 A 
ATOM     16  C   UNL     1       8.878   9.110  18.710  0.00  0.00    +0.000 A 
ATOM     17  C   UNL     1       9.700  10.177  19.109  0.00  0.00    +0.000 A 
ATOM     18  C   UNL     1       9.349  11.479  18.760  0.00  0.00    +0.000 A 
ATOM     19  C   UNL     1       8.321  11.696  17.851  0.00  0.00    +0.000 A 
ATOM     20  C   UNL     1       7.682  10.607  17.247  0.00  0.00    +0.000 A 
ATOM     21  C   UNL     1       7.908   9.299  17.690  0.00  0.00    +0.000 A 
ATOM     22  C   UNL     1       7.189   8.166  17.236  0.00  0.00    +0.000 A 
ENDBRANCH  12  13
BRANCH   1  28
ATOM     23  C   UNL     1       1.029   8.146  21.655  0.00  0.00    +0.000 C 
ATOM     24  C   UNL     1       1.479   8.082  20.224  0.00  0.00    +0.000 A 
ATOM     25  C   UNL     1       1.457   9.227  19.426  0.00  0.00    +0.000 A 
ATOM     26  C   UNL     1       1.859   9.155  18.097  0.00  0.00    +0.000 A 
ATOM     27  C   UNL     1       2.255   7.932  17.544  0.00  0.00    +0.000 A 
ATOM     28  C   UNL     1       2.241   6.747  18.302  0.00  0.00    +0.000 A 
ATOM     29  C   UNL     1       1.892   6.859  19.666  0.00  0.00    +0.000 A 
ENDBRANCH   1  28
BRANCH  10  30
ATOM     30  O   UNL     1       5.949   3.155  14.919  0.00  0.00    +0.000 OA
ATOM     31  H   UNL     1       6.793   2.799  15.251  0.00  0.00    +0.000 HD
ENDBRANCH  10  30
BRANCH  11  32
ATOM     32  O   UNL     1       7.902   4.553  16.060  0.00  0.00    +0.000 OA
ATOM     33  H   UNL     1       8.444   4.791  16.838  0.00  0.00    +0.000 HD
ENDBRANCH  11  32
TORSDOF 4
ENDMDL
MODEL 4
REMARK VINA RESULT:      -7.3      5.450      9.257
REMARK  Name = 
REMARK  6 active torsions:
REMARK  status: ('A' for Active; 'I' for Inactive)
REMARK    1  A    between atoms: C_1  and  C_2
REMARK    2  A    between atoms: C_6  and  C_7
REMARK    3  A    between atoms: N_9  and  C_10
REMARK    4  A    between atoms: C_16  and  O_17
REMARK    5  A    between atoms: C_18  and  O_19
REMARK    6  A    between atoms: C_20  and  C_21
REMARK                            x       y       z     vdW  Elec       q    Type
REMARK                         _______ _______ _______ _____ _____    ______ ____
ROOT
ATOM      1  C   UNL     1       0.728  14.624  19.206  0.00  0.00    +0.000 C 
ATOM      2  C   UNL     1       0.002  15.184  20.466  0.00  0.00    +0.000 C 
ATOM      3  N   UNL     1      -0.644  14.270  21.417  0.00  0.00    +0.000 NA
ATOM      4  C   UNL     1      -2.049  13.991  21.115  0.00  0.00    +0.000 C 
ATOM      5  C   UNL     1       0.103  13.075  21.838  0.00  0.00    +0.000 C 
ATOM      6  C   UNL     1       0.992  12.220  20.874  0.00  0.00    +0.000 C 
ATOM      7  C   UNL     1       0.490  12.093  19.441  0.00  0.00    +0.000 A 
ATOM      8  C   UNL     1       0.071  13.290  18.817  0.00  0.00    +0.000 A 
ATOM      9  C   UNL     1      -1.079  13.244  18.026  0.00  0.00    +0.000 A 
ATOM     10  C   UNL     1      -1.719  12.022  17.883  0.00  0.00    +0.000 A 
ATOM     11  C   UNL     1      -1.083  10.829  18.241  0.00  0.00    +0.000 A 
ATOM     12  C   UNL     1       0.161  10.836  18.877  0.00  0.00    +0.000 A 
ENDROOT
BRANCH  12  13
ATOM     13  C   UNL     1       1.122   9.667  18.859  0.00  0.00    +0.000 A 
ATOM     14  C   UNL     1       1.887   9.338  17.734  0.00  0.00    +0.000 A 
ATOM     15  C   UNL     1       2.778   8.252  17.710  0.00  0.00    +0.000 A 
ATOM     16  C   UNL     1       2.809   7.342  18.758  0.00  0.00    +0.000 A 
ATOM     17  C   UNL     1       3.666   6.230  18.722  0.00  0.00    +0.000 A 
ATOM     18  C   UNL     1       3.400   5.134  19.540  0.00  0.00    +0.000 A 
ATOM     19  C   UNL     1       2.427   5.230  20.526  0.00  0.00    +0.000 A 
ATOM     20  C   UNL     1       1.761   6.444  20.734  0.00  0.00    +0.000 A 
ATOM     21  C   UNL     1       1.899   7.507  19.834  0.00  0.00    +0.000 A 
ATOM     22  C   UNL     1       1.143   8.704  19.892  0.00  0.00    +0.000 A 
ENDBRANCH  12  13
BRANCH   1  28
ATOM     23  C   UNL     1       5.020  15.607  21.714  0.00  0.00    +0.000 C 
ATOM     24  C   UNL     1       4.346  15.078  20.481  0.00  0.00    +0.000 A 
ATOM     25  C   UNL     1       5.101  14.721  19.362  0.00  0.00    +0.000 A 
ATOM     26  C   UNL     1       4.467  14.249  18.219  0.00  0.00    +0.000 A 
ATOM     27  C   UNL     1       3.072  14.161  18.169  0.00  0.00    +0.000 A 
ATOM     28  C   UNL     1       2.275  14.560  19.257  0.00  0.00    +0.000 A 
ATOM     29  C   UNL     1       2.945  14.974  20.430  0.00  0.00    +0.000 A 
ENDBRANCH   1  28
BRANCH  10  30
ATOM     30  O   UNL     1      -3.013  11.944  17.444  0.00  0.00    +0.000 OA
ATOM     31  H   UNL     1      -3.548  12.458  18.076  0.00  0.00    +0.000 HD
ENDBRANCH  10  30
BRANCH  11  32
ATOM     32  O   UNL     1      -1.780   9.664  18.040  0.00  0.00    +0.000 OA
ATOM     33  H   UNL     1      -2.271   9.804  17.206  0.00  0.00    +0.000 HD
ENDBRANCH  11  32
TORSDOF 4
ENDMDL
MODEL 5
REMARK VINA RESULT:      -7.3      9.882     13.823
REMARK  Name = 
REMARK  6 active torsions:
REMARK  status: ('A' for Active; 'I' for Inactive)
REMARK    1  A    between atoms: C_1  and  C_2
REMARK    2  A    between atoms: C_6  and  C_7
REMARK    3  A    between atoms: N_9  and  C_10
REMARK    4  A    between atoms: C_16  and  O_17
REMARK    5  A    between atoms: C_18  and  O_19
REMARK    6  A    between atoms: C_20  and  C_21
REMARK                            x       y       z     vdW  Elec       q    Type
REMARK                         _______ _______ _______ _____ _____    ______ ____
ROOT
ATOM      1  C   UNL     1      -5.725  16.377  22.114  0.00  0.00    +0.000 C 
ATOM      2  C   UNL     1      -4.911  17.555  22.730  0.00  0.00    +0.000 C 
ATOM      3  N   UNL     1      -3.466  17.418  22.958  0.00  0.00    +0.000 NA
ATOM      4  C   UNL     1      -3.118  16.895  24.280  0.00  0.00    +0.000 C 
ATOM      5  C   UNL     1      -2.652  16.842  21.878  0.00  0.00    +0.000 C 
ATOM      6  C   UNL     1      -3.116  15.645  20.982  0.00  0.00    +0.000 C 
ATOM      7  C   UNL     1      -3.962  14.584  21.673  0.00  0.00    +0.000 A 
ATOM      8  C   UNL     1      -5.025  15.058  22.476  0.00  0.00    +0.000 A 
ATOM      9  C   UNL     1      -5.255  14.419  23.696  0.00  0.00    +0.000 A 
ATOM     10  C   UNL     1      -4.444  13.343  24.028  0.00  0.00    +0.000 A 
ATOM     11  C   UNL     1      -3.645  12.720  23.064  0.00  0.00    +0.000 A 
ATOM     12  C   UNL     1      -3.534  13.238  21.771  0.00  0.00    +0.000 A 
ENDROOT
BRANCH  12  13
ATOM     13  C   UNL     1      -3.124  12.416  20.568  0.00  0.00    +0.000 A 
ATOM     14  C   UNL     1      -1.799  12.024  20.339  0.00  0.00    +0.000 A 
ATOM     15  C   UNL     1      -1.412  11.265  19.222  0.00  0.00    +0.000 A 
ATOM     16  C   UNL     1      -2.311  11.014  18.194  0.00  0.00    +0.000 A 
ATOM     17  C   UNL     1      -1.919  10.293  17.054  0.00  0.00    +0.000 A 
ATOM     18  C   UNL     1      -2.664  10.408  15.883  0.00  0.00    +0.000 A 
ATOM     19  C   UNL     1      -3.892  11.056  15.906  0.00  0.00    +0.000 A 
ATOM     20  C   UNL     1      -4.403  11.539  17.117  0.00  0.00    +0.000 A 
ATOM     21  C   UNL     1      -3.613  11.573  18.273  0.00  0.00    +0.000 A 
ATOM     22  C   UNL     1      -4.005  12.185  19.489  0.00  0.00    +0.000 A 
ENDBRANCH  12  13
BRANCH   1  28
ATOM     23  C   UNL     1      -7.104  14.084  17.811  0.00  0.00    +0.000 C 
ATOM     24  C   UNL     1      -6.732  15.348  18.529  0.00  0.00    +0.000 A 
ATOM     25  C   UNL     1      -6.551  16.536  17.818  0.00  0.00    +0.000 A 
ATOM     26  C   UNL     1      -6.190  17.699  18.489  0.00  0.00    +0.000 A 
ATOM     27  C   UNL     1      -5.973  17.679  19.871  0.00  0.00    +0.000 A 
ATOM     28  C   UNL     1      -6.095  16.490  20.613  0.00  0.00    +0.000 A 
ATOM     29  C   UNL     1      -6.526  15.338  19.920  0.00  0.00    +0.000 A 
ENDBRANCH   1  28
BRANCH  10  30
ATOM     30  O   UNL     1      -4.350  12.894  25.317  0.00  0.00    +0.000 OA
ATOM     31  H   UNL     1      -4.670  11.973  25.310  0.00  0.00    +0.000 HD
ENDBRANCH  10  30
BRANCH  11  32
ATOM     32  O   UNL     1      -2.895  11.646  23.475  0.00  0.00    +0.000 OA
ATOM     33  H   UNL     1      -3.475  10.870  23.350  0.00  0.00    +0.000 HD
ENDBRANCH  11  32
TORSDOF 4
ENDMDL
MODEL 6
REMARK VINA RESULT:      -7.3      2.156      5.839
REMARK  Name = 
REMARK  6 active torsions:
REMARK  status: ('A' for Active; 'I' for Inactive)
REMARK    1  A    between atoms: C_1  and  C_2
REMARK    2  A    between atoms: C_6  and  C_7
REMARK    3  A    between atoms: N_9  and  C_10
REMARK    4  A    between atoms: C_16  and  O_17
REMARK    5  A    between atoms: C_18  and  O_19
REMARK    6  A    between atoms: C_20  and  C_21
REMARK                            x       y       z     vdW  Elec       q    Type
REMARK                         _______ _______ _______ _____ _____    ______ ____
ROOT
ATOM      1  C   UNL     1       6.627   4.552  17.117  0.00  0.00    +0.000 C 
ATOM      2  C   UNL     1       6.890   4.571  15.581  0.00  0.00    +0.000 C 
ATOM      3  N   UNL     1       5.861   5.071  14.659  0.00  0.00    +0.000 NA
ATOM      4  C   UNL     1       4.942   4.039  14.175  0.00  0.00    +0.000 C 
ATOM      5  C   UNL     1       5.184   6.330  15.002  0.00  0.00    +0.000 C 
ATOM      6  C   UNL     1       4.761   6.722  16.458  0.00  0.00    +0.000 C 
ATOM      7  C   UNL     1       4.300   5.576  17.349  0.00  0.00    +0.000 A 
ATOM      8  C   UNL     1       5.115   4.420  17.352  0.00  0.00    +0.000 A 
ATOM      9  C   UNL     1       4.480   3.176  17.350  0.00  0.00    +0.000 A 
ATOM     10  C   UNL     1       3.093   3.156  17.374  0.00  0.00    +0.000 A 
ATOM     11  C   UNL     1       2.362   4.301  17.705  0.00  0.00    +0.000 A 
ATOM     12  C   UNL     1       2.993   5.534  17.891  0.00  0.00    +0.000 A 
ENDROOT
BRANCH  12  13
ATOM     13  C   UNL     1       2.401   6.669  18.699  0.00  0.00    +0.000 A 
ATOM     14  C   UNL     1       2.038   6.527  20.044  0.00  0.00    +0.000 A 
ATOM     15  C   UNL     1       1.486   7.575  20.798  0.00  0.00    +0.000 A 
ATOM     16  C   UNL     1       1.110   8.763  20.185  0.00  0.00    +0.000 A 
ATOM     17  C   UNL     1       0.517   9.799  20.925  0.00  0.00    +0.000 A 
ATOM     18  C   UNL     1      -0.220  10.777  20.262  0.00  0.00    +0.000 A 
ATOM     19  C   UNL     1      -0.188  10.844  18.875  0.00  0.00    +0.000 A 
ATOM     20  C   UNL     1       0.630   9.966  18.153  0.00  0.00    +0.000 A 
ATOM     21  C   UNL     1       1.258   8.883  18.779  0.00  0.00    +0.000 A 
ATOM     22  C   UNL     1       1.971   7.869  18.093  0.00  0.00    +0.000 A 
ENDBRANCH  12  13
BRANCH   1  28
ATOM     23  C   UNL     1       8.270   9.337  17.416  0.00  0.00    +0.000 C 
ATOM     24  C   UNL     1       8.108   7.992  18.064  0.00  0.00    +0.000 A 
ATOM     25  C   UNL     1       8.701   7.729  19.300  0.00  0.00    +0.000 A 
ATOM     26  C   UNL     1       8.561   6.475  19.884  0.00  0.00    +0.000 A 
ATOM     27  C   UNL     1       7.856   5.463  19.224  0.00  0.00    +0.000 A 
ATOM     28  C   UNL     1       7.288   5.675  17.955  0.00  0.00    +0.000 A 
ATOM     29  C   UNL     1       7.389   6.974  17.413  0.00  0.00    +0.000 A 
ENDBRANCH   1  28
BRANCH  10  30
ATOM     30  O   UNL     1       2.392   2.036  17.018  0.00  0.00    +0.000 OA
ATOM     31  H   UNL     1       2.877   1.278  17.393  0.00  0.00    +0.000 HD
ENDBRANCH  10  30
BRANCH  11  32
ATOM     32  O   UNL     1       0.994   4.183  17.730  0.00  0.00    +0.000 OA
ATOM     33  H   UNL     1       0.781   3.557  17.011  0.00  0.00    +0.000 HD
ENDBRANCH  11  32
TORSDOF 4
ENDMDL
MODEL 7
REMARK VINA RESULT:      -7.2      7.049     11.265
REMARK  Name = 
REMARK  6 active torsions:
REMARK  status: ('A' for Active; 'I' for Inactive)
REMARK    1  A    between atoms: C_1  and  C_2
REMARK    2  A    between atoms: C_6  and  C_7
REMARK    3  A    between atoms: N_9  and  C_10
REMARK    4  A    between atoms: C_16  and  O_17
REMARK    5  A    between atoms: C_18  and  O_19
REMARK    6  A    between atoms: C_20  and  C_21
REMARK                            x       y       z     vdW  Elec       q    Type
REMARK                         _______ _______ _______ _____ _____    ______ ____
ROOT
ATOM      1  C   UNL     1       0.997  12.512  21.134  0.00  0.00    +0.000 C 
ATOM      2  C   UNL     1       2.107  13.417  20.518  0.00  0.00    +0.000 C 
ATOM      3  N   UNL     1       2.026  13.834  19.112  0.00  0.00    +0.000 NA
ATOM      4  C   UNL     1       2.689  12.920  18.181  0.00  0.00    +0.000 C 
ATOM      5  C   UNL     1       0.733  14.326  18.613  0.00  0.00    +0.000 C 
ATOM      6  C   UNL     1      -0.647  13.705  19.013  0.00  0.00    +0.000 C 
ATOM      7  C   UNL     1      -0.663  12.196  19.221  0.00  0.00    +0.000 A 
ATOM      8  C   UNL     1       0.381  11.663  20.012  0.00  0.00    +0.000 A 
ATOM      9  C   UNL     1       0.962  10.462  19.600  0.00  0.00    +0.000 A 
ATOM     10  C   UNL     1       0.459   9.857  18.457  0.00  0.00    +0.000 A 
ATOM     11  C   UNL     1      -0.771  10.246  17.918  0.00  0.00    +0.000 A 
ATOM     12  C   UNL     1      -1.469  11.344  18.428  0.00  0.00    +0.000 A 
ENDROOT
BRANCH  12  13
ATOM     13  C   UNL     1      -2.961  11.541  18.265  0.00  0.00    +0.000 A 
ATOM     14  C   UNL     1      -3.601  11.463  17.022  0.00  0.00    +0.000 A 
ATOM     15  C   UNL     1      -4.984  11.648  16.864  0.00  0.00    +0.000 A 
ATOM     16  C   UNL     1      -5.761  12.095  17.925  0.00  0.00    +0.000 A 
ATOM     17  C   UNL     1      -7.137  12.325  17.763  0.00  0.00    +0.000 A 
ATOM     18  C   UNL     1      -7.805  13.146  18.669  0.00  0.00    +0.000 A 
ATOM     19  C   UNL     1      -7.163  13.556  19.831  0.00  0.00    +0.000 A 
ATOM     20  C   UNL     1      -5.872  13.095  20.115  0.00  0.00    +0.000 A 
ATOM     21  C   UNL     1      -5.126  12.397  19.158  0.00  0.00    +0.000 A 
ATOM     22  C   UNL     1      -3.766  12.035  19.315  0.00  0.00    +0.000 A 
ENDBRANCH  12  13
BRANCH   1  28
ATOM     23  C   UNL     1      -0.464  16.632  23.698  0.00  0.00    +0.000 C 
ATOM     24  C   UNL     1      -0.726  15.209  23.299  0.00  0.00    +0.000 A 
ATOM     25  C   UNL     1      -1.780  14.497  23.874  0.00  0.00    +0.000 A 
ATOM     26  C   UNL     1      -2.005  13.174  23.511  0.00  0.00    +0.000 A 
ATOM     27  C   UNL     1      -1.158  12.539  22.596  0.00  0.00    +0.000 A 
ATOM     28  C   UNL     1      -0.055  13.207  22.035  0.00  0.00    +0.000 A 
ATOM     29  C   UNL     1       0.113  14.569  22.369  0.00  0.00    +0.000 A 
ENDBRANCH   1  28
BRANCH  10  30
ATOM     30  O   UNL     1       1.173   8.902  17.786  0.00  0.00    +0.000 OA
ATOM     31  H   UNL     1       1.770   8.495  18.441  0.00  0.00    +0.000 HD
ENDBRANCH  10  30
BRANCH  11  32
ATOM     32  O   UNL     1      -1.204   9.575  16.802  0.00  0.00    +0.000 OA
ATOM     33  H   UNL     1      -1.781  10.209  16.334  0.00  0.00    +0.000 HD
ENDBRANCH  11  32
TORSDOF 4
ENDMDL
MODEL 8
REMARK VINA RESULT:      -7.2      8.685     12.182
REMARK  Name = 
REMARK  6 active torsions:
REMARK  status: ('A' for Active; 'I' for Inactive)
REMARK    1  A    between atoms: C_1  and  C_2
REMARK    2  A    between atoms: C_6  and  C_7
REMARK    3  A    between atoms: N_9  and  C_10
REMARK    4  A    between atoms: C_16  and  O_17
REMARK    5  A    between atoms: C_18  and  O_19
REMARK    6  A    between atoms: C_20  and  C_21
REMARK                            x       y       z     vdW  Elec       q    Type
REMARK                         _______ _______ _______ _____ _____    ______ ____
ROOT
ATOM      1  C   UNL     1      -1.033  12.379  22.886  0.00  0.00    +0.000 C 
ATOM      2  C   UNL     1      -2.394  11.680  23.184  0.00  0.00    +0.000 C 
ATOM      3  N   UNL     1      -3.660  12.367  22.890  0.00  0.00    +0.000 NA
ATOM      4  C   UNL     1      -4.179  13.163  24.003  0.00  0.00    +0.000 C 
ATOM      5  C   UNL     1      -3.790  13.042  21.590  0.00  0.00    +0.000 C 
ATOM      6  C   UNL     1      -2.633  13.846  20.908  0.00  0.00    +0.000 C 
ATOM      7  C   UNL     1      -1.709  14.611  21.846  0.00  0.00    +0.000 A 
ATOM      8  C   UNL     1      -1.235  13.899  22.973  0.00  0.00    +0.000 A 
ATOM      9  C   UNL     1      -1.177  14.576  24.193  0.00  0.00    +0.000 A 
ATOM     10  C   UNL     1      -1.562  15.910  24.214  0.00  0.00    +0.000 A 
ATOM     11  C   UNL     1      -1.697  16.638  23.029  0.00  0.00    +0.000 A 
ATOM     12  C   UNL     1      -1.581  16.019  21.782  0.00  0.00    +0.000 A 
ENDROOT
BRANCH  12  13
ATOM     13  C   UNL     1      -1.227  16.755  20.507  0.00  0.00    +0.000 A 
ATOM     14  C   UNL     1      -2.198  17.272  19.640  0.00  0.00    +0.000 A 
ATOM     15  C   UNL     1      -1.875  17.952  18.454  0.00  0.00    +0.000 A 
ATOM     16  C   UNL     1      -0.564  17.989  17.997  0.00  0.00    +0.000 A 
ATOM     17  C   UNL     1      -0.240  18.629  16.790  0.00  0.00    +0.000 A 
ATOM     18  C   UNL     1       0.952  18.310  16.145  0.00  0.00    +0.000 A 
ATOM     19  C   UNL     1       1.901  17.530  16.794  0.00  0.00    +0.000 A 
ATOM     20  C   UNL     1       1.680  17.118  18.114  0.00  0.00    +0.000 A 
ATOM     21  C   UNL     1       0.435  17.295  18.728  0.00  0.00    +0.000 A 
ATOM     22  C   UNL     1       0.090  16.770  19.998  0.00  0.00    +0.000 A 
ENDBRANCH  12  13
BRANCH   1  28
ATOM     23  C   UNL     1       2.451  13.365  19.341  0.00  0.00    +0.000 C 
ATOM     24  C   UNL     1       1.396  12.445  19.883  0.00  0.00    +0.000 A 
ATOM     25  C   UNL     1       0.996  11.323  19.155  0.00  0.00    +0.000 A 
ATOM     26  C   UNL     1       0.006  10.486  19.656  0.00  0.00    +0.000 A 
ATOM     27  C   UNL     1      -0.617  10.779  20.874  0.00  0.00    +0.000 A 
ATOM     28  C   UNL     1      -0.277  11.927  21.611  0.00  0.00    +0.000 A 
ATOM     29  C   UNL     1       0.776  12.725  21.113  0.00  0.00    +0.000 A 
ENDBRANCH   1  28
BRANCH  10  30
ATOM     30  O   UNL     1      -1.880  16.539  25.387  0.00  0.00    +0.000 OA
ATOM     31  H   UNL     1      -2.755  16.200  25.651  0.00  0.00    +0.000 HD
ENDBRANCH  10  30
BRANCH  11  32
ATOM     32  O   UNL     1      -2.054  17.959  23.145  0.00  0.00    +0.000 OA
ATOM     33  H   UNL     1      -2.628  18.134  22.373  0.00  0.00    +0.000 HD
ENDBRANCH  11  32
TORSDOF 4
ENDMDL
MODEL 9
REMARK VINA RESULT:      -7.2      7.904     11.528
REMARK  Name = 
REMARK  6 active torsions:
REMARK  status: ('A' for Active; 'I' for Inactive)
REMARK    1  A    between atoms: C_1  and  C_2
REMARK    2  A    between atoms: C_6  and  C_7
REMARK    3  A    between atoms: N_9  and  C_10
REMARK    4  A    between atoms: C_16  and  O_17
REMARK    5  A    between atoms: C_18  and  O_19
REMARK    6  A    between atoms: C_20  and  C_21
REMARK                            x       y       z     vdW  Elec       q    Type
REMARK                         _______ _______ _______ _____ _____    ______ ____
ROOT
ATOM      1  C   UNL     1       9.723  15.002  17.787  0.00  0.00    +0.000 C 
ATOM      2  C   UNL     1      10.645  16.198  17.398  0.00  0.00    +0.000 C 
ATOM      3  N   UNL     1      10.789  17.347  18.302  0.00  0.00    +0.000 NA
ATOM      4  C   UNL     1       9.820  18.418  18.063  0.00  0.00    +0.000 C 
ATOM      5  C   UNL     1      11.005  17.074  19.731  0.00  0.00    +0.000 C 
ATOM      6  C   UNL     1      10.284  15.928  20.517  0.00  0.00    +0.000 C 
ATOM      7  C   UNL     1       8.849  15.634  20.100  0.00  0.00    +0.000 A 
ATOM      8  C   UNL     1       8.612  15.523  18.711  0.00  0.00    +0.000 A 
ATOM      9  C   UNL     1       7.446  16.098  18.201  0.00  0.00    +0.000 A 
ATOM     10  C   UNL     1       6.584  16.717  19.095  0.00  0.00    +0.000 A 
ATOM     11  C   UNL     1       6.701  16.506  20.472  0.00  0.00    +0.000 A 
ATOM     12  C   UNL     1       7.768  15.776  21.004  0.00  0.00    +0.000 A 
ENDROOT
BRANCH  12  13
ATOM     13  C   UNL     1       7.730  15.093  22.354  0.00  0.00    +0.000 A 
ATOM     14  C   UNL     1       8.699  15.318  23.340  0.00  0.00    +0.000 A 
ATOM     15  C   UNL     1       8.671  14.685  24.593  0.00  0.00    +0.000 A 
ATOM     16  C   UNL     1       7.764  13.664  24.847  0.00  0.00    +0.000 A 
ATOM     17  C   UNL     1       7.759  12.996  26.083  0.00  0.00    +0.000 A 
ATOM     18  C   UNL     1       7.164  11.740  26.179  0.00  0.00    +0.000 A 
ATOM     19  C   UNL     1       6.404  11.254  25.124  0.00  0.00    +0.000 A 
ATOM     20  C   UNL     1       6.190  12.052  23.993  0.00  0.00    +0.000 A 
ATOM     21  C   UNL     1       6.896  13.246  23.806  0.00  0.00    +0.000 A 
ATOM     22  C   UNL     1       6.848  14.024  22.623  0.00  0.00    +0.000 A 
ENDBRANCH  12  13
BRANCH   1  28
ATOM     23  C   UNL     1       9.333  10.220  19.417  0.00  0.00    +0.000 C 
ATOM     24  C   UNL     1      10.199  11.413  19.135  0.00  0.00    +0.000 A 
ATOM     25  C   UNL     1      11.543  11.415  19.513  0.00  0.00    +0.000 A 
ATOM     26  C   UNL     1      12.333  12.531  19.264  0.00  0.00    +0.000 A 
ATOM     27  C   UNL     1      11.781  13.668  18.664  0.00  0.00    +0.000 A 
ATOM     28  C   UNL     1      10.420  13.723  18.315  0.00  0.00    +0.000 A 
ATOM     29  C   UNL     1       9.654  12.554  18.519  0.00  0.00    +0.000 A 
ENDBRANCH   1  28
BRANCH  10  30
ATOM     30  O   UNL     1       5.630  17.600  18.667  0.00  0.00    +0.000 OA
ATOM     31  H   UNL     1       5.966  18.490  18.878  0.00  0.00    +0.000 HD
ENDBRANCH  10  30
BRANCH  11  32
ATOM     32  O   UNL     1       5.789  17.137  21.281  0.00  0.00    +0.000 OA
ATOM     33  H   UNL     1       6.254  17.928  21.617  0.00  0.00    +0.000 HD
ENDBRANCH  11  32
TORSDOF 4
ENDMDL
