MODEL 1
REMARK VINA RESULT:      -6.5      0.000      0.000
REMARK  Name = 
REMARK  9 active torsions:
REMARK  status: ('A' for Active; 'I' for Inactive)
REMARK    1  A    between atoms: C_1  and  O_2
REMARK    2  A    between atoms: O_2  and  C_3
REMARK    3  A    between atoms: C_6  and  N_7
REMARK    4  A    between atoms: C_8  and  C_10
REMARK    5  A    between atoms: C_10  and  C_11
REMARK    6  A    between atoms: C_11  and  C_12
REMARK    7  A    between atoms: N_14  and  C_15
REMARK    8  A    between atoms: C_15  and  C_16
REMARK    9  A    between atoms: C_16  and  O_17
REMARK                            x       y       z     vdW  Elec       q    Type
REMARK                         _______ _______ _______ _____ _____    ______ ____
ROOT
ATOM      1  N   UNL     1       4.627   3.171  16.661  0.00  0.00    +0.000 N 
ATOM      2  C   UNL     1       5.040   4.246  15.897  0.00  0.00    +0.000 C 
ATOM      3  O   UNL     1       4.648   5.406  15.990  0.00  0.00    +0.000 OA
ATOM      4  H   UNL     1       5.073   2.279  16.484  0.00  0.00    +0.000 HD
ENDROOT
BRANCH   1   8
ATOM      5  C   UNL     1       1.781   3.220  19.796  0.00  0.00    +0.000 A 
ATOM      6  C   UNL     1       3.131   3.064  20.092  0.00  0.00    +0.000 A 
ATOM      7  C   UNL     1       4.090   3.068  19.076  0.00  0.00    +0.000 A 
ATOM      8  C   UNL     1       3.712   3.200  17.740  0.00  0.00    +0.000 A 
ATOM      9  C   UNL     1       2.350   3.346  17.444  0.00  0.00    +0.000 A 
ATOM     10  C   UNL     1       1.388   3.358  18.468  0.00  0.00    +0.000 A 
BRANCH   5  12
ATOM     11  C   UNL     1       1.444   2.500  22.026  0.00  0.00    +0.000 C 
ATOM     12  O   UNL     1       0.946   3.173  20.877  0.00  0.00    +0.000 OA
ENDBRANCH   5  12
ENDBRANCH   1   8
BRANCH   2  13
ATOM     13  C   UNL     1       6.093   3.896  14.861  0.00  0.00    +0.000 C 
BRANCH  13  14
ATOM     14  C   UNL     1       7.251   4.883  14.972  0.00  0.00    +0.000 C 
BRANCH  14  15
ATOM     15  C   UNL     1       7.648   5.082  16.421  0.00  0.00    +0.000 C 
ATOM     16  O   UNL     1       8.138   4.187  17.101  0.00  0.00    +0.000 OA
ATOM     17  N   UNL     1       7.452   6.364  16.880  0.00  0.00    +0.000 N 
ATOM     18  H   UNL     1       6.972   7.037  16.294  0.00  0.00    +0.000 HD
BRANCH  17  19
ATOM     19  C   UNL     1       7.690   6.723  18.270  0.00  0.00    +0.000 C 
BRANCH  19  20
ATOM     20  C   UNL     1       7.026   5.741  19.231  0.00  0.00    +0.000 C 
BRANCH  20  21
ATOM     21  O   UNL     1       7.945   5.361  20.255  0.00  0.00    +0.000 OA
ATOM     22  H   UNL     1       8.792   5.779  20.021  0.00  0.00    +0.000 HD
ENDBRANCH  20  21
ENDBRANCH  19  20
ENDBRANCH  17  19
ENDBRANCH  14  15
ENDBRANCH  13  14
ENDBRANCH   2  13
TORSDOF 8
ENDMDL
MODEL 2
REMARK VINA RESULT:      -6.5      4.182      5.074
REMARK  Name = 
REMARK  9 active torsions:
REMARK  status: ('A' for Active; 'I' for Inactive)
REMARK    1  A    between atoms: C_1  and  O_2
REMARK    2  A    between atoms: O_2  and  C_3
REMARK    3  A    between atoms: C_6  and  N_7
REMARK    4  A    between atoms: C_8  and  C_10
REMARK    5  A    between atoms: C_10  and  C_11
REMARK    6  A    between atoms: C_11  and  C_12
REMARK    7  A    between atoms: N_14  and  C_15
REMARK    8  A    between atoms: C_15  and  C_16
REMARK    9  A    between atoms: C_16  and  O_17
REMARK                            x       y       z     vdW  Elec       q    Type
REMARK                         _______ _______ _______ _____ _____    ______ ____
ROOT
ATOM      1  N   UNL     1       3.131   6.106  19.154  0.00  0.00    +0.000 N 
ATOM      2  C   UNL     1       2.621   4.836  19.341  0.00  0.00    +0.000 C 
ATOM      3  O   UNL     1       1.445   4.539  19.544  0.00  0.00    +0.000 OA
ATOM      4  H   UNL     1       4.122   6.182  18.962  0.00  0.00    +0.000 HD
ENDROOT
BRANCH   1   8
ATOM      5  C   UNL     1       0.955   9.739  19.149  0.00  0.00    +0.000 A 
ATOM      6  C   UNL     1       1.535   9.281  17.971  0.00  0.00    +0.000 A 
ATOM      7  C   UNL     1       2.239   8.074  17.944  0.00  0.00    +0.000 A 
ATOM      8  C   UNL     1       2.398   7.315  19.104  0.00  0.00    +0.000 A 
ATOM      9  C   UNL     1       1.821   7.786  20.291  0.00  0.00    +0.000 A 
ATOM     10  C   UNL     1       1.101   8.991  20.314  0.00  0.00    +0.000 A 
BRANCH   5  12
ATOM     11  C   UNL     1      -1.014  10.909  18.550  0.00  0.00    +0.000 C 
ATOM     12  O   UNL     1       0.319  10.944  19.046  0.00  0.00    +0.000 OA
ENDBRANCH   5  12
ENDBRANCH   1   8
BRANCH   2  13
ATOM     13  C   UNL     1       3.664   3.736  19.267  0.00  0.00    +0.000 C 
BRANCH  13  14
ATOM     14  C   UNL     1       4.101   3.559  17.817  0.00  0.00    +0.000 C 
BRANCH  14  15
ATOM     15  C   UNL     1       5.301   4.432  17.509  0.00  0.00    +0.000 C 
ATOM     16  O   UNL     1       5.264   5.339  16.683  0.00  0.00    +0.000 OA
ATOM     17  N   UNL     1       6.409   4.144  18.272  0.00  0.00    +0.000 N 
ATOM     18  H   UNL     1       6.400   3.335  18.881  0.00  0.00    +0.000 HD
BRANCH  17  19
ATOM     19  C   UNL     1       7.681   4.817  18.057  0.00  0.00    +0.000 C 
BRANCH  19  20
ATOM     20  C   UNL     1       7.890   5.965  19.042  0.00  0.00    +0.000 C 
BRANCH  20  21
ATOM     21  O   UNL     1       7.934   5.462  20.376  0.00  0.00    +0.000 OA
ATOM     22  H   UNL     1       8.875   5.452  20.627  0.00  0.00    +0.000 HD
ENDBRANCH  20  21
ENDBRANCH  19  20
ENDBRANCH  17  19
ENDBRANCH  14  15
ENDBRANCH  13  14
ENDBRANCH   2  13
TORSDOF 8
ENDMDL
MODEL 3
REMARK VINA RESULT:      -6.5      4.309      5.164
REMARK  Name = 
REMARK  9 active torsions:
REMARK  status: ('A' for Active; 'I' for Inactive)
REMARK    1  A    between atoms: C_1  and  O_2
REMARK    2  A    between atoms: O_2  and  C_3
REMARK    3  A    between atoms: C_6  and  N_7
REMARK    4  A    between atoms: C_8  and  C_10
REMARK    5  A    between atoms: C_10  and  C_11
REMARK    6  A    between atoms: C_11  and  C_12
REMARK    7  A    between atoms: N_14  and  C_15
REMARK    8  A    between atoms: C_15  and  C_16
REMARK    9  A    between atoms: C_16  and  O_17
REMARK                            x       y       z     vdW  Elec       q    Type
REMARK                         _______ _______ _______ _____ _____    ______ ____
ROOT
ATOM      1  N   UNL     1       3.002   6.162  19.783  0.00  0.00    +0.000 N 
ATOM      2  C   UNL     1       2.659   4.918  19.289  0.00  0.00    +0.000 C 
ATOM      3  O   UNL     1       1.668   4.644  18.616  0.00  0.00    +0.000 OA
ATOM      4  H   UNL     1       3.874   6.232  20.293  0.00  0.00    +0.000 HD
ENDROOT
BRANCH   1   8
ATOM      5  C   UNL     1       0.940   9.778  19.003  0.00  0.00    +0.000 A 
ATOM      6  C   UNL     1       0.871   9.203  20.268  0.00  0.00    +0.000 A 
ATOM      7  C   UNL     1       1.561   8.022  20.554  0.00  0.00    +0.000 A 
ATOM      8  C   UNL     1       2.313   7.379  19.571  0.00  0.00    +0.000 A 
ATOM      9  C   UNL     1       2.371   7.955  18.295  0.00  0.00    +0.000 A 
ATOM     10  C   UNL     1       1.690   9.150  18.012  0.00  0.00    +0.000 A 
BRANCH   5  12
ATOM     11  C   UNL     1      -1.095  10.907  19.436  0.00  0.00    +0.000 C 
ATOM     12  O   UNL     1       0.199  10.915  18.847  0.00  0.00    +0.000 OA
ENDBRANCH   5  12
ENDBRANCH   1   8
BRANCH   2  13
ATOM     13  C   UNL     1       3.650   3.823  19.634  0.00  0.00    +0.000 C 
BRANCH  13  14
ATOM     14  C   UNL     1       4.083   3.117  18.353  0.00  0.00    +0.000 C 
BRANCH  14  15
ATOM     15  C   UNL     1       5.126   3.935  17.618  0.00  0.00    +0.000 C 
ATOM     16  O   UNL     1       4.911   4.455  16.528  0.00  0.00    +0.000 OA
ATOM     17  N   UNL     1       6.309   4.075  18.307  0.00  0.00    +0.000 N 
ATOM     18  H   UNL     1       6.452   3.557  19.165  0.00  0.00    +0.000 HD
BRANCH  17  19
ATOM     19  C   UNL     1       7.458   4.750  17.722  0.00  0.00    +0.000 C 
BRANCH  19  20
ATOM     20  C   UNL     1       7.389   6.262  17.918  0.00  0.00    +0.000 C 
BRANCH  20  21
ATOM     21  O   UNL     1       6.883   6.887  16.739  0.00  0.00    +0.000 OA
ATOM     22  H   UNL     1       6.984   6.232  16.026  0.00  0.00    +0.000 HD
ENDBRANCH  20  21
ENDBRANCH  19  20
ENDBRANCH  17  19
ENDBRANCH  14  15
ENDBRANCH  13  14
ENDBRANCH   2  13
TORSDOF 8
ENDMDL
MODEL 4
REMARK VINA RESULT:      -6.5      2.522      6.246
REMARK  Name = 
REMARK  9 active torsions:
REMARK  status: ('A' for Active; 'I' for Inactive)
REMARK    1  A    between atoms: C_1  and  O_2
REMARK    2  A    between atoms: O_2  and  C_3
REMARK    3  A    between atoms: C_6  and  N_7
REMARK    4  A    between atoms: C_8  and  C_10
REMARK    5  A    between atoms: C_10  and  C_11
REMARK    6  A    between atoms: C_11  and  C_12
REMARK    7  A    between atoms: N_14  and  C_15
REMARK    8  A    between atoms: C_15  and  C_16
REMARK    9  A    between atoms: C_16  and  O_17
REMARK                            x       y       z     vdW  Elec       q    Type
REMARK                         _______ _______ _______ _____ _____    ______ ____
ROOT
ATOM      1  N   UNL     1       3.673   3.466  18.929  0.00  0.00    +0.000 N 
ATOM      2  C   UNL     1       3.902   2.606  19.986  0.00  0.00    +0.000 C 
ATOM      3  O   UNL     1       4.970   2.076  20.283  0.00  0.00    +0.000 OA
ATOM      4  H   UNL     1       2.740   3.848  18.838  0.00  0.00    +0.000 HD
ENDROOT
BRANCH   1   8
ATOM      5  C   UNL     1       6.644   4.917  16.282  0.00  0.00    +0.000 A 
ATOM      6  C   UNL     1       5.492   4.328  15.771  0.00  0.00    +0.000 A 
ATOM      7  C   UNL     1       4.488   3.862  16.625  0.00  0.00    +0.000 A 
ATOM      8  C   UNL     1       4.632   3.953  18.009  0.00  0.00    +0.000 A 
ATOM      9  C   UNL     1       5.798   4.536  18.521  0.00  0.00    +0.000 A 
ATOM     10  C   UNL     1       6.799   5.018  17.662  0.00  0.00    +0.000 A 
BRANCH   5  12
ATOM     11  C   UNL     1       7.274   4.931  14.001  0.00  0.00    +0.000 C 
ATOM     12  O   UNL     1       7.557   5.305  15.344  0.00  0.00    +0.000 OA
ENDBRANCH   5  12
ENDBRANCH   1   8
BRANCH   2  13
ATOM     13  C   UNL     1       2.674   2.334  20.836  0.00  0.00    +0.000 C 
BRANCH  13  14
ATOM     14  C   UNL     1       2.368   3.567  21.680  0.00  0.00    +0.000 C 
BRANCH  14  15
ATOM     15  C   UNL     1       1.719   4.646  20.837  0.00  0.00    +0.000 C 
ATOM     16  O   UNL     1       0.735   4.436  20.136  0.00  0.00    +0.000 OA
ATOM     17  N   UNL     1       2.307   5.883  20.970  0.00  0.00    +0.000 N 
ATOM     18  H   UNL     1       3.163   5.975  21.503  0.00  0.00    +0.000 HD
BRANCH  17  19
ATOM     19  C   UNL     1       1.879   7.022  20.170  0.00  0.00    +0.000 C 
BRANCH  19  20
ATOM     20  C   UNL     1       2.634   7.101  18.845  0.00  0.00    +0.000 C 
BRANCH  20  21
ATOM     21  O   UNL     1       2.114   6.138  17.928  0.00  0.00    +0.000 OA
ATOM     22  H   UNL     1       1.257   6.491  17.630  0.00  0.00    +0.000 HD
ENDBRANCH  20  21
ENDBRANCH  19  20
ENDBRANCH  17  19
ENDBRANCH  14  15
ENDBRANCH  13  14
ENDBRANCH   2  13
TORSDOF 8
ENDMDL
MODEL 5
REMARK VINA RESULT:      -6.4      4.395      5.307
REMARK  Name = 
REMARK  9 active torsions:
REMARK  status: ('A' for Active; 'I' for Inactive)
REMARK    1  A    between atoms: C_1  and  O_2
REMARK    2  A    between atoms: O_2  and  C_3
REMARK    3  A    between atoms: C_6  and  N_7
REMARK    4  A    between atoms: C_8  and  C_10
REMARK    5  A    between atoms: C_10  and  C_11
REMARK    6  A    between atoms: C_11  and  C_12
REMARK    7  A    between atoms: N_14  and  C_15
REMARK    8  A    between atoms: C_15  and  C_16
REMARK    9  A    between atoms: C_16  and  O_17
REMARK                            x       y       z     vdW  Elec       q    Type
REMARK                         _______ _______ _______ _____ _____    ______ ____
ROOT
ATOM      1  N   UNL     1       2.908   6.257  19.842  0.00  0.00    +0.000 N 
ATOM      2  C   UNL     1       2.698   5.035  19.234  0.00  0.00    +0.000 C 
ATOM      3  O   UNL     1       1.843   4.771  18.391  0.00  0.00    +0.000 OA
ATOM      4  H   UNL     1       3.680   6.323  20.494  0.00  0.00    +0.000 HD
ENDROOT
BRANCH   1   8
ATOM      5  C   UNL     1       0.845   9.900  19.198  0.00  0.00    +0.000 A 
ATOM      6  C   UNL     1       1.564   9.320  18.158  0.00  0.00    +0.000 A 
ATOM      7  C   UNL     1       2.234   8.108  18.341  0.00  0.00    +0.000 A 
ATOM      8  C   UNL     1       2.219   7.465  19.579  0.00  0.00    +0.000 A 
ATOM      9  C   UNL     1       1.503   8.057  20.627  0.00  0.00    +0.000 A 
ATOM     10  C   UNL     1       0.817   9.267  20.438  0.00  0.00    +0.000 A 
BRANCH   5  12
ATOM     11  C   UNL     1      -1.117  11.048  18.539  0.00  0.00    +0.000 C 
ATOM     12  O   UNL     1       0.259  11.096  18.896  0.00  0.00    +0.000 OA
ENDBRANCH   5  12
ENDBRANCH   1   8
BRANCH   2  13
ATOM     13  C   UNL     1       3.658   3.949  19.686  0.00  0.00    +0.000 C 
BRANCH  13  14
ATOM     14  C   UNL     1       4.067   3.110  18.480  0.00  0.00    +0.000 C 
BRANCH  14  15
ATOM     15  C   UNL     1       5.107   3.835  17.651  0.00  0.00    +0.000 C 
ATOM     16  O   UNL     1       4.902   4.190  16.495  0.00  0.00    +0.000 OA
ATOM     17  N   UNL     1       6.275   4.096  18.330  0.00  0.00    +0.000 N 
ATOM     18  H   UNL     1       6.412   3.708  19.256  0.00  0.00    +0.000 HD
BRANCH  17  19
ATOM     19  C   UNL     1       7.423   4.703  17.672  0.00  0.00    +0.000 C 
BRANCH  19  20
ATOM     20  C   UNL     1       7.477   6.211  17.904  0.00  0.00    +0.000 C 
BRANCH  20  21
ATOM     21  O   UNL     1       7.642   6.892  16.660  0.00  0.00    +0.000 OA
ATOM     22  H   UNL     1       8.282   6.365  16.151  0.00  0.00    +0.000 HD
ENDBRANCH  20  21
ENDBRANCH  19  20
ENDBRANCH  17  19
ENDBRANCH  14  15
ENDBRANCH  13  14
ENDBRANCH   2  13
TORSDOF 8
ENDMDL
MODEL 6
REMARK VINA RESULT:      -6.4      3.620      4.525
REMARK  Name = 
REMARK  9 active torsions:
REMARK  status: ('A' for Active; 'I' for Inactive)
REMARK    1  A    between atoms: C_1  and  O_2
REMARK    2  A    between atoms: O_2  and  C_3
REMARK    3  A    between atoms: C_6  and  N_7
REMARK    4  A    between atoms: C_8  and  C_10
REMARK    5  A    between atoms: C_10  and  C_11
REMARK    6  A    between atoms: C_11  and  C_12
REMARK    7  A    between atoms: N_14  and  C_15
REMARK    8  A    between atoms: C_15  and  C_16
REMARK    9  A    between atoms: C_16  and  O_17
REMARK                            x       y       z     vdW  Elec       q    Type
REMARK                         _______ _______ _______ _____ _____    ______ ____
ROOT
ATOM      1  N   UNL     1       6.089   6.156  18.477  0.00  0.00    +0.000 N 
ATOM      2  C   UNL     1       6.756   6.893  17.518  0.00  0.00    +0.000 C 
ATOM      3  O   UNL     1       6.431   7.033  16.341  0.00  0.00    +0.000 OA
ATOM      4  H   UNL     1       6.468   6.168  19.416  0.00  0.00    +0.000 HD
ENDROOT
BRANCH   1   8
ATOM      5  C   UNL     1       2.377   4.191  17.935  0.00  0.00    +0.000 A 
ATOM      6  C   UNL     1       3.549   3.445  18.010  0.00  0.00    +0.000 A 
ATOM      7  C   UNL     1       4.782   4.070  18.211  0.00  0.00    +0.000 A 
ATOM      8  C   UNL     1       4.869   5.458  18.313  0.00  0.00    +0.000 A 
ATOM      9  C   UNL     1       3.688   6.208  18.226  0.00  0.00    +0.000 A 
ATOM     10  C   UNL     1       2.447   5.578  18.040  0.00  0.00    +0.000 A 
BRANCH   5  12
ATOM     11  C   UNL     1       0.975   2.419  18.639  0.00  0.00    +0.000 C 
ATOM     12  O   UNL     1       1.244   3.462  17.711  0.00  0.00    +0.000 OA
ENDBRANCH   5  12
ENDBRANCH   1   8
BRANCH   2  13
ATOM     13  C   UNL     1       8.004   7.587  18.032  0.00  0.00    +0.000 C 
BRANCH  13  14
ATOM     14  C   UNL     1       7.974   9.051  17.607  0.00  0.00    +0.000 C 
BRANCH  14  15
ATOM     15  C   UNL     1       8.832   9.894  18.529  0.00  0.00    +0.000 C 
ATOM     16  O   UNL     1       9.110   9.549  19.673  0.00  0.00    +0.000 OA
ATOM     17  N   UNL     1       9.303  11.049  17.948  0.00  0.00    +0.000 N 
ATOM     18  H   UNL     1       8.975  11.316  17.028  0.00  0.00    +0.000 HD
BRANCH  17  19
ATOM     19  C   UNL     1      10.068  12.029  18.707  0.00  0.00    +0.000 C 
BRANCH  19  20
ATOM     20  C   UNL     1      11.567  11.742  18.654  0.00  0.00    +0.000 C 
BRANCH  20  21
ATOM     21  O   UNL     1      11.991  11.600  17.299  0.00  0.00    +0.000 OA
ATOM     22  H   UNL     1      11.725  10.703  17.029  0.00  0.00    +0.000 HD
ENDBRANCH  20  21
ENDBRANCH  19  20
ENDBRANCH  17  19
ENDBRANCH  14  15
ENDBRANCH  13  14
ENDBRANCH   2  13
TORSDOF 8
ENDMDL
MODEL 7
REMARK VINA RESULT:      -6.4      4.210      5.011
REMARK  Name = 
REMARK  9 active torsions:
REMARK  status: ('A' for Active; 'I' for Inactive)
REMARK    1  A    between atoms: C_1  and  O_2
REMARK    2  A    between atoms: O_2  and  C_3
REMARK    3  A    between atoms: C_6  and  N_7
REMARK    4  A    between atoms: C_8  and  C_10
REMARK    5  A    between atoms: C_10  and  C_11
REMARK    6  A    between atoms: C_11  and  C_12
REMARK    7  A    between atoms: N_14  and  C_15
REMARK    8  A    between atoms: C_15  and  C_16
REMARK    9  A    between atoms: C_16  and  O_17
REMARK                            x       y       z     vdW  Elec       q    Type
REMARK                         _______ _______ _______ _____ _____    ______ ____
ROOT
ATOM      1  N   UNL     1       3.119   6.000  19.091  0.00  0.00    +0.000 N 
ATOM      2  C   UNL     1       2.696   4.778  19.577  0.00  0.00    +0.000 C 
ATOM      3  O   UNL     1       1.657   4.553  20.192  0.00  0.00    +0.000 OA
ATOM      4  H   UNL     1       3.988   6.015  18.571  0.00  0.00    +0.000 HD
ENDROOT
BRANCH   1   8
ATOM      5  C   UNL     1       0.993   9.662  19.139  0.00  0.00    +0.000 A 
ATOM      6  C   UNL     1       1.163   8.947  20.320  0.00  0.00    +0.000 A 
ATOM      7  C   UNL     1       1.880   7.748  20.332  0.00  0.00    +0.000 A 
ATOM      8  C   UNL     1       2.418   7.227  19.155  0.00  0.00    +0.000 A 
ATOM      9  C   UNL     1       2.235   7.945  17.965  0.00  0.00    +0.000 A 
ATOM     10  C   UNL     1       1.528   9.158  17.957  0.00  0.00    +0.000 A 
BRANCH   5  12
ATOM     11  C   UNL     1       0.833  11.852  20.022  0.00  0.00    +0.000 C 
ATOM     12  O   UNL     1       0.251  10.803  19.259  0.00  0.00    +0.000 OA
ENDBRANCH   5  12
ENDBRANCH   1   8
BRANCH   2  13
ATOM     13  C   UNL     1       3.648   3.634  19.280  0.00  0.00    +0.000 C 
BRANCH  13  14
ATOM     14  C   UNL     1       3.973   3.627  17.790  0.00  0.00    +0.000 C 
BRANCH  14  15
ATOM     15  C   UNL     1       5.209   4.457  17.507  0.00  0.00    +0.000 C 
ATOM     16  O   UNL     1       5.219   5.370  16.687  0.00  0.00    +0.000 OA
ATOM     17  N   UNL     1       6.293   4.122  18.285  0.00  0.00    +0.000 N 
ATOM     18  H   UNL     1       6.244   3.309  18.888  0.00  0.00    +0.000 HD
BRANCH  17  19
ATOM     19  C   UNL     1       7.593   4.748  18.094  0.00  0.00    +0.000 C 
BRANCH  19  20
ATOM     20  C   UNL     1       7.801   5.926  19.042  0.00  0.00    +0.000 C 
BRANCH  20  21
ATOM     21  O   UNL     1       7.925   5.458  20.385  0.00  0.00    +0.000 OA
ATOM     22  H   UNL     1       7.884   4.487  20.333  0.00  0.00    +0.000 HD
ENDBRANCH  20  21
ENDBRANCH  19  20
ENDBRANCH  17  19
ENDBRANCH  14  15
ENDBRANCH  13  14
ENDBRANCH   2  13
TORSDOF 8
ENDMDL
MODEL 8
REMARK VINA RESULT:      -6.4      2.682      4.298
REMARK  Name = 
REMARK  9 active torsions:
REMARK  status: ('A' for Active; 'I' for Inactive)
REMARK    1  A    between atoms: C_1  and  O_2
REMARK    2  A    between atoms: O_2  and  C_3
REMARK    3  A    between atoms: C_6  and  N_7
REMARK    4  A    between atoms: C_8  and  C_10
REMARK    5  A    between atoms: C_10  and  C_11
REMARK    6  A    between atoms: C_11  and  C_12
REMARK    7  A    between atoms: N_14  and  C_15
REMARK    8  A    between atoms: C_15  and  C_16
REMARK    9  A    between atoms: C_16  and  O_17
REMARK                            x       y       z     vdW  Elec       q    Type
REMARK                         _______ _______ _______ _____ _____    ______ ____
ROOT
ATOM      1  N   UNL     1       4.458   5.449  16.824  0.00  0.00    +0.000 N 
ATOM      2  C   UNL     1       5.791   5.103  16.704  0.00  0.00    +0.000 C 
ATOM      3  O   UNL     1       6.432   4.376  17.459  0.00  0.00    +0.000 OA
ATOM      4  H   UNL     1       4.064   6.032  16.097  0.00  0.00    +0.000 HD
ENDROOT
BRANCH   1   8
ATOM      5  C   UNL     1       1.714   3.964  19.689  0.00  0.00    +0.000 A 
ATOM      6  C   UNL     1       2.670   4.901  20.069  0.00  0.00    +0.000 A 
ATOM      7  C   UNL     1       3.571   5.421  19.136  0.00  0.00    +0.000 A 
ATOM      8  C   UNL     1       3.550   4.992  17.809  0.00  0.00    +0.000 A 
ATOM      9  C   UNL     1       2.593   4.041  17.432  0.00  0.00    +0.000 A 
ATOM     10  C   UNL     1       1.677   3.531  18.366  0.00  0.00    +0.000 A 
BRANCH   5  12
ATOM     11  C   UNL     1       1.556   2.782  21.733  0.00  0.00    +0.000 C 
ATOM     12  O   UNL     1       0.912   3.518  20.700  0.00  0.00    +0.000 OA
ENDBRANCH   5  12
ENDBRANCH   1   8
BRANCH   2  13
ATOM     13  C   UNL     1       6.475   5.705  15.490  0.00  0.00    +0.000 C 
BRANCH  13  14
ATOM     14  C   UNL     1       7.095   4.586  14.659  0.00  0.00    +0.000 C 
BRANCH  14  15
ATOM     15  C   UNL     1       6.065   3.977  13.729  0.00  0.00    +0.000 C 
ATOM     16  O   UNL     1       4.862   4.184  13.847  0.00  0.00    +0.000 OA
ATOM     17  N   UNL     1       6.609   3.217  12.719  0.00  0.00    +0.000 N 
ATOM     18  H   UNL     1       7.603   3.021  12.721  0.00  0.00    +0.000 HD
BRANCH  17  19
ATOM     19  C   UNL     1       5.774   2.480  11.782  0.00  0.00    +0.000 C 
BRANCH  19  20
ATOM     20  C   UNL     1       6.561   1.393  11.054  0.00  0.00    +0.000 C 
BRANCH  20  21
ATOM     21  O   UNL     1       6.073   0.104  11.425  0.00  0.00    +0.000 OA
ATOM     22  H   UNL     1       6.016  -0.407  10.598  0.00  0.00    +0.000 HD
ENDBRANCH  20  21
ENDBRANCH  19  20
ENDBRANCH  17  19
ENDBRANCH  14  15
ENDBRANCH  13  14
ENDBRANCH   2  13
TORSDOF 8
ENDMDL
MODEL 9
REMARK VINA RESULT:      -6.3      2.331      6.323
REMARK  Name = 
REMARK  9 active torsions:
REMARK  status: ('A' for Active; 'I' for Inactive)
REMARK    1  A    between atoms: C_1  and  O_2
REMARK    2  A    between atoms: O_2  and  C_3
REMARK    3  A    between atoms: C_6  and  N_7
REMARK    4  A    between atoms: C_8  and  C_10
REMARK    5  A    between atoms: C_10  and  C_11
REMARK    6  A    between atoms: C_11  and  C_12
REMARK    7  A    between atoms: N_14  and  C_15
REMARK    8  A    between atoms: C_15  and  C_16
REMARK    9  A    between atoms: C_16  and  O_17
REMARK                            x       y       z     vdW  Elec       q    Type
REMARK                         _______ _______ _______ _____ _____    ______ ____
ROOT
ATOM      1  N   UNL     1       4.016   5.590  19.360  0.00  0.00    +0.000 N 
ATOM      2  C   UNL     1       2.646   5.718  19.232  0.00  0.00    +0.000 C 
ATOM      3  O   UNL     1       2.009   5.777  18.183  0.00  0.00    +0.000 OA
ATOM      4  H   UNL     1       4.388   5.520  20.299  0.00  0.00    +0.000 HD
ENDROOT
BRANCH   1   8
ATOM      5  C   UNL     1       6.924   5.103  16.319  0.00  0.00    +0.000 A 
ATOM      6  C   UNL     1       5.578   5.192  15.979  0.00  0.00    +0.000 A 
ATOM      7  C   UNL     1       4.603   5.375  16.964  0.00  0.00    +0.000 A 
ATOM      8  C   UNL     1       4.955   5.445  18.311  0.00  0.00    +0.000 A 
ATOM      9  C   UNL     1       6.311   5.344  18.651  0.00  0.00    +0.000 A 
ATOM     10  C   UNL     1       7.291   5.176  17.660  0.00  0.00    +0.000 A 
BRANCH   5  12
ATOM     11  C   UNL     1       7.175   4.886  13.976  0.00  0.00    +0.000 C 
ATOM     12  O   UNL     1       7.771   4.899  15.267  0.00  0.00    +0.000 OA
ENDBRANCH   5  12
ENDBRANCH   1   8
BRANCH   2  13
ATOM     13  C   UNL     1       1.907   5.777  20.556  0.00  0.00    +0.000 C 
BRANCH  13  14
ATOM     14  C   UNL     1       1.016   4.545  20.687  0.00  0.00    +0.000 C 
BRANCH  14  15
ATOM     15  C   UNL     1       1.829   3.277  20.525  0.00  0.00    +0.000 C 
ATOM     16  O   UNL     1       2.479   2.785  21.442  0.00  0.00    +0.000 OA
ATOM     17  N   UNL     1       1.730   2.709  19.275  0.00  0.00    +0.000 N 
ATOM     18  H   UNL     1       1.240   3.204  18.539  0.00  0.00    +0.000 HD
BRANCH  17  19
ATOM     19  C   UNL     1       2.510   1.538  18.903  0.00  0.00    +0.000 C 
BRANCH  19  20
ATOM     20  C   UNL     1       3.886   1.920  18.365  0.00  0.00    +0.000 C 
BRANCH  20  21
ATOM     21  O   UNL     1       4.811   2.063  19.443  0.00  0.00    +0.000 OA
ATOM     22  H   UNL     1       4.872   1.185  19.859  0.00  0.00    +0.000 HD
ENDBRANCH  20  21
ENDBRANCH  19  20
ENDBRANCH  17  19
ENDBRANCH  14  15
ENDBRANCH  13  14
ENDBRANCH   2  13
TORSDOF 8
ENDMDL
