MODEL 1
REMARK VINA RESULT:      -6.3      0.000      0.000
REMARK  Name = 
REMARK  11 active torsions:
REMARK  status: ('A' for Active; 'I' for Inactive)
REMARK    1  A    between atoms: C_1  and  C_2
REMARK    2  A    between atoms: C_2  and  N_3
REMARK    3  A    between atoms: N_3  and  C_4
REMARK    4  A    between atoms: N_3  and  C_6
REMARK    5  A    between atoms: C_4  and  C_5
REMARK    6  A    between atoms: C_6  and  C_7
REMARK    7  A    between atoms: C_7  and  N_8
REMARK    8  A    between atoms: C_9  and  C_11
REMARK    9  A    between atoms: C_14  and  N_15
REMARK   10  A    between atoms: N_15  and  S_16
REMARK   11  A    between atoms: S_16  and  C_17
REMARK                            x       y       z     vdW  Elec       q    Type
REMARK                         _______ _______ _______ _____ _____    ______ ____
ROOT
ATOM      1  C   UNL     1       3.026   5.474  19.195  0.00  0.00    +0.000 A 
ATOM      2  C   UNL     1       2.553   4.838  18.027  0.00  0.00    +0.000 A 
ATOM      3  C   UNL     1       3.441   4.235  17.142  0.00  0.00    +0.000 A 
ATOM      4  C   UNL     1       4.820   4.266  17.387  0.00  0.00    +0.000 A 
ATOM      5  C   UNL     1       5.308   4.913  18.523  0.00  0.00    +0.000 A 
ATOM      6  C   UNL     1       4.419   5.500  19.426  0.00  0.00    +0.000 A 
ENDROOT
BRANCH   1   8
ATOM      7  N   UNL     1       2.102   7.467  20.411  0.00  0.00    +0.000 N 
ATOM      8  C   UNL     1       2.111   6.118  20.188  0.00  0.00    +0.000 C 
ATOM      9  O   UNL     1       1.357   5.404  20.835  0.00  0.00    +0.000 OA
ATOM     10  H   UNL     1       2.728   8.095  19.895  0.00  0.00    +0.000 HD
BRANCH   7  11
ATOM     11  C   UNL     1       1.241   8.037  21.427  0.00  0.00    +0.000 C 
BRANCH  11  12
ATOM     12  C   UNL     1       0.232   9.027  20.818  0.00  0.00    +0.000 C 
BRANCH  12  13
ATOM     13  N   UNL     1       0.893  10.186  20.165  0.00  0.00    +0.000 NA
BRANCH  13  15
ATOM     14  C   UNL     1       1.344   9.400  17.805  0.00  0.00    +0.000 C 
ATOM     15  C   UNL     1       0.530  10.306  18.727  0.00  0.00    +0.000 C 
ENDBRANCH  13  15
BRANCH  13  16
ATOM     16  C   UNL     1       0.692  11.430  20.954  0.00  0.00    +0.000 C 
ATOM     17  C   UNL     1      -0.717  12.034  20.867  0.00  0.00    +0.000 C 
ENDBRANCH  13  16
ENDBRANCH  12  13
ENDBRANCH  11  12
ENDBRANCH   7  11
ENDBRANCH   1   8
BRANCH   4  18
ATOM     18  N   UNL     1       5.699   3.636  16.475  0.00  0.00    +0.000 N 
ATOM     19  H   UNL     1       5.424   2.692  16.167  0.00  0.00    +0.000 HD
BRANCH  18  20
ATOM     20  S   UNL     1       6.287   4.568  15.108  0.00  0.00    +0.000 S 
ATOM     21  C   UNL     1       6.165   3.778  13.472  0.00  0.00    +0.000 C 
ATOM     22  O   UNL     1       5.600   5.937  15.211  0.00  0.00    +0.000 OA
ATOM     23  O   UNL     1       7.738   4.905  15.482  0.00  0.00    +0.000 OA
ENDBRANCH  18  20
ENDBRANCH   4  18
TORSDOF 8
ENDMDL
MODEL 2
REMARK VINA RESULT:      -6.3      1.040      1.794
REMARK  Name = 
REMARK  11 active torsions:
REMARK  status: ('A' for Active; 'I' for Inactive)
REMARK    1  A    between atoms: C_1  and  C_2
REMARK    2  A    between atoms: C_2  and  N_3
REMARK    3  A    between atoms: N_3  and  C_4
REMARK    4  A    between atoms: N_3  and  C_6
REMARK    5  A    between atoms: C_4  and  C_5
REMARK    6  A    between atoms: C_6  and  C_7
REMARK    7  A    between atoms: C_7  and  N_8
REMARK    8  A    between atoms: C_9  and  C_11
REMARK    9  A    between atoms: C_14  and  N_15
REMARK   10  A    between atoms: N_15  and  S_16
REMARK   11  A    between atoms: S_16  and  C_17
REMARK                            x       y       z     vdW  Elec       q    Type
REMARK                         _______ _______ _______ _____ _____    ______ ____
ROOT
ATOM      1  C   UNL     1       2.986   5.456  19.099  0.00  0.00    +0.000 A 
ATOM      2  C   UNL     1       2.507   4.713  17.998  0.00  0.00    +0.000 A 
ATOM      3  C   UNL     1       3.396   4.104  17.118  0.00  0.00    +0.000 A 
ATOM      4  C   UNL     1       4.779   4.235  17.300  0.00  0.00    +0.000 A 
ATOM      5  C   UNL     1       5.269   4.988  18.367  0.00  0.00    +0.000 A 
ATOM      6  C   UNL     1       4.382   5.582  19.267  0.00  0.00    +0.000 A 
ENDROOT
BRANCH   1   8
ATOM      7  N   UNL     1       2.022   7.468  20.252  0.00  0.00    +0.000 N 
ATOM      8  C   UNL     1       2.071   6.112  20.085  0.00  0.00    +0.000 C 
ATOM      9  O   UNL     1       1.356   5.401  20.779  0.00  0.00    +0.000 OA
ATOM     10  H   UNL     1       2.615   8.094  19.695  0.00  0.00    +0.000 HD
BRANCH   7  11
ATOM     11  C   UNL     1       1.165   8.053  21.263  0.00  0.00    +0.000 C 
BRANCH  11  12
ATOM     12  C   UNL     1       0.987   9.566  21.043  0.00  0.00    +0.000 C 
BRANCH  12  13
ATOM     13  N   UNL     1      -0.383  10.033  21.379  0.00  0.00    +0.000 NA
BRANCH  13  15
ATOM     14  C   UNL     1      -1.622  11.324  23.165  0.00  0.00    +0.000 C 
ATOM     15  C   UNL     1      -0.553  10.284  22.835  0.00  0.00    +0.000 C 
ENDBRANCH  13  15
BRANCH  13  16
ATOM     16  C   UNL     1      -0.786  11.171  20.510  0.00  0.00    +0.000 C 
ATOM     17  C   UNL     1       0.332  12.171  20.187  0.00  0.00    +0.000 C 
ENDBRANCH  13  16
ENDBRANCH  12  13
ENDBRANCH  11  12
ENDBRANCH   7  11
ENDBRANCH   1   8
BRANCH   4  18
ATOM     18  N   UNL     1       5.660   3.597  16.395  0.00  0.00    +0.000 N 
ATOM     19  H   UNL     1       5.371   2.662  16.073  0.00  0.00    +0.000 HD
BRANCH  18  20
ATOM     20  S   UNL     1       6.288   4.531  15.047  0.00  0.00    +0.000 S 
ATOM     21  C   UNL     1       6.174   3.762  13.402  0.00  0.00    +0.000 C 
ATOM     22  O   UNL     1       5.629   5.913  15.156  0.00  0.00    +0.000 OA
ATOM     23  O   UNL     1       7.740   4.832  15.447  0.00  0.00    +0.000 OA
ENDBRANCH  18  20
ENDBRANCH   4  18
TORSDOF 8
ENDMDL
MODEL 3
REMARK VINA RESULT:      -6.2      0.886      1.064
REMARK  Name = 
REMARK  11 active torsions:
REMARK  status: ('A' for Active; 'I' for Inactive)
REMARK    1  A    between atoms: C_1  and  C_2
REMARK    2  A    between atoms: C_2  and  N_3
REMARK    3  A    between atoms: N_3  and  C_4
REMARK    4  A    between atoms: N_3  and  C_6
REMARK    5  A    between atoms: C_4  and  C_5
REMARK    6  A    between atoms: C_6  and  C_7
REMARK    7  A    between atoms: C_7  and  N_8
REMARK    8  A    between atoms: C_9  and  C_11
REMARK    9  A    between atoms: C_14  and  N_15
REMARK   10  A    between atoms: N_15  and  S_16
REMARK   11  A    between atoms: S_16  and  C_17
REMARK                            x       y       z     vdW  Elec       q    Type
REMARK                         _______ _______ _______ _____ _____    ______ ____
ROOT
ATOM      1  C   UNL     1       3.065   5.419  19.109  0.00  0.00    +0.000 A 
ATOM      2  C   UNL     1       2.682   4.553  18.062  0.00  0.00    +0.000 A 
ATOM      3  C   UNL     1       3.636   4.030  17.195  0.00  0.00    +0.000 A 
ATOM      4  C   UNL     1       4.988   4.369  17.336  0.00  0.00    +0.000 A 
ATOM      5  C   UNL     1       5.381   5.245  18.349  0.00  0.00    +0.000 A 
ATOM      6  C   UNL     1       4.430   5.755  19.236  0.00  0.00    +0.000 A 
ENDROOT
BRANCH   1   8
ATOM      7  N   UNL     1       1.987   7.333  20.327  0.00  0.00    +0.000 N 
ATOM      8  C   UNL     1       2.081   5.991  20.079  0.00  0.00    +0.000 C 
ATOM      9  O   UNL     1       1.346   5.223  20.687  0.00  0.00    +0.000 OA
ATOM     10  H   UNL     1       2.594   8.005  19.844  0.00  0.00    +0.000 HD
BRANCH   7  11
ATOM     11  C   UNL     1       1.060   7.833  21.321  0.00  0.00    +0.000 C 
BRANCH  11  12
ATOM     12  C   UNL     1       1.413   9.270  21.747  0.00  0.00    +0.000 C 
BRANCH  12  13
ATOM     13  N   UNL     1       0.537  10.285  21.108  0.00  0.00    +0.000 NA
BRANCH  13  15
ATOM     14  C   UNL     1      -0.583  10.514  18.854  0.00  0.00    +0.000 C 
ATOM     15  C   UNL     1      -0.398   9.682  20.121  0.00  0.00    +0.000 C 
ENDBRANCH  13  15
BRANCH  13  16
ATOM     16  C   UNL     1      -0.120  11.143  22.130  0.00  0.00    +0.000 C 
ATOM     17  C   UNL     1      -0.971  10.390  23.161  0.00  0.00    +0.000 C 
ENDBRANCH  13  16
ENDBRANCH  12  13
ENDBRANCH  11  12
ENDBRANCH   7  11
ENDBRANCH   1   8
BRANCH   4  18
ATOM     18  N   UNL     1       5.938   3.815  16.446  0.00  0.00    +0.000 N 
ATOM     19  H   UNL     1       5.824   2.812  16.238  0.00  0.00    +0.000 HD
BRANCH  18  20
ATOM     20  S   UNL     1       6.313   4.696  14.974  0.00  0.00    +0.000 S 
ATOM     21  C   UNL     1       6.182   3.768  13.414  0.00  0.00    +0.000 C 
ATOM     22  O   UNL     1       5.470   5.977  15.031  0.00  0.00    +0.000 OA
ATOM     23  O   UNL     1       7.733   5.232  15.212  0.00  0.00    +0.000 OA
ENDBRANCH  18  20
ENDBRANCH   4  18
TORSDOF 8
ENDMDL
MODEL 4
REMARK VINA RESULT:      -6.2      0.600      1.313
REMARK  Name = 
REMARK  11 active torsions:
REMARK  status: ('A' for Active; 'I' for Inactive)
REMARK    1  A    between atoms: C_1  and  C_2
REMARK    2  A    between atoms: C_2  and  N_3
REMARK    3  A    between atoms: N_3  and  C_4
REMARK    4  A    between atoms: N_3  and  C_6
REMARK    5  A    between atoms: C_4  and  C_5
REMARK    6  A    between atoms: C_6  and  C_7
REMARK    7  A    between atoms: C_7  and  N_8
REMARK    8  A    between atoms: C_9  and  C_11
REMARK    9  A    between atoms: C_14  and  N_15
REMARK   10  A    between atoms: N_15  and  S_16
REMARK   11  A    between atoms: S_16  and  C_17
REMARK                            x       y       z     vdW  Elec       q    Type
REMARK                         _______ _______ _______ _____ _____    ______ ____
ROOT
ATOM      1  C   UNL     1       3.050   5.418  19.137  0.00  0.00    +0.000 A 
ATOM      2  C   UNL     1       4.452   5.481  19.287  0.00  0.00    +0.000 A 
ATOM      3  C   UNL     1       5.289   4.869  18.359  0.00  0.00    +0.000 A 
ATOM      4  C   UNL     1       4.752   4.164  17.274  0.00  0.00    +0.000 A 
ATOM      5  C   UNL     1       3.368   4.069  17.125  0.00  0.00    +0.000 A 
ATOM      6  C   UNL     1       2.524   4.701  18.040  0.00  0.00    +0.000 A 
ENDROOT
BRANCH   1   8
ATOM      7  N   UNL     1       2.109   7.428  20.313  0.00  0.00    +0.000 N 
ATOM      8  C   UNL     1       2.109   6.078  20.095  0.00  0.00    +0.000 C 
ATOM      9  O   UNL     1       1.324   5.375  20.718  0.00  0.00    +0.000 OA
ATOM     10  H   UNL     1       2.760   8.046  19.816  0.00  0.00    +0.000 HD
BRANCH   7  11
ATOM     11  C   UNL     1       1.220   8.013  21.296  0.00  0.00    +0.000 C 
BRANCH  11  12
ATOM     12  C   UNL     1       0.349   9.122  20.678  0.00  0.00    +0.000 C 
BRANCH  12  13
ATOM     13  N   UNL     1       0.662  10.466  21.229  0.00  0.00    +0.000 NA
BRANCH  13  15
ATOM     14  C   UNL     1       1.054  10.848  18.762  0.00  0.00    +0.000 C 
ATOM     15  C   UNL     1       0.983  11.452  20.163  0.00  0.00    +0.000 C 
ENDBRANCH  13  15
BRANCH  13  16
ATOM     16  C   UNL     1      -0.392  10.911  22.179  0.00  0.00    +0.000 C 
ATOM     17  C   UNL     1      -0.772  12.395  22.080  0.00  0.00    +0.000 C 
ENDBRANCH  13  16
ENDBRANCH  12  13
ENDBRANCH  11  12
ENDBRANCH   7  11
ENDBRANCH   1   8
BRANCH   4  18
ATOM     18  N   UNL     1       5.627   3.558  16.340  0.00  0.00    +0.000 N 
ATOM     19  H   UNL     1       5.342   2.630  15.997  0.00  0.00    +0.000 HD
BRANCH  18  20
ATOM     20  S   UNL     1       6.229   4.533  15.010  0.00  0.00    +0.000 S 
ATOM     21  C   UNL     1       6.184   3.772  13.358  0.00  0.00    +0.000 C 
ATOM     22  O   UNL     1       5.496   5.878  15.115  0.00  0.00    +0.000 OA
ATOM     23  O   UNL     1       7.655   4.908  15.437  0.00  0.00    +0.000 OA
ENDBRANCH  18  20
ENDBRANCH   4  18
TORSDOF 8
ENDMDL
MODEL 5
REMARK VINA RESULT:      -6.2      0.601      1.914
REMARK  Name = 
REMARK  11 active torsions:
REMARK  status: ('A' for Active; 'I' for Inactive)
REMARK    1  A    between atoms: C_1  and  C_2
REMARK    2  A    between atoms: C_2  and  N_3
REMARK    3  A    between atoms: N_3  and  C_4
REMARK    4  A    between atoms: N_3  and  C_6
REMARK    5  A    between atoms: C_4  and  C_5
REMARK    6  A    between atoms: C_6  and  C_7
REMARK    7  A    between atoms: C_7  and  N_8
REMARK    8  A    between atoms: C_9  and  C_11
REMARK    9  A    between atoms: C_14  and  N_15
REMARK   10  A    between atoms: N_15  and  S_16
REMARK   11  A    between atoms: S_16  and  C_17
REMARK                            x       y       z     vdW  Elec       q    Type
REMARK                         _______ _______ _______ _____ _____    ______ ____
ROOT
ATOM      1  C   UNL     1       3.084   5.486  19.147  0.00  0.00    +0.000 A 
ATOM      2  C   UNL     1       4.484   5.508  19.319  0.00  0.00    +0.000 A 
ATOM      3  C   UNL     1       5.319   4.883  18.397  0.00  0.00    +0.000 A 
ATOM      4  C   UNL     1       4.780   4.205  17.296  0.00  0.00    +0.000 A 
ATOM      5  C   UNL     1       3.396   4.151  17.125  0.00  0.00    +0.000 A 
ATOM      6  C   UNL     1       2.555   4.796  18.034  0.00  0.00    +0.000 A 
ENDROOT
BRANCH   1   8
ATOM      7  N   UNL     1       2.070   7.522  20.212  0.00  0.00    +0.000 N 
ATOM      8  C   UNL     1       2.146   6.161  20.097  0.00  0.00    +0.000 C 
ATOM      9  O   UNL     1       1.436   5.464  20.810  0.00  0.00    +0.000 OA
ATOM     10  H   UNL     1       2.657   8.137  19.638  0.00  0.00    +0.000 HD
BRANCH   7  11
ATOM     11  C   UNL     1       1.190   8.128  21.191  0.00  0.00    +0.000 C 
BRANCH  11  12
ATOM     12  C   UNL     1       1.016   9.636  20.934  0.00  0.00    +0.000 C 
BRANCH  12  13
ATOM     13  N   UNL     1      -0.405  10.019  20.732  0.00  0.00    +0.000 NA
BRANCH  13  15
ATOM     14  C   UNL     1       0.326  12.371  21.302  0.00  0.00    +0.000 C 
ATOM     15  C   UNL     1      -0.749  11.292  21.421  0.00  0.00    +0.000 C 
ENDBRANCH  13  15
BRANCH  13  16
ATOM     16  C   UNL     1      -0.767   9.985  19.290  0.00  0.00    +0.000 C 
ATOM     17  C   UNL     1       0.410  10.152  18.320  0.00  0.00    +0.000 C 
ENDBRANCH  13  16
ENDBRANCH  12  13
ENDBRANCH  11  12
ENDBRANCH   7  11
ENDBRANCH   1   8
BRANCH   4  18
ATOM     18  N   UNL     1       5.652   3.586  16.369  0.00  0.00    +0.000 N 
ATOM     19  H   UNL     1       5.357   2.660  16.028  0.00  0.00    +0.000 HD
BRANCH  18  20
ATOM     20  S   UNL     1       6.272   4.548  15.039  0.00  0.00    +0.000 S 
ATOM     21  C   UNL     1       6.227   3.781  13.389  0.00  0.00    +0.000 C 
ATOM     22  O   UNL     1       5.555   5.902  15.135  0.00  0.00    +0.000 OA
ATOM     23  O   UNL     1       7.701   4.908  15.472  0.00  0.00    +0.000 OA
ENDBRANCH  18  20
ENDBRANCH   4  18
TORSDOF 8
ENDMDL
MODEL 6
REMARK VINA RESULT:      -6.1      3.818      7.689
REMARK  Name = 
REMARK  11 active torsions:
REMARK  status: ('A' for Active; 'I' for Inactive)
REMARK    1  A    between atoms: C_1  and  C_2
REMARK    2  A    between atoms: C_2  and  N_3
REMARK    3  A    between atoms: N_3  and  C_4
REMARK    4  A    between atoms: N_3  and  C_6
REMARK    5  A    between atoms: C_4  and  C_5
REMARK    6  A    between atoms: C_6  and  C_7
REMARK    7  A    between atoms: C_7  and  N_8
REMARK    8  A    between atoms: C_9  and  C_11
REMARK    9  A    between atoms: C_14  and  N_15
REMARK   10  A    between atoms: N_15  and  S_16
REMARK   11  A    between atoms: S_16  and  C_17
REMARK                            x       y       z     vdW  Elec       q    Type
REMARK                         _______ _______ _______ _____ _____    ______ ____
ROOT
ATOM      1  C   UNL     1       2.287   7.487  18.923  0.00  0.00    +0.000 A 
ATOM      2  C   UNL     1       2.027   8.372  17.855  0.00  0.00    +0.000 A 
ATOM      3  C   UNL     1       1.323   9.553  18.072  0.00  0.00    +0.000 A 
ATOM      4  C   UNL     1       0.845   9.871  19.350  0.00  0.00    +0.000 A 
ATOM      5  C   UNL     1       1.071   8.995  20.412  0.00  0.00    +0.000 A 
ATOM      6  C   UNL     1       1.796   7.820  20.205  0.00  0.00    +0.000 A 
ENDROOT
BRANCH   1   8
ATOM      7  N   UNL     1       4.084   5.858  19.575  0.00  0.00    +0.000 N 
ATOM      8  C   UNL     1       3.057   6.217  18.746  0.00  0.00    +0.000 C 
ATOM      9  O   UNL     1       2.766   5.484  17.810  0.00  0.00    +0.000 OA
ATOM     10  H   UNL     1       4.363   6.453  20.364  0.00  0.00    +0.000 HD
BRANCH   7  11
ATOM     11  C   UNL     1       4.840   4.648  19.326  0.00  0.00    +0.000 C 
BRANCH  11  12
ATOM     12  C   UNL     1       6.224   4.962  18.730  0.00  0.00    +0.000 C 
BRANCH  12  13
ATOM     13  N   UNL     1       6.153   5.353  17.299  0.00  0.00    +0.000 NA
BRANCH  13  15
ATOM     14  C   UNL     1       7.661   7.332  17.748  0.00  0.00    +0.000 C 
ATOM     15  C   UNL     1       6.379   6.810  17.101  0.00  0.00    +0.000 C 
ENDBRANCH  13  15
BRANCH  13  16
ATOM     16  C   UNL     1       7.019   4.479  16.463  0.00  0.00    +0.000 C 
ATOM     17  C   UNL     1       6.970   4.766  14.957  0.00  0.00    +0.000 C 
ENDBRANCH  13  16
ENDBRANCH  12  13
ENDBRANCH  11  12
ENDBRANCH   7  11
ENDBRANCH   1   8
BRANCH   4  18
ATOM     18  N   UNL     1       0.140  11.083  19.544  0.00  0.00    +0.000 N 
ATOM     19  H   UNL     1      -0.654  11.038  20.199  0.00  0.00    +0.000 HD
BRANCH  18  20
ATOM     20  S   UNL     1       1.066  12.549  19.818  0.00  0.00    +0.000 S 
ATOM     21  C   UNL     1       2.353  12.940  18.593  0.00  0.00    +0.000 C 
ATOM     22  O   UNL     1       0.029  13.661  20.036  0.00  0.00    +0.000 OA
ATOM     23  O   UNL     1       1.645  12.367  21.229  0.00  0.00    +0.000 OA
ENDBRANCH  18  20
ENDBRANCH   4  18
TORSDOF 8
ENDMDL
MODEL 7
REMARK VINA RESULT:      -6.1      0.910      1.781
REMARK  Name = 
REMARK  11 active torsions:
REMARK  status: ('A' for Active; 'I' for Inactive)
REMARK    1  A    between atoms: C_1  and  C_2
REMARK    2  A    between atoms: C_2  and  N_3
REMARK    3  A    between atoms: N_3  and  C_4
REMARK    4  A    between atoms: N_3  and  C_6
REMARK    5  A    between atoms: C_4  and  C_5
REMARK    6  A    between atoms: C_6  and  C_7
REMARK    7  A    between atoms: C_7  and  N_8
REMARK    8  A    between atoms: C_9  and  C_11
REMARK    9  A    between atoms: C_14  and  N_15
REMARK   10  A    between atoms: N_15  and  S_16
REMARK   11  A    between atoms: S_16  and  C_17
REMARK                            x       y       z     vdW  Elec       q    Type
REMARK                         _______ _______ _______ _____ _____    ______ ____
ROOT
ATOM      1  C   UNL     1       3.214   5.195  18.895  0.00  0.00    +0.000 A 
ATOM      2  C   UNL     1       3.040   3.975  18.207  0.00  0.00    +0.000 A 
ATOM      3  C   UNL     1       4.009   3.521  17.319  0.00  0.00    +0.000 A 
ATOM      4  C   UNL     1       5.164   4.278  17.078  0.00  0.00    +0.000 A 
ATOM      5  C   UNL     1       5.340   5.499  17.729  0.00  0.00    +0.000 A 
ATOM      6  C   UNL     1       4.381   5.949  18.639  0.00  0.00    +0.000 A 
ENDROOT
BRANCH   1   8
ATOM      7  N   UNL     1       2.167   7.030  20.253  0.00  0.00    +0.000 N 
ATOM      8  C   UNL     1       2.212   5.716  19.875  0.00  0.00    +0.000 C 
ATOM      9  O   UNL     1       1.416   4.929  20.370  0.00  0.00    +0.000 OA
ATOM     10  H   UNL     1       2.826   7.716  19.868  0.00  0.00    +0.000 HD
BRANCH   7  11
ATOM     11  C   UNL     1       1.217   7.475  21.253  0.00  0.00    +0.000 C 
BRANCH  11  12
ATOM     12  C   UNL     1       1.268   9.002  21.437  0.00  0.00    +0.000 C 
BRANCH  12  13
ATOM     13  N   UNL     1       0.336   9.717  20.527  0.00  0.00    +0.000 NA
BRANCH  13  15
ATOM     14  C   UNL     1      -0.648  10.418  22.748  0.00  0.00    +0.000 C 
ATOM     15  C   UNL     1      -0.517  10.697  21.252  0.00  0.00    +0.000 C 
ENDBRANCH  13  15
BRANCH  13  16
ATOM     16  C   UNL     1       1.059  10.281  19.357  0.00  0.00    +0.000 C 
ATOM     17  C   UNL     1       0.831   9.542  18.033  0.00  0.00    +0.000 C 
ENDBRANCH  13  16
ENDBRANCH  12  13
ENDBRANCH  11  12
ENDBRANCH   7  11
ENDBRANCH   1   8
BRANCH   4  18
ATOM     18  N   UNL     1       6.138   3.787  16.176  0.00  0.00    +0.000 N 
ATOM     19  H   UNL     1       6.092   2.778  15.974  0.00  0.00    +0.000 HD
BRANCH  18  20
ATOM     20  S   UNL     1       6.428   4.685  14.695  0.00  0.00    +0.000 S 
ATOM     21  C   UNL     1       6.360   3.738  13.143  0.00  0.00    +0.000 C 
ATOM     22  O   UNL     1       5.483   5.894  14.750  0.00  0.00    +0.000 OA
ATOM     23  O   UNL     1       7.801   5.337  14.917  0.00  0.00    +0.000 OA
ENDBRANCH  18  20
ENDBRANCH   4  18
TORSDOF 8
ENDMDL
MODEL 8
REMARK VINA RESULT:      -6.0      5.039      6.826
REMARK  Name = 
REMARK  11 active torsions:
REMARK  status: ('A' for Active; 'I' for Inactive)
REMARK    1  A    between atoms: C_1  and  C_2
REMARK    2  A    between atoms: C_2  and  N_3
REMARK    3  A    between atoms: N_3  and  C_4
REMARK    4  A    between atoms: N_3  and  C_6
REMARK    5  A    between atoms: C_4  and  C_5
REMARK    6  A    between atoms: C_6  and  C_7
REMARK    7  A    between atoms: C_7  and  N_8
REMARK    8  A    between atoms: C_9  and  C_11
REMARK    9  A    between atoms: C_14  and  N_15
REMARK   10  A    between atoms: N_15  and  S_16
REMARK   11  A    between atoms: S_16  and  C_17
REMARK                            x       y       z     vdW  Elec       q    Type
REMARK                         _______ _______ _______ _____ _____    ______ ____
ROOT
ATOM      1  C   UNL     1       6.263   5.916  17.585  0.00  0.00    +0.000 A 
ATOM      2  C   UNL     1       6.218   5.188  18.793  0.00  0.00    +0.000 A 
ATOM      3  C   UNL     1       5.273   4.183  18.977  0.00  0.00    +0.000 A 
ATOM      4  C   UNL     1       4.340   3.892  17.973  0.00  0.00    +0.000 A 
ATOM      5  C   UNL     1       4.353   4.620  16.783  0.00  0.00    +0.000 A 
ATOM      6  C   UNL     1       5.313   5.614  16.584  0.00  0.00    +0.000 A 
ENDROOT
BRANCH   1   8
ATOM      7  N   UNL     1       7.356   8.117  18.102  0.00  0.00    +0.000 N 
ATOM      8  C   UNL     1       7.272   6.991  17.331  0.00  0.00    +0.000 C 
ATOM      9  O   UNL     1       8.038   6.860  16.385  0.00  0.00    +0.000 OA
ATOM     10  H   UNL     1       6.724   8.266  18.896  0.00  0.00    +0.000 HD
BRANCH   7  11
ATOM     11  C   UNL     1       8.310   9.159  17.778  0.00  0.00    +0.000 C 
BRANCH  11  12
ATOM     12  C   UNL     1       9.100   9.603  19.022  0.00  0.00    +0.000 C 
BRANCH  12  13
ATOM     13  N   UNL     1       9.058  11.074  19.228  0.00  0.00    +0.000 NA
BRANCH  13  15
ATOM     14  C   UNL     1      11.334  11.909  19.945  0.00  0.00    +0.000 C 
ATOM     15  C   UNL     1       9.920  11.509  20.360  0.00  0.00    +0.000 C 
ENDBRANCH  13  15
BRANCH  13  16
ATOM     16  C   UNL     1       9.308  11.799  17.954  0.00  0.00    +0.000 C 
ATOM     17  C   UNL     1       8.331  12.944  17.655  0.00  0.00    +0.000 C 
ENDBRANCH  13  16
ENDBRANCH  12  13
ENDBRANCH  11  12
ENDBRANCH   7  11
ENDBRANCH   1   8
BRANCH   4  18
ATOM     18  N   UNL     1       3.396   2.859  18.183  0.00  0.00    +0.000 N 
ATOM     19  H   UNL     1       3.707   2.085  18.788  0.00  0.00    +0.000 HD
BRANCH  18  20
ATOM     20  S   UNL     1       1.746   3.307  18.580  0.00  0.00    +0.000 S 
ATOM     21  C   UNL     1       1.516   4.327  20.070  0.00  0.00    +0.000 C 
ATOM     22  O   UNL     1       1.158   3.908  17.295  0.00  0.00    +0.000 OA
ATOM     23  O   UNL     1       1.007   1.964  18.677  0.00  0.00    +0.000 OA
ENDBRANCH  18  20
ENDBRANCH   4  18
TORSDOF 8
ENDMDL
MODEL 9
REMARK VINA RESULT:      -6.0      4.010      8.046
REMARK  Name = 
REMARK  11 active torsions:
REMARK  status: ('A' for Active; 'I' for Inactive)
REMARK    1  A    between atoms: C_1  and  C_2
REMARK    2  A    between atoms: C_2  and  N_3
REMARK    3  A    between atoms: N_3  and  C_4
REMARK    4  A    between atoms: N_3  and  C_6
REMARK    5  A    between atoms: C_4  and  C_5
REMARK    6  A    between atoms: C_6  and  C_7
REMARK    7  A    between atoms: C_7  and  N_8
REMARK    8  A    between atoms: C_9  and  C_11
REMARK    9  A    between atoms: C_14  and  N_15
REMARK   10  A    between atoms: N_15  and  S_16
REMARK   11  A    between atoms: S_16  and  C_17
REMARK                            x       y       z     vdW  Elec       q    Type
REMARK                         _______ _______ _______ _____ _____    ______ ____
ROOT
ATOM      1  C   UNL     1       1.909   8.097  19.254  0.00  0.00    +0.000 A 
ATOM      2  C   UNL     1       1.605   9.092  18.301  0.00  0.00    +0.000 A 
ATOM      3  C   UNL     1       0.776  10.159  18.634  0.00  0.00    +0.000 A 
ATOM      4  C   UNL     1       0.215  10.251  19.914  0.00  0.00    +0.000 A 
ATOM      5  C   UNL     1       0.483   9.262  20.861  0.00  0.00    +0.000 A 
ATOM      6  C   UNL     1       1.333   8.201  20.539  0.00  0.00    +0.000 A 
ENDROOT
BRANCH   1   8
ATOM      7  N   UNL     1       3.152   6.011  19.893  0.00  0.00    +0.000 N 
ATOM      8  C   UNL     1       2.811   6.943  18.952  0.00  0.00    +0.000 C 
ATOM      9  O   UNL     1       3.275   6.845  17.824  0.00  0.00    +0.000 OA
ATOM     10  H   UNL     1       2.791   6.067  20.852  0.00  0.00    +0.000 HD
BRANCH   7  11
ATOM     11  C   UNL     1       4.078   4.945  19.569  0.00  0.00    +0.000 C 
BRANCH  11  12
ATOM     12  C   UNL     1       3.478   3.563  19.883  0.00  0.00    +0.000 C 
BRANCH  12  13
ATOM     13  N   UNL     1       2.188   3.329  19.184  0.00  0.00    +0.000 NA
BRANCH  13  15
ATOM     14  C   UNL     1       3.571   1.491  18.137  0.00  0.00    +0.000 C 
ATOM     15  C   UNL     1       2.324   2.368  18.056  0.00  0.00    +0.000 C 
ENDBRANCH  13  15
BRANCH  13  16
ATOM     16  C   UNL     1       1.110   2.991  20.151  0.00  0.00    +0.000 C 
ATOM     17  C   UNL     1       1.584   2.724  21.585  0.00  0.00    +0.000 C 
ENDBRANCH  13  16
ENDBRANCH  12  13
ENDBRANCH  11  12
ENDBRANCH   7  11
ENDBRANCH   1   8
BRANCH   4  18
ATOM     18  N   UNL     1      -0.617  11.352  20.228  0.00  0.00    +0.000 N 
ATOM     19  H   UNL     1      -1.599  11.123  20.444  0.00  0.00    +0.000 HD
BRANCH  18  20
ATOM     20  S   UNL     1      -0.017  12.553  21.358  0.00  0.00    +0.000 S 
ATOM     21  C   UNL     1      -0.594  14.262  21.113  0.00  0.00    +0.000 C 
ATOM     22  O   UNL     1      -0.287  11.981  22.757  0.00  0.00    +0.000 OA
ATOM     23  O   UNL     1       1.511  12.436  21.251  0.00  0.00    +0.000 OA
ENDBRANCH  18  20
ENDBRANCH   4  18
TORSDOF 8
ENDMDL
