MODEL 1
REMARK VINA RESULT:      -7.5      0.000      0.000
REMARK  Name = 
REMARK  6 active torsions:
REMARK  status: ('A' for Active; 'I' for Inactive)
REMARK    1  A    between atoms: C_1  and  C_2
REMARK    2  A    between atoms: C_2  and  C_3
REMARK    3  A    between atoms: C_2  and  C_4
REMARK    4  A    between atoms: C_4  and  N_5
REMARK    5  A    between atoms: C_4  and  C_18
REMARK    6  A    between atoms: C_6  and  C_8
REMARK                            x       y       z     vdW  Elec       q    Type
REMARK                         _______ _______ _______ _____ _____    ______ ____
ROOT
ATOM      1  N   UNL     1       2.938   5.219  19.241  0.00  0.00    +0.000 N 
ATOM      2  C   UNL     1       4.122   4.523  19.177  0.00  0.00    +0.000 C 
ATOM      3  O   UNL     1       4.442   3.745  20.076  0.00  0.00    +0.000 OA
ATOM      4  H   UNL     1       2.857   6.059  18.679  0.00  0.00    +0.000 HD
ENDROOT
BRANCH   2   5
ATOM      5  C   UNL     1       5.026   4.829  17.966  0.00  0.00    +0.000 C 
ATOM      6  C   UNL     1       4.596   3.990  16.737  0.00  0.00    +0.000 C 
ATOM      7  C   UNL     1       5.450   4.356  15.505  0.00  0.00    +0.000 C 
ATOM      8  C   UNL     1       5.282   5.852  15.191  0.00  0.00    +0.000 C 
ATOM      9  C   UNL     1       5.745   6.695  16.390  0.00  0.00    +0.000 C 
ATOM     10  C   UNL     1       7.216   6.391  16.705  0.00  0.00    +0.000 C 
ATOM     11  C   UNL     1       7.386   4.897  17.026  0.00  0.00    +0.000 C 
ATOM     12  C   UNL     1       6.932   4.074  15.808  0.00  0.00    +0.000 C 
ATOM     13  C   UNL     1       6.519   4.532  18.248  0.00  0.00    +0.000 C 
ATOM     14  C   UNL     1       4.886   6.333  17.609  0.00  0.00    +0.000 C 
ENDBRANCH   2   5
BRANCH   1  15
ATOM     15  C   UNL     1       2.105   5.153  20.447  0.00  0.00    +0.000 C 
BRANCH  15  16
ATOM     16  C   UNL     1       1.434   6.537  20.578  0.00  0.00    +0.000 C 
ATOM     17  O   UNL     1       0.421   6.680  21.259  0.00  0.00    +0.000 OA
ATOM     18  N   UNL     1       1.936   7.519  19.731  0.00  0.00    +0.000 N 
ATOM     19  C   UNL     1       1.535   8.823  19.713  0.00  0.00    +0.000 C 
ATOM     20  N   UNL     1       1.571   9.501  18.619  0.00  0.00    +0.000 NA
ATOM     21  C   UNL     1       1.028  10.858  18.874  0.00  0.00    +0.000 C 
ATOM     22  C   UNL     1       0.184  10.864  20.141  0.00  0.00    +0.000 C 
ATOM     23  S   UNL     1       1.003   9.628  21.156  0.00  0.00    +0.000 S 
ATOM     24  H   UNL     1       2.320   7.194  18.852  0.00  0.00    +0.000 HD
ENDBRANCH  15  16
BRANCH  15  26
ATOM     25  C   UNL     1       0.942   3.326  19.000  0.00  0.00    +0.000 C 
ATOM     26  C   UNL     1       1.067   3.999  20.374  0.00  0.00    +0.000 C 
ATOM     27  C   UNL     1       1.368   2.923  21.426  0.00  0.00    +0.000 C 
ENDBRANCH  15  26
ENDBRANCH   1  15
TORSDOF 4
ENDMDL
MODEL 2
REMARK VINA RESULT:      -7.5      0.083      1.485
REMARK  Name = 
REMARK  6 active torsions:
REMARK  status: ('A' for Active; 'I' for Inactive)
REMARK    1  A    between atoms: C_1  and  C_2
REMARK    2  A    between atoms: C_2  and  C_3
REMARK    3  A    between atoms: C_2  and  C_4
REMARK    4  A    between atoms: C_4  and  N_5
REMARK    5  A    between atoms: C_4  and  C_18
REMARK    6  A    between atoms: C_6  and  C_8
REMARK                            x       y       z     vdW  Elec       q    Type
REMARK                         _______ _______ _______ _____ _____    ______ ____
ROOT
ATOM      1  N   UNL     1       2.921   5.239  19.222  0.00  0.00    +0.000 N 
ATOM      2  C   UNL     1       4.107   4.550  19.120  0.00  0.00    +0.000 C 
ATOM      3  O   UNL     1       4.457   3.772  20.007  0.00  0.00    +0.000 OA
ATOM      4  H   UNL     1       2.819   6.081  18.665  0.00  0.00    +0.000 HD
ENDROOT
BRANCH   2   5
ATOM      5  C   UNL     1       4.972   4.864  17.883  0.00  0.00    +0.000 C 
ATOM      6  C   UNL     1       4.802   6.344  17.460  0.00  0.00    +0.000 C 
ATOM      7  C   UNL     1       5.728   6.677  16.271  0.00  0.00    +0.000 C 
ATOM      8  C   UNL     1       7.190   6.422  16.673  0.00  0.00    +0.000 C 
ATOM      9  C   UNL     1       7.378   4.945  17.056  0.00  0.00    +0.000 C 
ATOM     10  C   UNL     1       6.998   4.046  15.871  0.00  0.00    +0.000 C 
ATOM     11  C   UNL     1       5.534   4.295  15.471  0.00  0.00    +0.000 C 
ATOM     12  C   UNL     1       5.374   5.773  15.077  0.00  0.00    +0.000 C 
ATOM     13  C   UNL     1       4.613   3.975  16.667  0.00  0.00    +0.000 C 
ATOM     14  C   UNL     1       6.462   4.622  18.243  0.00  0.00    +0.000 C 
ENDBRANCH   2   5
BRANCH   1  15
ATOM     15  C   UNL     1       2.125   5.166  20.452  0.00  0.00    +0.000 C 
BRANCH  15  16
ATOM     16  C   UNL     1       1.451   6.546  20.606  0.00  0.00    +0.000 C 
ATOM     17  O   UNL     1       0.455   6.680  21.314  0.00  0.00    +0.000 OA
ATOM     18  N   UNL     1       1.926   7.534  19.752  0.00  0.00    +0.000 N 
ATOM     19  C   UNL     1       1.517   8.836  19.750  0.00  0.00    +0.000 C 
ATOM     20  N   UNL     1       1.522   9.520  18.658  0.00  0.00    +0.000 NA
ATOM     21  C   UNL     1       0.979  10.873  18.934  0.00  0.00    +0.000 C 
ATOM     22  C   UNL     1       0.168  10.868  20.222  0.00  0.00    +0.000 C 
ATOM     23  S   UNL     1       1.019   9.633  21.210  0.00  0.00    +0.000 S 
ATOM     24  H   UNL     1       2.289   7.215  18.861  0.00  0.00    +0.000 HD
ENDBRANCH  15  16
BRANCH  15  26
ATOM     25  C   UNL     1       0.935   3.330  19.038  0.00  0.00    +0.000 C 
ATOM     26  C   UNL     1       1.092   4.007  20.407  0.00  0.00    +0.000 C 
ATOM     27  C   UNL     1       1.425   2.935  21.453  0.00  0.00    +0.000 C 
ENDBRANCH  15  26
ENDBRANCH   1  15
TORSDOF 4
ENDMDL
MODEL 3
REMARK VINA RESULT:      -7.3      0.117      1.523
REMARK  Name = 
REMARK  6 active torsions:
REMARK  status: ('A' for Active; 'I' for Inactive)
REMARK    1  A    between atoms: C_1  and  C_2
REMARK    2  A    between atoms: C_2  and  C_3
REMARK    3  A    between atoms: C_2  and  C_4
REMARK    4  A    between atoms: C_4  and  N_5
REMARK    5  A    between atoms: C_4  and  C_18
REMARK    6  A    between atoms: C_6  and  C_8
REMARK                            x       y       z     vdW  Elec       q    Type
REMARK                         _______ _______ _______ _____ _____    ______ ____
ROOT
ATOM      1  N   UNL     1       2.926   5.348  19.254  0.00  0.00    +0.000 N 
ATOM      2  C   UNL     1       4.082   4.611  19.148  0.00  0.00    +0.000 C 
ATOM      3  O   UNL     1       4.379   3.783  20.010  0.00  0.00    +0.000 OA
ATOM      4  H   UNL     1       2.873   6.214  18.730  0.00  0.00    +0.000 HD
ENDROOT
BRANCH   2   5
ATOM      5  C   UNL     1       4.986   4.935  17.942  0.00  0.00    +0.000 C 
ATOM      6  C   UNL     1       6.470   4.646  18.278  0.00  0.00    +0.000 C 
ATOM      7  C   UNL     1       7.364   4.896  17.045  0.00  0.00    +0.000 C 
ATOM      8  C   UNL     1       6.912   3.985  15.891  0.00  0.00    +0.000 C 
ATOM      9  C   UNL     1       5.451   4.292  15.523  0.00  0.00    +0.000 C 
ATOM     10  C   UNL     1       5.315   5.764  15.108  0.00  0.00    +0.000 C 
ATOM     11  C   UNL     1       5.761   6.677  16.262  0.00  0.00    +0.000 C 
ATOM     12  C   UNL     1       7.228   6.364  16.603  0.00  0.00    +0.000 C 
ATOM     13  C   UNL     1       4.875   6.414  17.497  0.00  0.00    +0.000 C 
ATOM     14  C   UNL     1       4.567   4.034  16.750  0.00  0.00    +0.000 C 
ENDBRANCH   2   5
BRANCH   1  15
ATOM     15  C   UNL     1       2.102   5.262  20.464  0.00  0.00    +0.000 C 
BRANCH  15  16
ATOM     16  C   UNL     1       1.431   6.642  20.622  0.00  0.00    +0.000 C 
ATOM     17  O   UNL     1       0.446   6.781  21.346  0.00  0.00    +0.000 OA
ATOM     18  N   UNL     1       1.890   7.625  19.754  0.00  0.00    +0.000 N 
ATOM     19  C   UNL     1       1.482   8.927  19.751  0.00  0.00    +0.000 C 
ATOM     20  N   UNL     1       1.468   9.605  18.655  0.00  0.00    +0.000 NA
ATOM     21  C   UNL     1       0.929  10.959  18.932  0.00  0.00    +0.000 C 
ATOM     22  C   UNL     1       0.141  10.962  20.234  0.00  0.00    +0.000 C 
ATOM     23  S   UNL     1       1.009   9.733  21.215  0.00  0.00    +0.000 S 
ATOM     24  H   UNL     1       2.238   7.301  18.859  0.00  0.00    +0.000 HD
ENDBRANCH  15  16
BRANCH  15  26
ATOM     25  C   UNL     1       0.950   3.438  19.004  0.00  0.00    +0.000 C 
ATOM     26  C   UNL     1       1.065   4.108  20.381  0.00  0.00    +0.000 C 
ATOM     27  C   UNL     1       1.358   3.029  21.432  0.00  0.00    +0.000 C 
ENDBRANCH  15  26
ENDBRANCH   1  15
TORSDOF 4
ENDMDL
MODEL 4
REMARK VINA RESULT:      -7.2      3.978      7.242
REMARK  Name = 
REMARK  6 active torsions:
REMARK  status: ('A' for Active; 'I' for Inactive)
REMARK    1  A    between atoms: C_1  and  C_2
REMARK    2  A    between atoms: C_2  and  C_3
REMARK    3  A    between atoms: C_2  and  C_4
REMARK    4  A    between atoms: C_4  and  N_5
REMARK    5  A    between atoms: C_4  and  C_18
REMARK    6  A    between atoms: C_6  and  C_8
REMARK                            x       y       z     vdW  Elec       q    Type
REMARK                         _______ _______ _______ _____ _____    ______ ____
ROOT
ATOM      1  N   UNL     1       5.630   5.028  17.369  0.00  0.00    +0.000 N 
ATOM      2  C   UNL     1       5.403   4.420  18.582  0.00  0.00    +0.000 C 
ATOM      3  O   UNL     1       6.330   4.222  19.367  0.00  0.00    +0.000 OA
ATOM      4  H   UNL     1       4.941   4.887  16.639  0.00  0.00    +0.000 HD
ENDROOT
BRANCH   2   5
ATOM      5  C   UNL     1       3.956   3.958  18.850  0.00  0.00    +0.000 C 
ATOM      6  C   UNL     1       3.020   5.176  19.043  0.00  0.00    +0.000 C 
ATOM      7  C   UNL     1       1.560   4.713  19.232  0.00  0.00    +0.000 C 
ATOM      8  C   UNL     1       1.112   3.912  17.999  0.00  0.00    +0.000 C 
ATOM      9  C   UNL     1       2.011   2.677  17.821  0.00  0.00    +0.000 C 
ATOM     10  C   UNL     1       1.935   1.792  19.074  0.00  0.00    +0.000 C 
ATOM     11  C   UNL     1       2.388   2.590  20.308  0.00  0.00    +0.000 C 
ATOM     12  C   UNL     1       1.466   3.810  20.474  0.00  0.00    +0.000 C 
ATOM     13  C   UNL     1       3.842   3.063  20.109  0.00  0.00    +0.000 C 
ATOM     14  C   UNL     1       3.459   3.144  17.625  0.00  0.00    +0.000 C 
ENDBRANCH   2   5
BRANCH   1  15
ATOM     15  C   UNL     1       6.999   5.321  16.934  0.00  0.00    +0.000 C 
BRANCH  15  16
ATOM     16  C   UNL     1       7.031   5.048  15.415  0.00  0.00    +0.000 C 
ATOM     17  O   UNL     1       7.809   5.658  14.685  0.00  0.00    +0.000 OA
ATOM     18  N   UNL     1       6.006   4.239  14.939  0.00  0.00    +0.000 N 
ATOM     19  C   UNL     1       5.867   3.822  13.647  0.00  0.00    +0.000 C 
ATOM     20  N   UNL     1       4.697   3.603  13.154  0.00  0.00    +0.000 NA
ATOM     21  C   UNL     1       4.838   3.220  11.727  0.00  0.00    +0.000 C 
ATOM     22  C   UNL     1       6.190   3.668  11.188  0.00  0.00    +0.000 C 
ATOM     23  S   UNL     1       7.247   3.532  12.634  0.00  0.00    +0.000 S 
ATOM     24  H   UNL     1       5.136   4.272  15.456  0.00  0.00    +0.000 HD
ENDBRANCH  15  16
BRANCH  15  26
ATOM     25  C   UNL     1       6.278   7.799  17.284  0.00  0.00    +0.000 C 
ATOM     26  C   UNL     1       7.422   6.775  17.281  0.00  0.00    +0.000 C 
ATOM     27  C   UNL     1       8.138   6.830  18.636  0.00  0.00    +0.000 C 
ENDBRANCH  15  26
ENDBRANCH   1  15
TORSDOF 4
ENDMDL
MODEL 5
REMARK VINA RESULT:      -7.1      3.992      7.245
REMARK  Name = 
REMARK  6 active torsions:
REMARK  status: ('A' for Active; 'I' for Inactive)
REMARK    1  A    between atoms: C_1  and  C_2
REMARK    2  A    between atoms: C_2  and  C_3
REMARK    3  A    between atoms: C_2  and  C_4
REMARK    4  A    between atoms: C_4  and  N_5
REMARK    5  A    between atoms: C_4  and  C_18
REMARK    6  A    between atoms: C_6  and  C_8
REMARK                            x       y       z     vdW  Elec       q    Type
REMARK                         _______ _______ _______ _____ _____    ______ ____
ROOT
ATOM      1  N   UNL     1       5.613   4.965  17.330  0.00  0.00    +0.000 N 
ATOM      2  C   UNL     1       5.383   4.370  18.548  0.00  0.00    +0.000 C 
ATOM      3  O   UNL     1       6.304   4.197  19.346  0.00  0.00    +0.000 OA
ATOM      4  H   UNL     1       4.935   4.803  16.594  0.00  0.00    +0.000 HD
ENDROOT
BRANCH   2   5
ATOM      5  C   UNL     1       3.941   3.886  18.806  0.00  0.00    +0.000 C 
ATOM      6  C   UNL     1       3.867   3.064  20.116  0.00  0.00    +0.000 C 
ATOM      7  C   UNL     1       2.410   2.649  20.414  0.00  0.00    +0.000 C 
ATOM      8  C   UNL     1       1.536   3.906  20.546  0.00  0.00    +0.000 C 
ATOM      9  C   UNL     1       1.570   4.709  19.235  0.00  0.00    +0.000 C 
ATOM     10  C   UNL     1       1.062   3.840  18.077  0.00  0.00    +0.000 C 
ATOM     11  C   UNL     1       1.939   2.585  17.939  0.00  0.00    +0.000 C 
ATOM     12  C   UNL     1       1.876   1.790  19.254  0.00  0.00    +0.000 C 
ATOM     13  C   UNL     1       3.396   3.004  17.656  0.00  0.00    +0.000 C 
ATOM     14  C   UNL     1       3.019   5.126  18.950  0.00  0.00    +0.000 C 
ENDBRANCH   2   5
BRANCH   1  15
ATOM     15  C   UNL     1       6.982   5.275  16.905  0.00  0.00    +0.000 C 
BRANCH  15  16
ATOM     16  C   UNL     1       7.024   5.022  15.383  0.00  0.00    +0.000 C 
ATOM     17  O   UNL     1       7.799   5.650  14.665  0.00  0.00    +0.000 OA
ATOM     18  N   UNL     1       6.010   4.207  14.892  0.00  0.00    +0.000 N 
ATOM     19  C   UNL     1       5.882   3.805  13.595  0.00  0.00    +0.000 C 
ATOM     20  N   UNL     1       4.718   3.579  13.093  0.00  0.00    +0.000 NA
ATOM     21  C   UNL     1       4.870   3.216  11.663  0.00  0.00    +0.000 C 
ATOM     22  C   UNL     1       6.219   3.685  11.136  0.00  0.00    +0.000 C 
ATOM     23  S   UNL     1       7.271   3.543  12.585  0.00  0.00    +0.000 S 
ATOM     24  H   UNL     1       5.137   4.225  15.406  0.00  0.00    +0.000 HD
ENDBRANCH  15  16
BRANCH  15  26
ATOM     25  C   UNL     1       6.236   7.741  17.287  0.00  0.00    +0.000 C 
ATOM     26  C   UNL     1       7.390   6.729  17.272  0.00  0.00    +0.000 C 
ATOM     27  C   UNL     1       8.102   6.773  18.630  0.00  0.00    +0.000 C 
ENDBRANCH  15  26
ENDBRANCH   1  15
TORSDOF 4
ENDMDL
MODEL 6
REMARK VINA RESULT:      -7.1      3.700      7.284
REMARK  Name = 
REMARK  6 active torsions:
REMARK  status: ('A' for Active; 'I' for Inactive)
REMARK    1  A    between atoms: C_1  and  C_2
REMARK    2  A    between atoms: C_2  and  C_3
REMARK    3  A    between atoms: C_2  and  C_4
REMARK    4  A    between atoms: C_4  and  N_5
REMARK    5  A    between atoms: C_4  and  C_18
REMARK    6  A    between atoms: C_6  and  C_8
REMARK                            x       y       z     vdW  Elec       q    Type
REMARK                         _______ _______ _______ _____ _____    ______ ____
ROOT
ATOM      1  N   UNL     1       5.078   5.168  17.969  0.00  0.00    +0.000 N 
ATOM      2  C   UNL     1       4.951   4.256  18.990  0.00  0.00    +0.000 C 
ATOM      3  O   UNL     1       5.947   3.746  19.503  0.00  0.00    +0.000 OA
ATOM      4  H   UNL     1       4.273   5.316  17.370  0.00  0.00    +0.000 HD
ENDROOT
BRANCH   2   5
ATOM      5  C   UNL     1       3.509   3.878  19.388  0.00  0.00    +0.000 C 
ATOM      6  C   UNL     1       2.505   4.337  18.303  0.00  0.00    +0.000 C 
ATOM      7  C   UNL     1       1.073   3.889  18.666  0.00  0.00    +0.000 C 
ATOM      8  C   UNL     1       1.032   2.357  18.790  0.00  0.00    +0.000 C 
ATOM      9  C   UNL     1       1.996   1.894  19.893  0.00  0.00    +0.000 C 
ATOM     10  C   UNL     1       1.605   2.536  21.232  0.00  0.00    +0.000 C 
ATOM     11  C   UNL     1       1.652   4.068  21.112  0.00  0.00    +0.000 C 
ATOM     12  C   UNL     1       0.668   4.509  20.014  0.00  0.00    +0.000 C 
ATOM     13  C   UNL     1       3.080   4.511  20.735  0.00  0.00    +0.000 C 
ATOM     14  C   UNL     1       3.419   2.335  19.523  0.00  0.00    +0.000 C 
ENDBRANCH   2   5
BRANCH   1  15
ATOM     15  C   UNL     1       6.393   5.441  17.380  0.00  0.00    +0.000 C 
BRANCH  15  16
ATOM     16  C   UNL     1       6.442   4.646  16.058  0.00  0.00    +0.000 C 
ATOM     17  O   UNL     1       6.318   3.423  16.058  0.00  0.00    +0.000 OA
ATOM     18  N   UNL     1       6.827   5.380  14.942  0.00  0.00    +0.000 N 
ATOM     19  C   UNL     1       6.886   4.900  13.666  0.00  0.00    +0.000 C 
ATOM     20  N   UNL     1       7.744   5.373  12.830  0.00  0.00    +0.000 NA
ATOM     21  C   UNL     1       7.626   4.636  11.548  0.00  0.00    +0.000 C 
ATOM     22  C   UNL     1       6.927   3.301  11.765  0.00  0.00    +0.000 C 
ATOM     23  S   UNL     1       5.792   3.673  13.107  0.00  0.00    +0.000 S 
ATOM     24  H   UNL     1       7.445   6.163  15.116  0.00  0.00    +0.000 HD
ENDBRANCH  15  16
BRANCH  15  26
ATOM     25  C   UNL     1       5.410   7.852  17.444  0.00  0.00    +0.000 C 
ATOM     26  C   UNL     1       6.628   6.961  17.163  0.00  0.00    +0.000 C 
ATOM     27  C   UNL     1       7.810   7.460  18.006  0.00  0.00    +0.000 C 
ENDBRANCH  15  26
ENDBRANCH   1  15
TORSDOF 4
ENDMDL
MODEL 7
REMARK VINA RESULT:      -7.1      3.711      7.287
REMARK  Name = 
REMARK  6 active torsions:
REMARK  status: ('A' for Active; 'I' for Inactive)
REMARK    1  A    between atoms: C_1  and  C_2
REMARK    2  A    between atoms: C_2  and  C_3
REMARK    3  A    between atoms: C_2  and  C_4
REMARK    4  A    between atoms: C_4  and  N_5
REMARK    5  A    between atoms: C_4  and  C_18
REMARK    6  A    between atoms: C_6  and  C_8
REMARK                            x       y       z     vdW  Elec       q    Type
REMARK                         _______ _______ _______ _____ _____    ______ ____
ROOT
ATOM      1  N   UNL     1       5.095   5.006  17.913  0.00  0.00    +0.000 N 
ATOM      2  C   UNL     1       4.967   4.180  19.005  0.00  0.00    +0.000 C 
ATOM      3  O   UNL     1       5.963   3.749  19.585  0.00  0.00    +0.000 OA
ATOM      4  H   UNL     1       4.302   5.076  17.284  0.00  0.00    +0.000 HD
ENDROOT
BRANCH   2   5
ATOM      5  C   UNL     1       3.527   3.791  19.398  0.00  0.00    +0.000 C 
ATOM      6  C   UNL     1       3.151   4.401  20.771  0.00  0.00    +0.000 C 
ATOM      7  C   UNL     1       1.685   4.076  21.125  0.00  0.00    +0.000 C 
ATOM      8  C   UNL     1       0.757   4.644  20.038  0.00  0.00    +0.000 C 
ATOM      9  C   UNL     1       1.096   4.013  18.677  0.00  0.00    +0.000 C 
ATOM     10  C   UNL     1       0.936   2.488  18.755  0.00  0.00    +0.000 C 
ATOM     11  C   UNL     1       1.867   1.917  19.837  0.00  0.00    +0.000 C 
ATOM     12  C   UNL     1       1.500   2.550  21.190  0.00  0.00    +0.000 C 
ATOM     13  C   UNL     1       3.330   2.257  19.487  0.00  0.00    +0.000 C 
ATOM     14  C   UNL     1       2.552   4.347  18.327  0.00  0.00    +0.000 C 
ENDBRANCH   2   5
BRANCH   1  15
ATOM     15  C   UNL     1       6.417   5.271  17.336  0.00  0.00    +0.000 C 
BRANCH  15  16
ATOM     16  C   UNL     1       6.448   4.529  15.983  0.00  0.00    +0.000 C 
ATOM     17  O   UNL     1       6.294   3.310  15.933  0.00  0.00    +0.000 OA
ATOM     18  N   UNL     1       6.854   5.297  14.898  0.00  0.00    +0.000 N 
ATOM     19  C   UNL     1       6.904   4.867  13.604  0.00  0.00    +0.000 C 
ATOM     20  N   UNL     1       7.775   5.352  12.788  0.00  0.00    +0.000 NA
ATOM     21  C   UNL     1       7.642   4.669  11.478  0.00  0.00    +0.000 C 
ATOM     22  C   UNL     1       6.908   3.346  11.640  0.00  0.00    +0.000 C 
ATOM     23  S   UNL     1       5.780   3.692  12.995  0.00  0.00    +0.000 S 
ATOM     24  H   UNL     1       7.492   6.056  15.104  0.00  0.00    +0.000 HD
ENDBRANCH  15  16
BRANCH  15  26
ATOM     25  C   UNL     1       5.462   7.694  17.382  0.00  0.00    +0.000 C 
ATOM     26  C   UNL     1       6.689   6.792  17.180  0.00  0.00    +0.000 C 
ATOM     27  C   UNL     1       7.801   7.251  18.131  0.00  0.00    +0.000 C 
ENDBRANCH  15  26
ENDBRANCH   1  15
TORSDOF 4
ENDMDL
MODEL 8
REMARK VINA RESULT:      -7.1      3.987      7.255
REMARK  Name = 
REMARK  6 active torsions:
REMARK  status: ('A' for Active; 'I' for Inactive)
REMARK    1  A    between atoms: C_1  and  C_2
REMARK    2  A    between atoms: C_2  and  C_3
REMARK    3  A    between atoms: C_2  and  C_4
REMARK    4  A    between atoms: C_4  and  N_5
REMARK    5  A    between atoms: C_4  and  C_18
REMARK    6  A    between atoms: C_6  and  C_8
REMARK                            x       y       z     vdW  Elec       q    Type
REMARK                         _______ _______ _______ _____ _____    ______ ____
ROOT
ATOM      1  N   UNL     1       5.621   5.037  17.356  0.00  0.00    +0.000 N 
ATOM      2  C   UNL     1       5.375   4.360  18.528  0.00  0.00    +0.000 C 
ATOM      3  O   UNL     1       6.297   4.070  19.290  0.00  0.00    +0.000 OA
ATOM      4  H   UNL     1       4.922   4.974  16.624  0.00  0.00    +0.000 HD
ENDROOT
BRANCH   2   5
ATOM      5  C   UNL     1       3.911   3.942  18.777  0.00  0.00    +0.000 C 
ATOM      6  C   UNL     1       3.406   3.018  17.642  0.00  0.00    +0.000 C 
ATOM      7  C   UNL     1       1.968   2.538  17.935  0.00  0.00    +0.000 C 
ATOM      8  C   UNL     1       1.944   1.775  19.269  0.00  0.00    +0.000 C 
ATOM      9  C   UNL     1       2.406   2.697  20.409  0.00  0.00    +0.000 C 
ATOM     10  C   UNL     1       1.486   3.923  20.494  0.00  0.00    +0.000 C 
ATOM     11  C   UNL     1       1.514   4.692  19.162  0.00  0.00    +0.000 C 
ATOM     12  C   UNL     1       1.033   3.756  18.040  0.00  0.00    +0.000 C 
ATOM     13  C   UNL     1       2.955   5.157  18.867  0.00  0.00    +0.000 C 
ATOM     14  C   UNL     1       3.838   3.163  20.117  0.00  0.00    +0.000 C 
ENDBRANCH   2   5
BRANCH   1  15
ATOM     15  C   UNL     1       6.999   5.299  16.928  0.00  0.00    +0.000 C 
BRANCH  15  16
ATOM     16  C   UNL     1       7.030   5.038  15.407  0.00  0.00    +0.000 C 
ATOM     17  O   UNL     1       7.805   5.657  14.681  0.00  0.00    +0.000 OA
ATOM     18  N   UNL     1       6.008   4.228  14.926  0.00  0.00    +0.000 N 
ATOM     19  C   UNL     1       5.870   3.820  13.631  0.00  0.00    +0.000 C 
ATOM     20  N   UNL     1       4.701   3.600  13.138  0.00  0.00    +0.000 NA
ATOM     21  C   UNL     1       4.842   3.229  11.708  0.00  0.00    +0.000 C 
ATOM     22  C   UNL     1       6.191   3.686  11.171  0.00  0.00    +0.000 C 
ATOM     23  S   UNL     1       7.251   3.544  12.615  0.00  0.00    +0.000 S 
ATOM     24  H   UNL     1       5.138   4.254  15.444  0.00  0.00    +0.000 HD
ENDBRANCH  15  16
BRANCH  15  26
ATOM     25  C   UNL     1       6.342   7.797  17.265  0.00  0.00    +0.000 C 
ATOM     26  C   UNL     1       7.455   6.740  17.289  0.00  0.00    +0.000 C 
ATOM     27  C   UNL     1       8.137   6.772  18.662  0.00  0.00    +0.000 C 
ENDBRANCH  15  26
ENDBRANCH   1  15
TORSDOF 4
ENDMDL
MODEL 9
REMARK VINA RESULT:      -7.1      3.695      7.299
REMARK  Name = 
REMARK  6 active torsions:
REMARK  status: ('A' for Active; 'I' for Inactive)
REMARK    1  A    between atoms: C_1  and  C_2
REMARK    2  A    between atoms: C_2  and  C_3
REMARK    3  A    between atoms: C_2  and  C_4
REMARK    4  A    between atoms: C_4  and  N_5
REMARK    5  A    between atoms: C_4  and  C_18
REMARK    6  A    between atoms: C_6  and  C_8
REMARK                            x       y       z     vdW  Elec       q    Type
REMARK                         _______ _______ _______ _____ _____    ______ ____
ROOT
ATOM      1  N   UNL     1       4.981   5.109  17.861  0.00  0.00    +0.000 N 
ATOM      2  C   UNL     1       4.875   4.240  18.922  0.00  0.00    +0.000 C 
ATOM      3  O   UNL     1       5.883   3.802  19.476  0.00  0.00    +0.000 OA
ATOM      4  H   UNL     1       4.182   5.191  17.242  0.00  0.00    +0.000 HD
ENDROOT
BRANCH   2   5
ATOM      5  C   UNL     1       3.445   3.814  19.312  0.00  0.00    +0.000 C 
ATOM      6  C   UNL     1       3.341   2.272  19.411  0.00  0.00    +0.000 C 
ATOM      7  C   UNL     1       1.931   1.853  19.877  0.00  0.00    +0.000 C 
ATOM      8  C   UNL     1       1.639   2.477  21.252  0.00  0.00    +0.000 C 
ATOM      9  C   UNL     1       1.699   4.010  21.155  0.00  0.00    +0.000 C 
ATOM     10  C   UNL     1       0.674   4.509  20.127  0.00  0.00    +0.000 C 
ATOM     11  C   UNL     1       0.968   3.890  18.751  0.00  0.00    +0.000 C 
ATOM     12  C   UNL     1       0.886   2.359  18.868  0.00  0.00    +0.000 C 
ATOM     13  C   UNL     1       2.383   4.300  18.295  0.00  0.00    +0.000 C 
ATOM     14  C   UNL     1       3.106   4.421  20.699  0.00  0.00    +0.000 C 
ENDBRANCH   2   5
BRANCH   1  15
ATOM     15  C   UNL     1       6.293   5.415  17.284  0.00  0.00    +0.000 C 
BRANCH  15  16
ATOM     16  C   UNL     1       6.375   4.621  15.963  0.00  0.00    +0.000 C 
ATOM     17  O   UNL     1       6.256   3.398  15.959  0.00  0.00    +0.000 OA
ATOM     18  N   UNL     1       6.780   5.358  14.856  0.00  0.00    +0.000 N 
ATOM     19  C   UNL     1       6.869   4.879  13.581  0.00  0.00    +0.000 C 
ATOM     20  N   UNL     1       7.742   5.357  12.764  0.00  0.00    +0.000 NA
ATOM     21  C   UNL     1       7.656   4.619  11.479  0.00  0.00    +0.000 C 
ATOM     22  C   UNL     1       6.958   3.282  11.680  0.00  0.00    +0.000 C 
ATOM     23  S   UNL     1       5.793   3.647  12.998  0.00  0.00    +0.000 S 
ATOM     24  H   UNL     1       7.391   6.144  15.044  0.00  0.00    +0.000 HD
ENDBRANCH  15  16
BRANCH  15  26
ATOM     25  C   UNL     1       5.273   7.808  17.413  0.00  0.00    +0.000 C 
ATOM     26  C   UNL     1       6.492   6.941  17.068  0.00  0.00    +0.000 C 
ATOM     27  C   UNL     1       7.703   7.454  17.858  0.00  0.00    +0.000 C 
ENDBRANCH  15  26
ENDBRANCH   1  15
TORSDOF 4
ENDMDL
