MODEL 1
REMARK VINA RESULT:      -8.6      0.000      0.000
REMARK  Name = 
REMARK  6 active torsions:
REMARK  status: ('A' for Active; 'I' for Inactive)
REMARK    1  A    between atoms: C_1  and  C_2
REMARK    2  A    between atoms: C_5  and  C_6
REMARK    3  A    between atoms: C_9  and  C_10
REMARK    4  A    between atoms: C_15  and  N_16
REMARK    5  A    between atoms: N_16  and  C_17
REMARK    6  A    between atoms: C_17  and  C_18
REMARK                            x       y       z     vdW  Elec       q    Type
REMARK                         _______ _______ _______ _____ _____    ______ ____
ROOT
ATOM      1  C   UNL     1       4.866   5.667  17.352  0.00  0.00    +0.000 A 
ATOM      2  C   UNL     1       6.068   6.344  17.083  0.00  0.00    +0.000 A 
ATOM      3  C   UNL     1       7.030   5.770  16.263  0.00  0.00    +0.000 A 
ATOM      4  C   UNL     1       6.760   4.527  15.730  0.00  0.00    +0.000 A 
ATOM      5  N   UNL     1       5.616   3.845  15.960  0.00  0.00    +0.000 NA
ATOM      6  C   UNL     1       4.677   4.401  16.761  0.00  0.00    +0.000 A 
ENDROOT
BRANCH   1  10
ATOM      7  C   UNL     1       2.369   7.567  19.014  0.00  0.00    +0.000 A 
ATOM      8  N   UNL     1       2.566   6.612  19.936  0.00  0.00    +0.000 NA
ATOM      9  O   UNL     1       3.549   5.813  19.376  0.00  0.00    +0.000 OA
ATOM     10  C   UNL     1       3.858   6.348  18.159  0.00  0.00    +0.000 A 
ATOM     11  N   UNL     1       3.164   7.435  17.894  0.00  0.00    +0.000 NA
BRANCH   7  16
ATOM     12  C   UNL     1      -1.535  11.761  19.682  0.00  0.00    +0.000 C 
ATOM     13  C   UNL     1      -0.477  10.715  19.513  0.00  0.00    +0.000 A 
ATOM     14  C   UNL     1       0.036  10.415  18.246  0.00  0.00    +0.000 A 
ATOM     15  C   UNL     1       0.982   9.402  18.090  0.00  0.00    +0.000 A 
ATOM     16  C   UNL     1       1.436   8.669  19.197  0.00  0.00    +0.000 A 
ATOM     17  C   UNL     1       0.947   8.993  20.469  0.00  0.00    +0.000 A 
ATOM     18  C   UNL     1      -0.003  10.008  20.625  0.00  0.00    +0.000 A 
ENDBRANCH   7  16
ENDBRANCH   1  10
BRANCH   6  19
ATOM     19  N   UNL     1       3.487   3.699  16.959  0.00  0.00    +0.000 N 
ATOM     20  H   UNL     1       2.731   4.322  17.234  0.00  0.00    +0.000 HD
BRANCH  19  21
ATOM     21  C   UNL     1       3.536   2.497  17.781  0.00  0.00    +0.000 C 
BRANCH  21  22
ATOM     22  C   UNL     1       2.776   2.720  19.083  0.00  0.00    +0.000 A 
ATOM     23  C   UNL     1       1.420   3.063  19.053  0.00  0.00    +0.000 A 
ATOM     24  C   UNL     1       0.718   3.172  20.250  0.00  0.00    +0.000 A 
ATOM     25  C   UNL     1       1.382   2.939  21.447  0.00  0.00    +0.000 A 
ATOM     26  C   UNL     1       2.730   2.622  21.396  0.00  0.00    +0.000 A 
ATOM     27  N   UNL     1       3.439   2.508  20.249  0.00  0.00    +0.000 NA
ENDBRANCH  21  22
ENDBRANCH  19  21
ENDBRANCH   6  19
TORSDOF 5
ENDMDL
MODEL 2
REMARK VINA RESULT:      -8.4      1.904      4.669
REMARK  Name = 
REMARK  6 active torsions:
REMARK  status: ('A' for Active; 'I' for Inactive)
REMARK    1  A    between atoms: C_1  and  C_2
REMARK    2  A    between atoms: C_5  and  C_6
REMARK    3  A    between atoms: C_9  and  C_10
REMARK    4  A    between atoms: C_15  and  N_16
REMARK    5  A    between atoms: N_16  and  C_17
REMARK    6  A    between atoms: C_17  and  C_18
REMARK                            x       y       z     vdW  Elec       q    Type
REMARK                         _______ _______ _______ _____ _____    ______ ____
ROOT
ATOM      1  C   UNL     1       2.112   5.273  20.214  0.00  0.00    +0.000 A 
ATOM      2  C   UNL     1       1.142   4.333  20.604  0.00  0.00    +0.000 A 
ATOM      3  C   UNL     1       1.450   2.979  20.641  0.00  0.00    +0.000 A 
ATOM      4  C   UNL     1       2.728   2.602  20.286  0.00  0.00    +0.000 A 
ATOM      5  N   UNL     1       3.690   3.474  19.909  0.00  0.00    +0.000 NA
ATOM      6  C   UNL     1       3.392   4.795  19.870  0.00  0.00    +0.000 A 
ENDROOT
BRANCH   1  10
ATOM      7  C   UNL     1       1.108   8.645  20.694  0.00  0.00    +0.000 A 
ATOM      8  N   UNL     1       1.706   8.763  19.500  0.00  0.00    +0.000 NA
ATOM      9  O   UNL     1       2.129   7.476  19.215  0.00  0.00    +0.000 OA
ATOM     10  C   UNL     1       1.758   6.688  20.265  0.00  0.00    +0.000 A 
ATOM     11  N   UNL     1       1.116   7.361  21.199  0.00  0.00    +0.000 NA
BRANCH   7  16
ATOM     12  C   UNL     1      -1.648  13.036  23.225  0.00  0.00    +0.000 C 
ATOM     13  C   UNL     1      -0.883  11.908  22.603  0.00  0.00    +0.000 A 
ATOM     14  C   UNL     1      -0.056  12.130  21.496  0.00  0.00    +0.000 A 
ATOM     15  C   UNL     1       0.610  11.065  20.889  0.00  0.00    +0.000 A 
ATOM     16  C   UNL     1       0.465   9.758  21.377  0.00  0.00    +0.000 A 
ATOM     17  C   UNL     1      -0.335   9.543  22.507  0.00  0.00    +0.000 A 
ATOM     18  C   UNL     1      -1.005  10.610  23.114  0.00  0.00    +0.000 A 
ENDBRANCH   7  16
ENDBRANCH   1  10
BRANCH   6  19
ATOM     19  N   UNL     1       4.407   5.683  19.514  0.00  0.00    +0.000 N 
ATOM     20  H   UNL     1       4.083   6.358  18.825  0.00  0.00    +0.000 HD
BRANCH  19  21
ATOM     21  C   UNL     1       5.708   5.125  19.169  0.00  0.00    +0.000 C 
BRANCH  21  22
ATOM     22  C   UNL     1       5.886   5.104  17.656  0.00  0.00    +0.000 A 
ATOM     23  C   UNL     1       5.034   5.856  16.840  0.00  0.00    +0.000 A 
ATOM     24  C   UNL     1       5.266   5.899  15.468  0.00  0.00    +0.000 A 
ATOM     25  C   UNL     1       6.340   5.193  14.941  0.00  0.00    +0.000 A 
ATOM     26  C   UNL     1       7.127   4.456  15.812  0.00  0.00    +0.000 A 
ATOM     27  N   UNL     1       6.927   4.395  17.149  0.00  0.00    +0.000 NA
ENDBRANCH  21  22
ENDBRANCH  19  21
ENDBRANCH   6  19
TORSDOF 5
ENDMDL
MODEL 3
REMARK VINA RESULT:      -8.4      1.014      1.283
REMARK  Name = 
REMARK  6 active torsions:
REMARK  status: ('A' for Active; 'I' for Inactive)
REMARK    1  A    between atoms: C_1  and  C_2
REMARK    2  A    between atoms: C_5  and  C_6
REMARK    3  A    between atoms: C_9  and  C_10
REMARK    4  A    between atoms: C_15  and  N_16
REMARK    5  A    between atoms: N_16  and  C_17
REMARK    6  A    between atoms: C_17  and  C_18
REMARK                            x       y       z     vdW  Elec       q    Type
REMARK                         _______ _______ _______ _____ _____    ______ ____
ROOT
ATOM      1  C   UNL     1       4.888   5.250  16.635  0.00  0.00    +0.000 A 
ATOM      2  C   UNL     1       5.330   5.961  15.506  0.00  0.00    +0.000 A 
ATOM      3  C   UNL     1       6.022   5.311  14.492  0.00  0.00    +0.000 A 
ATOM      4  C   UNL     1       6.253   3.960  14.637  0.00  0.00    +0.000 A 
ATOM      5  N   UNL     1       5.842   3.238  15.704  0.00  0.00    +0.000 NA
ATOM      6  C   UNL     1       5.169   3.870  16.696  0.00  0.00    +0.000 A 
ENDROOT
BRANCH   1  10
ATOM      7  C   UNL     1       2.815   7.188  18.769  0.00  0.00    +0.000 A 
ATOM      8  N   UNL     1       3.373   6.380  19.682  0.00  0.00    +0.000 NA
ATOM      9  O   UNL     1       4.222   5.579  18.938  0.00  0.00    +0.000 OA
ATOM     10  C   UNL     1       4.101   5.965  17.635  0.00  0.00    +0.000 A 
ATOM     11  N   UNL     1       3.252   6.960  17.480  0.00  0.00    +0.000 NA
BRANCH   7  16
ATOM     12  C   UNL     1      -1.133  11.198  20.038  0.00  0.00    +0.000 C 
ATOM     13  C   UNL     1      -0.063  10.199  19.719  0.00  0.00    +0.000 A 
ATOM     14  C   UNL     1       0.445  10.087  18.421  0.00  0.00    +0.000 A 
ATOM     15  C   UNL     1       1.401   9.118  18.119  0.00  0.00    +0.000 A 
ATOM     16  C   UNL     1       1.870   8.242  19.109  0.00  0.00    +0.000 A 
ATOM     17  C   UNL     1       1.386   8.378  20.416  0.00  0.00    +0.000 A 
ATOM     18  C   UNL     1       0.425   9.348  20.718  0.00  0.00    +0.000 A 
ENDBRANCH   7  16
ENDBRANCH   1  10
BRANCH   6  19
ATOM     19  N   UNL     1       4.721   3.103  17.772  0.00  0.00    +0.000 N 
ATOM     20  H   UNL     1       5.426   2.433  18.067  0.00  0.00    +0.000 HD
BRANCH  19  21
ATOM     21  C   UNL     1       3.397   2.502  17.674  0.00  0.00    +0.000 C 
BRANCH  21  22
ATOM     22  C   UNL     1       2.629   2.707  18.974  0.00  0.00    +0.000 A 
ATOM     23  C   UNL     1       3.255   2.468  20.203  0.00  0.00    +0.000 A 
ATOM     24  C   UNL     1       2.570   2.747  21.382  0.00  0.00    +0.000 A 
ATOM     25  C   UNL     1       1.281   3.258  21.312  0.00  0.00    +0.000 A 
ATOM     26  C   UNL     1       0.722   3.450  20.058  0.00  0.00    +0.000 A 
ATOM     27  N   UNL     1       1.362   3.188  18.894  0.00  0.00    +0.000 NA
ENDBRANCH  21  22
ENDBRANCH  19  21
ENDBRANCH   6  19
TORSDOF 5
ENDMDL
MODEL 4
REMARK VINA RESULT:      -8.3      1.645      6.434
REMARK  Name = 
REMARK  6 active torsions:
REMARK  status: ('A' for Active; 'I' for Inactive)
REMARK    1  A    between atoms: C_1  and  C_2
REMARK    2  A    between atoms: C_5  and  C_6
REMARK    3  A    between atoms: C_9  and  C_10
REMARK    4  A    between atoms: C_15  and  N_16
REMARK    5  A    between atoms: N_16  and  C_17
REMARK    6  A    between atoms: C_17  and  C_18
REMARK                            x       y       z     vdW  Elec       q    Type
REMARK                         _______ _______ _______ _____ _____    ______ ____
ROOT
ATOM      1  C   UNL     1       2.665   7.531  18.741  0.00  0.00    +0.000 A 
ATOM      2  C   UNL     1       2.310   8.738  18.115  0.00  0.00    +0.000 A 
ATOM      3  C   UNL     1       1.415   9.609  18.722  0.00  0.00    +0.000 A 
ATOM      4  C   UNL     1       0.897   9.245  19.948  0.00  0.00    +0.000 A 
ATOM      5  N   UNL     1       1.216   8.097  20.586  0.00  0.00    +0.000 NA
ATOM      6  C   UNL     1       2.087   7.245  19.994  0.00  0.00    +0.000 A 
ENDROOT
BRANCH   1  10
ATOM      7  C   UNL     1       4.959   5.611  16.829  0.00  0.00    +0.000 A 
ATOM      8  N   UNL     1       5.403   5.318  18.060  0.00  0.00    +0.000 NA
ATOM      9  O   UNL     1       4.550   6.022  18.893  0.00  0.00    +0.000 OA
ATOM     10  C   UNL     1       3.667   6.689  18.095  0.00  0.00    +0.000 A 
ATOM     11  N   UNL     1       3.872   6.460  16.814  0.00  0.00    +0.000 NA
BRANCH   7  16
ATOM     12  C   UNL     1       7.152   3.591  11.890  0.00  0.00    +0.000 C 
ATOM     13  C   UNL     1       6.602   4.063  13.200  0.00  0.00    +0.000 A 
ATOM     14  C   UNL     1       5.301   3.728  13.591  0.00  0.00    +0.000 A 
ATOM     15  C   UNL     1       4.776   4.216  14.788  0.00  0.00    +0.000 A 
ATOM     16  C   UNL     1       5.540   5.049  15.618  0.00  0.00    +0.000 A 
ATOM     17  C   UNL     1       6.855   5.356  15.243  0.00  0.00    +0.000 A 
ATOM     18  C   UNL     1       7.380   4.868  14.042  0.00  0.00    +0.000 A 
ENDBRANCH   7  16
ENDBRANCH   1  10
BRANCH   6  19
ATOM     19  N   UNL     1       2.433   6.081  20.683  0.00  0.00    +0.000 N 
ATOM     20  H   UNL     1       3.408   5.837  20.530  0.00  0.00    +0.000 HD
BRANCH  19  21
ATOM     21  C   UNL     1       1.550   4.929  20.555  0.00  0.00    +0.000 C 
BRANCH  21  22
ATOM     22  C   UNL     1       2.173   3.890  19.630  0.00  0.00    +0.000 A 
ATOM     23  C   UNL     1       1.749   3.791  18.301  0.00  0.00    +0.000 A 
ATOM     24  C   UNL     1       2.391   2.901  17.445  0.00  0.00    +0.000 A 
ATOM     25  C   UNL     1       3.439   2.131  17.931  0.00  0.00    +0.000 A 
ATOM     26  C   UNL     1       3.789   2.272  19.265  0.00  0.00    +0.000 A 
ATOM     27  N   UNL     1       3.184   3.128  20.121  0.00  0.00    +0.000 NA
ENDBRANCH  21  22
ENDBRANCH  19  21
ENDBRANCH   6  19
TORSDOF 5
ENDMDL
MODEL 5
REMARK VINA RESULT:      -8.3      3.975      5.487
REMARK  Name = 
REMARK  6 active torsions:
REMARK  status: ('A' for Active; 'I' for Inactive)
REMARK    1  A    between atoms: C_1  and  C_2
REMARK    2  A    between atoms: C_5  and  C_6
REMARK    3  A    between atoms: C_9  and  C_10
REMARK    4  A    between atoms: C_15  and  N_16
REMARK    5  A    between atoms: N_16  and  C_17
REMARK    6  A    between atoms: C_17  and  C_18
REMARK                            x       y       z     vdW  Elec       q    Type
REMARK                         _______ _______ _______ _____ _____    ______ ____
ROOT
ATOM      1  C   UNL     1       6.640   5.755  16.631  0.00  0.00    +0.000 A 
ATOM      2  C   UNL     1       7.238   5.278  15.452  0.00  0.00    +0.000 A 
ATOM      3  C   UNL     1       6.569   4.369  14.642  0.00  0.00    +0.000 A 
ATOM      4  C   UNL     1       5.312   3.961  15.038  0.00  0.00    +0.000 A 
ATOM      5  N   UNL     1       4.701   4.397  16.161  0.00  0.00    +0.000 NA
ATOM      6  C   UNL     1       5.352   5.283  16.954  0.00  0.00    +0.000 A 
ENDROOT
BRANCH   1  10
ATOM      7  C   UNL     1       8.246   8.473  18.254  0.00  0.00    +0.000 A 
ATOM      8  N   UNL     1       8.558   7.491  19.113  0.00  0.00    +0.000 NA
ATOM      9  O   UNL     1       7.976   6.367  18.553  0.00  0.00    +0.000 OA
ATOM     10  C   UNL     1       7.354   6.765  17.405  0.00  0.00    +0.000 A 
ATOM     11  N   UNL     1       7.500   8.053  17.173  0.00  0.00    +0.000 NA
BRANCH   7  16
ATOM     12  C   UNL     1       9.785  13.976  19.051  0.00  0.00    +0.000 C 
ATOM     13  C   UNL     1       9.435  12.540  18.807  0.00  0.00    +0.000 A 
ATOM     14  C   UNL     1       8.641  12.174  17.714  0.00  0.00    +0.000 A 
ATOM     15  C   UNL     1       8.274  10.842  17.524  0.00  0.00    +0.000 A 
ATOM     16  C   UNL     1       8.693   9.848  18.421  0.00  0.00    +0.000 A 
ATOM     17  C   UNL     1       9.517  10.211  19.495  0.00  0.00    +0.000 A 
ATOM     18  C   UNL     1       9.882  11.547  19.687  0.00  0.00    +0.000 A 
ENDBRANCH   7  16
ENDBRANCH   1  10
BRANCH   6  19
ATOM     19  N   UNL     1       4.691   5.751  18.090  0.00  0.00    +0.000 N 
ATOM     20  H   UNL     1       4.889   6.735  18.254  0.00  0.00    +0.000 HD
BRANCH  19  21
ATOM     21  C   UNL     1       4.792   4.959  19.309  0.00  0.00    +0.000 C 
BRANCH  21  22
ATOM     22  C   UNL     1       3.455   4.297  19.618  0.00  0.00    +0.000 A 
ATOM     23  C   UNL     1       2.473   4.998  20.327  0.00  0.00    +0.000 A 
ATOM     24  C   UNL     1       1.225   4.414  20.521  0.00  0.00    +0.000 A 
ATOM     25  C   UNL     1       0.983   3.147  20.006  0.00  0.00    +0.000 A 
ATOM     26  C   UNL     1       2.012   2.509  19.331  0.00  0.00    +0.000 A 
ATOM     27  N   UNL     1       3.235   3.050  19.127  0.00  0.00    +0.000 NA
ENDBRANCH  21  22
ENDBRANCH  19  21
ENDBRANCH   6  19
TORSDOF 5
ENDMDL
MODEL 6
REMARK VINA RESULT:      -8.3      1.201      1.758
REMARK  Name = 
REMARK  6 active torsions:
REMARK  status: ('A' for Active; 'I' for Inactive)
REMARK    1  A    between atoms: C_1  and  C_2
REMARK    2  A    between atoms: C_5  and  C_6
REMARK    3  A    between atoms: C_9  and  C_10
REMARK    4  A    between atoms: C_15  and  N_16
REMARK    5  A    between atoms: N_16  and  C_17
REMARK    6  A    between atoms: C_17  and  C_18
REMARK                            x       y       z     vdW  Elec       q    Type
REMARK                         _______ _______ _______ _____ _____    ______ ____
ROOT
ATOM      1  C   UNL     1       4.705   6.099  17.402  0.00  0.00    +0.000 A 
ATOM      2  C   UNL     1       6.035   6.553  17.417  0.00  0.00    +0.000 A 
ATOM      3  C   UNL     1       7.063   5.735  16.968  0.00  0.00    +0.000 A 
ATOM      4  C   UNL     1       6.729   4.476  16.514  0.00  0.00    +0.000 A 
ATOM      5  N   UNL     1       5.464   4.002  16.480  0.00  0.00    +0.000 NA
ATOM      6  C   UNL     1       4.459   4.798  16.918  0.00  0.00    +0.000 A 
ENDROOT
BRANCH   1  10
ATOM      7  C   UNL     1       2.215   8.229  18.768  0.00  0.00    +0.000 A 
ATOM      8  N   UNL     1       2.165   8.629  17.488  0.00  0.00    +0.000 NA
ATOM      9  O   UNL     1       3.110   7.834  16.860  0.00  0.00    +0.000 OA
ATOM     10  C   UNL     1       3.656   7.026  17.814  0.00  0.00    +0.000 A 
ATOM     11  N   UNL     1       3.131   7.225  19.005  0.00  0.00    +0.000 NA
BRANCH   7  16
ATOM     12  C   UNL     1      -1.000  10.499  22.987  0.00  0.00    +0.000 C 
ATOM     13  C   UNL     1      -0.215   9.876  21.873  0.00  0.00    +0.000 A 
ATOM     14  C   UNL     1       0.451   8.660  22.061  0.00  0.00    +0.000 A 
ATOM     15  C   UNL     1       1.224   8.114  21.038  0.00  0.00    +0.000 A 
ATOM     16  C   UNL     1       1.348   8.771  19.805  0.00  0.00    +0.000 A 
ATOM     17  C   UNL     1       0.654   9.971  19.605  0.00  0.00    +0.000 A 
ATOM     18  C   UNL     1      -0.120  10.520  20.633  0.00  0.00    +0.000 A 
ENDBRANCH   7  16
ENDBRANCH   1  10
BRANCH   6  19
ATOM     19  N   UNL     1       3.155   4.307  16.842  0.00  0.00    +0.000 N 
ATOM     20  H   UNL     1       2.476   5.020  17.095  0.00  0.00    +0.000 HD
BRANCH  19  21
ATOM     21  C   UNL     1       2.873   3.027  17.479  0.00  0.00    +0.000 C 
BRANCH  21  22
ATOM     22  C   UNL     1       2.592   3.231  18.963  0.00  0.00    +0.000 A 
ATOM     23  C   UNL     1       1.553   4.075  19.370  0.00  0.00    +0.000 A 
ATOM     24  C   UNL     1       1.249   4.178  20.724  0.00  0.00    +0.000 A 
ATOM     25  C   UNL     1       1.986   3.441  21.641  0.00  0.00    +0.000 A 
ATOM     26  C   UNL     1       3.013   2.641  21.163  0.00  0.00    +0.000 A 
ATOM     27  N   UNL     1       3.331   2.520  19.853  0.00  0.00    +0.000 NA
ENDBRANCH  21  22
ENDBRANCH  19  21
ENDBRANCH   6  19
TORSDOF 5
ENDMDL
MODEL 7
REMARK VINA RESULT:      -8.2      1.928      4.599
REMARK  Name = 
REMARK  6 active torsions:
REMARK  status: ('A' for Active; 'I' for Inactive)
REMARK    1  A    between atoms: C_1  and  C_2
REMARK    2  A    between atoms: C_5  and  C_6
REMARK    3  A    between atoms: C_9  and  C_10
REMARK    4  A    between atoms: C_15  and  N_16
REMARK    5  A    between atoms: N_16  and  C_17
REMARK    6  A    between atoms: C_17  and  C_18
REMARK                            x       y       z     vdW  Elec       q    Type
REMARK                         _______ _______ _______ _____ _____    ______ ____
ROOT
ATOM      1  C   UNL     1       2.434   4.992  20.214  0.00  0.00    +0.000 A 
ATOM      2  C   UNL     1       2.118   4.195  21.329  0.00  0.00    +0.000 A 
ATOM      3  C   UNL     1       2.564   2.882  21.404  0.00  0.00    +0.000 A 
ATOM      4  C   UNL     1       3.320   2.400  20.357  0.00  0.00    +0.000 A 
ATOM      5  N   UNL     1       3.650   3.133  19.270  0.00  0.00    +0.000 NA
ATOM      6  C   UNL     1       3.214   4.414  19.193  0.00  0.00    +0.000 A 
ENDROOT
BRANCH   1  10
ATOM      7  C   UNL     1       1.221   8.309  20.574  0.00  0.00    +0.000 A 
ATOM      8  N   UNL     1       1.909   8.451  19.432  0.00  0.00    +0.000 NA
ATOM      9  O   UNL     1       2.420   7.187  19.196  0.00  0.00    +0.000 OA
ATOM     10  C   UNL     1       2.004   6.387  20.221  0.00  0.00    +0.000 A 
ATOM     11  N   UNL     1       1.255   7.030  21.092  0.00  0.00    +0.000 NA
BRANCH   7  16
ATOM     12  C   UNL     1      -1.536  12.677  23.145  0.00  0.00    +0.000 C 
ATOM     13  C   UNL     1      -0.875  11.522  22.456  0.00  0.00    +0.000 A 
ATOM     14  C   UNL     1      -0.747  10.286  23.098  0.00  0.00    +0.000 A 
ATOM     15  C   UNL     1      -0.082   9.232  22.471  0.00  0.00    +0.000 A 
ATOM     16  C   UNL     1       0.467   9.391  21.190  0.00  0.00    +0.000 A 
ATOM     17  C   UNL     1       0.308  10.619  20.535  0.00  0.00    +0.000 A 
ATOM     18  C   UNL     1      -0.357  11.677  21.164  0.00  0.00    +0.000 A 
ENDBRANCH   7  16
ENDBRANCH   1  10
BRANCH   6  19
ATOM     19  N   UNL     1       3.594   5.167  18.081  0.00  0.00    +0.000 N 
ATOM     20  H   UNL     1       2.795   5.380  17.488  0.00  0.00    +0.000 HD
BRANCH  19  21
ATOM     21  C   UNL     1       4.744   4.710  17.312  0.00  0.00    +0.000 C 
BRANCH  21  22
ATOM     22  C   UNL     1       5.994   5.473  17.733  0.00  0.00    +0.000 A 
ATOM     23  C   UNL     1       6.348   6.656  17.076  0.00  0.00    +0.000 A 
ATOM     24  C   UNL     1       7.440   7.389  17.532  0.00  0.00    +0.000 A 
ATOM     25  C   UNL     1       8.154   6.927  18.630  0.00  0.00    +0.000 A 
ATOM     26  C   UNL     1       7.754   5.736  19.216  0.00  0.00    +0.000 A 
ATOM     27  N   UNL     1       6.697   5.002  18.795  0.00  0.00    +0.000 NA
ENDBRANCH  21  22
ENDBRANCH  19  21
ENDBRANCH   6  19
TORSDOF 5
ENDMDL
MODEL 8
REMARK VINA RESULT:      -8.2      1.577      6.377
REMARK  Name = 
REMARK  6 active torsions:
REMARK  status: ('A' for Active; 'I' for Inactive)
REMARK    1  A    between atoms: C_1  and  C_2
REMARK    2  A    between atoms: C_5  and  C_6
REMARK    3  A    between atoms: C_9  and  C_10
REMARK    4  A    between atoms: C_15  and  N_16
REMARK    5  A    between atoms: N_16  and  C_17
REMARK    6  A    between atoms: C_17  and  C_18
REMARK                            x       y       z     vdW  Elec       q    Type
REMARK                         _______ _______ _______ _____ _____    ______ ____
ROOT
ATOM      1  C   UNL     1       2.513   7.219  19.238  0.00  0.00    +0.000 A 
ATOM      2  C   UNL     1       2.144   8.488  18.757  0.00  0.00    +0.000 A 
ATOM      3  C   UNL     1       1.239   9.272  19.460  0.00  0.00    +0.000 A 
ATOM      4  C   UNL     1       0.725   8.761  20.633  0.00  0.00    +0.000 A 
ATOM      5  N   UNL     1       1.055   7.549  21.133  0.00  0.00    +0.000 NA
ATOM      6  C   UNL     1       1.937   6.782  20.448  0.00  0.00    +0.000 A 
ENDROOT
BRANCH   1  10
ATOM      7  C   UNL     1       4.817   5.548  17.117  0.00  0.00    +0.000 A 
ATOM      8  N   UNL     1       5.302   5.167  18.308  0.00  0.00    +0.000 NA
ATOM      9  O   UNL     1       4.449   5.769  19.217  0.00  0.00    +0.000 OA
ATOM     10  C   UNL     1       3.524   6.470  18.499  0.00  0.00    +0.000 A 
ATOM     11  N   UNL     1       3.703   6.358  17.199  0.00  0.00    +0.000 NA
BRANCH   7  16
ATOM     12  C   UNL     1       7.174   3.597  12.225  0.00  0.00    +0.000 C 
ATOM     13  C   UNL     1       6.546   4.156  13.465  0.00  0.00    +0.000 A 
ATOM     14  C   UNL     1       7.283   4.964  14.337  0.00  0.00    +0.000 A 
ATOM     15  C   UNL     1       6.708   5.436  15.517  0.00  0.00    +0.000 A 
ATOM     16  C   UNL     1       5.385   5.110  15.850  0.00  0.00    +0.000 A 
ATOM     17  C   UNL     1       4.637   4.330  14.959  0.00  0.00    +0.000 A 
ATOM     18  C   UNL     1       5.214   3.855  13.777  0.00  0.00    +0.000 A 
ENDBRANCH   7  16
ENDBRANCH   1  10
BRANCH   6  19
ATOM     19  N   UNL     1       2.294   5.549  20.996  0.00  0.00    +0.000 N 
ATOM     20  H   UNL     1       3.277   5.343  20.833  0.00  0.00    +0.000 HD
BRANCH  19  21
ATOM     21  C   UNL     1       1.437   4.405  20.711  0.00  0.00    +0.000 C 
BRANCH  21  22
ATOM     22  C   UNL     1       2.126   3.464  19.731  0.00  0.00    +0.000 A 
ATOM     23  C   UNL     1       1.701   3.405  18.399  0.00  0.00    +0.000 A 
ATOM     24  C   UNL     1       2.399   2.610  17.495  0.00  0.00    +0.000 A 
ATOM     25  C   UNL     1       3.503   1.892  17.937  0.00  0.00    +0.000 A 
ATOM     26  C   UNL     1       3.851   1.987  19.276  0.00  0.00    +0.000 A 
ATOM     27  N   UNL     1       3.192   2.752  20.178  0.00  0.00    +0.000 NA
ENDBRANCH  21  22
ENDBRANCH  19  21
ENDBRANCH   6  19
TORSDOF 5
ENDMDL
MODEL 9
REMARK VINA RESULT:      -8.2      3.969      5.652
REMARK  Name = 
REMARK  6 active torsions:
REMARK  status: ('A' for Active; 'I' for Inactive)
REMARK    1  A    between atoms: C_1  and  C_2
REMARK    2  A    between atoms: C_5  and  C_6
REMARK    3  A    between atoms: C_9  and  C_10
REMARK    4  A    between atoms: C_15  and  N_16
REMARK    5  A    between atoms: N_16  and  C_17
REMARK    6  A    between atoms: C_17  and  C_18
REMARK                            x       y       z     vdW  Elec       q    Type
REMARK                         _______ _______ _______ _____ _____    ______ ____
ROOT
ATOM      1  C   UNL     1       6.661   5.736  16.562  0.00  0.00    +0.000 A 
ATOM      2  C   UNL     1       7.277   5.274  15.385  0.00  0.00    +0.000 A 
ATOM      3  C   UNL     1       6.624   4.369  14.559  0.00  0.00    +0.000 A 
ATOM      4  C   UNL     1       5.366   3.948  14.935  0.00  0.00    +0.000 A 
ATOM      5  N   UNL     1       4.737   4.370  16.055  0.00  0.00    +0.000 NA
ATOM      6  C   UNL     1       5.372   5.252  16.864  0.00  0.00    +0.000 A 
ENDROOT
BRANCH   1  10
ATOM      7  C   UNL     1       8.228   8.449  18.230  0.00  0.00    +0.000 A 
ATOM      8  N   UNL     1       8.540   7.461  19.081  0.00  0.00    +0.000 NA
ATOM      9  O   UNL     1       7.973   6.338  18.503  0.00  0.00    +0.000 OA
ATOM     10  C   UNL     1       7.359   6.744  17.354  0.00  0.00    +0.000 A 
ATOM     11  N   UNL     1       7.496   8.036  17.137  0.00  0.00    +0.000 NA
BRANCH   7  16
ATOM     12  C   UNL     1      10.168  13.851  18.818  0.00  0.00    +0.000 C 
ATOM     13  C   UNL     1       9.619  12.462  18.707  0.00  0.00    +0.000 A 
ATOM     14  C   UNL     1      10.036  11.456  19.586  0.00  0.00    +0.000 A 
ATOM     15  C   UNL     1       9.562  10.152  19.442  0.00  0.00    +0.000 A 
ATOM     16  C   UNL     1       8.662   9.827  18.417  0.00  0.00    +0.000 A 
ATOM     17  C   UNL     1       8.218  10.841  17.558  0.00  0.00    +0.000 A 
ATOM     18  C   UNL     1       8.696  12.148  17.702  0.00  0.00    +0.000 A 
ENDBRANCH   7  16
ENDBRANCH   1  10
BRANCH   6  19
ATOM     19  N   UNL     1       4.695   5.705  17.997  0.00  0.00    +0.000 N 
ATOM     20  H   UNL     1       4.968   5.180  18.825  0.00  0.00    +0.000 HD
BRANCH  19  21
ATOM     21  C   UNL     1       3.250   5.872  17.902  0.00  0.00    +0.000 C 
BRANCH  21  22
ATOM     22  C   UNL     1       2.545   4.868  18.805  0.00  0.00    +0.000 A 
ATOM     23  C   UNL     1       2.602   5.014  20.196  0.00  0.00    +0.000 A 
ATOM     24  C   UNL     1       1.878   4.142  21.003  0.00  0.00    +0.000 A 
ATOM     25  C   UNL     1       1.114   3.146  20.409  0.00  0.00    +0.000 A 
ATOM     26  C   UNL     1       1.124   3.053  19.026  0.00  0.00    +0.000 A 
ATOM     27  N   UNL     1       1.817   3.885  18.215  0.00  0.00    +0.000 NA
ENDBRANCH  21  22
ENDBRANCH  19  21
ENDBRANCH   6  19
TORSDOF 5
ENDMDL
