MODEL 1
REMARK VINA RESULT:      -7.2      0.000      0.000
REMARK  Name = 
REMARK  5 active torsions:
REMARK  status: ('A' for Active; 'I' for Inactive)
REMARK    1  A    between atoms: C_2  and  C_3
REMARK    2  A    between atoms: C_3  and  C_4
REMARK    3  A    between atoms: C_4  and  N_5
REMARK    4  A    between atoms: N_10  and  C_11
REMARK    5  A    between atoms: C_11  and  C_12
REMARK                            x       y       z     vdW  Elec       q    Type
REMARK                         _______ _______ _______ _____ _____    ______ ____
ROOT
ATOM      1  O   UNL     1       3.615   4.767  17.273  0.00  0.00    +0.000 OA
ATOM      2  C   UNL     1       4.240   3.715  17.324  0.00  0.00    +0.000 C 
ATOM      3  N   UNL     1       5.413   3.443  16.627  0.00  0.00    +0.000 N 
ATOM      4  H   UNL     1       5.846   2.539  16.764  0.00  0.00    +0.000 HD
ENDROOT
BRANCH   3   5
ATOM      5  C   UNL     1       6.196   4.419  15.897  0.00  0.00    +0.000 C 
ATOM      6  C   UNL     1       6.676   4.094  14.498  0.00  0.00    +0.000 C 
ATOM      7  C   UNL     1       5.523   5.026  14.675  0.00  0.00    +0.000 C 
BRANCH   5   8
ATOM      8  C   UNL     1       7.070   5.375  16.693  0.00  0.00    +0.000 C 
ATOM      9  C   UNL     1       6.495   6.767  16.937  0.00  0.00    +0.000 C 
ATOM     10  C   UNL     1       7.493   7.356  17.934  0.00  0.00    +0.000 C 
ATOM     11  C   UNL     1       8.026   6.164  18.739  0.00  0.00    +0.000 C 
ATOM     12  C   UNL     1       7.408   4.920  18.105  0.00  0.00    +0.000 C 
ENDBRANCH   5   8
ENDBRANCH   3   5
BRANCH   2  13
ATOM     13  C   UNL     1       3.861   2.562  18.251  0.00  0.00    +0.000 C 
BRANCH  13  14
ATOM     14  C   UNL     1       3.995   2.867  19.751  0.00  0.00    +0.000 C 
BRANCH  14  15
ATOM     15  N   UNL     1       2.759   2.527  20.494  0.00  0.00    +0.000 NA
ATOM     16  C   UNL     1       1.636   2.217  19.591  0.00  0.00    +0.000 C 
ATOM     17  C   UNL     1       0.971   3.552  19.313  0.00  0.00    +0.000 C 
ATOM     18  C   UNL     1       1.094   4.285  20.634  0.00  0.00    +0.000 C 
ATOM     19  C   UNL     1       2.255   3.609  21.358  0.00  0.00    +0.000 C 
ENDBRANCH  14  15
ENDBRANCH  13  14
ENDBRANCH   2  13
TORSDOF 5
ENDMDL
MODEL 2
REMARK VINA RESULT:      -7.1      1.261      2.771
REMARK  Name = 
REMARK  5 active torsions:
REMARK  status: ('A' for Active; 'I' for Inactive)
REMARK    1  A    between atoms: C_2  and  C_3
REMARK    2  A    between atoms: C_3  and  C_4
REMARK    3  A    between atoms: C_4  and  N_5
REMARK    4  A    between atoms: N_10  and  C_11
REMARK    5  A    between atoms: C_11  and  C_12
REMARK                            x       y       z     vdW  Elec       q    Type
REMARK                         _______ _______ _______ _____ _____    ______ ____
ROOT
ATOM      1  O   UNL     1       4.214   5.139  19.431  0.00  0.00    +0.000 OA
ATOM      2  C   UNL     1       4.733   4.033  19.326  0.00  0.00    +0.000 C 
ATOM      3  N   UNL     1       5.882   3.753  18.593  0.00  0.00    +0.000 N 
ATOM      4  H   UNL     1       6.224   2.800  18.596  0.00  0.00    +0.000 HD
ENDROOT
BRANCH   3   5
ATOM      5  C   UNL     1       6.765   4.743  18.012  0.00  0.00    +0.000 C 
ATOM      6  C   UNL     1       7.327   5.846  18.885  0.00  0.00    +0.000 C 
ATOM      7  C   UNL     1       8.208   4.706  18.492  0.00  0.00    +0.000 C 
BRANCH   5   8
ATOM      8  C   UNL     1       6.584   5.088  16.541  0.00  0.00    +0.000 C 
ATOM      9  C   UNL     1       6.203   3.932  15.622  0.00  0.00    +0.000 C 
ATOM     10  C   UNL     1       5.879   4.656  14.315  0.00  0.00    +0.000 C 
ATOM     11  C   UNL     1       5.348   6.034  14.726  0.00  0.00    +0.000 C 
ATOM     12  C   UNL     1       5.491   6.103  16.245  0.00  0.00    +0.000 C 
ENDBRANCH   5   8
ENDBRANCH   3   5
BRANCH   2  13
ATOM     13  C   UNL     1       4.233   2.801  20.074  0.00  0.00    +0.000 C 
BRANCH  13  14
ATOM     14  C   UNL     1       3.361   1.848  19.241  0.00  0.00    +0.000 C 
BRANCH  14  15
ATOM     15  N   UNL     1       1.954   1.843  19.705  0.00  0.00    +0.000 NA
ATOM     16  C   UNL     1       1.025   2.321  18.666  0.00  0.00    +0.000 C 
ATOM     17  C   UNL     1       0.965   3.826  18.850  0.00  0.00    +0.000 C 
ATOM     18  C   UNL     1       1.048   3.997  20.353  0.00  0.00    +0.000 C 
ATOM     19  C   UNL     1       1.695   2.714  20.865  0.00  0.00    +0.000 C 
ENDBRANCH  14  15
ENDBRANCH  13  14
ENDBRANCH   2  13
TORSDOF 5
ENDMDL
MODEL 3
REMARK VINA RESULT:      -7.1      2.156      6.328
REMARK  Name = 
REMARK  5 active torsions:
REMARK  status: ('A' for Active; 'I' for Inactive)
REMARK    1  A    between atoms: C_2  and  C_3
REMARK    2  A    between atoms: C_3  and  C_4
REMARK    3  A    between atoms: C_4  and  N_5
REMARK    4  A    between atoms: N_10  and  C_11
REMARK    5  A    between atoms: C_11  and  C_12
REMARK                            x       y       z     vdW  Elec       q    Type
REMARK                         _______ _______ _______ _____ _____    ______ ____
ROOT
ATOM      1  O   UNL     1       5.479   4.014  19.043  0.00  0.00    +0.000 OA
ATOM      2  C   UNL     1       5.309   4.391  17.889  0.00  0.00    +0.000 C 
ATOM      3  N   UNL     1       4.155   5.000  17.407  0.00  0.00    +0.000 N 
ATOM      4  H   UNL     1       4.141   5.281  16.434  0.00  0.00    +0.000 HD
ENDROOT
BRANCH   3   5
ATOM      5  C   UNL     1       3.057   5.476  18.223  0.00  0.00    +0.000 C 
ATOM      6  C   UNL     1       3.295   6.596  19.214  0.00  0.00    +0.000 C 
ATOM      7  C   UNL     1       2.584   6.893  17.934  0.00  0.00    +0.000 C 
BRANCH   5   8
ATOM      8  C   UNL     1       1.957   4.491  18.587  0.00  0.00    +0.000 C 
ATOM      9  C   UNL     1       2.005   3.139  17.883  0.00  0.00    +0.000 C 
ATOM     10  C   UNL     1       0.938   2.346  18.637  0.00  0.00    +0.000 C 
ATOM     11  C   UNL     1       0.933   2.912  20.063  0.00  0.00    +0.000 C 
ATOM     12  C   UNL     1       1.911   4.085  20.052  0.00  0.00    +0.000 C 
ENDBRANCH   5   8
ENDBRANCH   3   5
BRANCH   2  13
ATOM     13  C   UNL     1       6.396   4.326  16.820  0.00  0.00    +0.000 C 
BRANCH  13  14
ATOM     14  C   UNL     1       5.994   3.589  15.533  0.00  0.00    +0.000 C 
BRANCH  14  15
ATOM     15  N   UNL     1       5.771   4.528  14.409  0.00  0.00    +0.000 NA
ATOM     16  C   UNL     1       5.023   3.903  13.303  0.00  0.00    +0.000 C 
ATOM     17  C   UNL     1       6.080   3.268  12.419  0.00  0.00    +0.000 C 
ATOM     18  C   UNL     1       7.233   4.249  12.494  0.00  0.00    +0.000 C 
ATOM     19  C   UNL     1       7.007   5.031  13.785  0.00  0.00    +0.000 C 
ENDBRANCH  14  15
ENDBRANCH  13  14
ENDBRANCH   2  13
TORSDOF 5
ENDMDL
MODEL 4
REMARK VINA RESULT:      -7.1      1.732      3.296
REMARK  Name = 
REMARK  5 active torsions:
REMARK  status: ('A' for Active; 'I' for Inactive)
REMARK    1  A    between atoms: C_2  and  C_3
REMARK    2  A    between atoms: C_3  and  C_4
REMARK    3  A    between atoms: C_4  and  N_5
REMARK    4  A    between atoms: N_10  and  C_11
REMARK    5  A    between atoms: C_11  and  C_12
REMARK                            x       y       z     vdW  Elec       q    Type
REMARK                         _______ _______ _______ _____ _____    ______ ____
ROOT
ATOM      1  O   UNL     1       4.236   7.240  16.936  0.00  0.00    +0.000 OA
ATOM      2  C   UNL     1       4.182   6.499  17.911  0.00  0.00    +0.000 C 
ATOM      3  N   UNL     1       5.176   5.606  18.296  0.00  0.00    +0.000 N 
ATOM      4  H   UNL     1       5.020   5.057  19.132  0.00  0.00    +0.000 HD
ENDROOT
BRANCH   3   5
ATOM      5  C   UNL     1       6.512   5.551  17.739  0.00  0.00    +0.000 C 
ATOM      6  C   UNL     1       7.475   6.691  17.997  0.00  0.00    +0.000 C 
ATOM      7  C   UNL     1       7.643   5.410  18.746  0.00  0.00    +0.000 C 
BRANCH   5   8
ATOM      8  C   UNL     1       6.713   4.794  16.435  0.00  0.00    +0.000 C 
ATOM      9  C   UNL     1       5.528   3.966  15.948  0.00  0.00    +0.000 C 
ATOM     10  C   UNL     1       5.978   3.555  14.547  0.00  0.00    +0.000 C 
ATOM     11  C   UNL     1       6.880   4.692  14.051  0.00  0.00    +0.000 C 
ATOM     12  C   UNL     1       7.012   5.663  15.223  0.00  0.00    +0.000 C 
ENDBRANCH   5   8
ENDBRANCH   3   5
BRANCH   2  13
ATOM     13  C   UNL     1       3.030   6.520  18.912  0.00  0.00    +0.000 C 
BRANCH  13  14
ATOM     14  C   UNL     1       2.848   5.223  19.717  0.00  0.00    +0.000 C 
BRANCH  14  15
ATOM     15  N   UNL     1       1.516   4.617  19.489  0.00  0.00    +0.000 NA
ATOM     16  C   UNL     1       1.104   3.746  20.605  0.00  0.00    +0.000 C 
ATOM     17  C   UNL     1       1.663   2.378  20.266  0.00  0.00    +0.000 C 
ATOM     18  C   UNL     1       1.519   2.304  18.759  0.00  0.00    +0.000 C 
ATOM     19  C   UNL     1       1.438   3.756  18.296  0.00  0.00    +0.000 C 
ENDBRANCH  14  15
ENDBRANCH  13  14
ENDBRANCH   2  13
TORSDOF 5
ENDMDL
MODEL 5
REMARK VINA RESULT:      -7.0      1.729      3.277
REMARK  Name = 
REMARK  5 active torsions:
REMARK  status: ('A' for Active; 'I' for Inactive)
REMARK    1  A    between atoms: C_2  and  C_3
REMARK    2  A    between atoms: C_3  and  C_4
REMARK    3  A    between atoms: C_4  and  N_5
REMARK    4  A    between atoms: N_10  and  C_11
REMARK    5  A    between atoms: C_11  and  C_12
REMARK                            x       y       z     vdW  Elec       q    Type
REMARK                         _______ _______ _______ _____ _____    ______ ____
ROOT
ATOM      1  O   UNL     1       4.030   7.031  17.175  0.00  0.00    +0.000 OA
ATOM      2  C   UNL     1       4.127   6.454  18.253  0.00  0.00    +0.000 C 
ATOM      3  N   UNL     1       5.227   5.710  18.667  0.00  0.00    +0.000 N 
ATOM      4  H   UNL     1       5.195   5.293  19.589  0.00  0.00    +0.000 HD
ENDROOT
BRANCH   3   5
ATOM      5  C   UNL     1       6.509   5.666  17.993  0.00  0.00    +0.000 C 
ATOM      6  C   UNL     1       7.434   6.863  18.071  0.00  0.00    +0.000 C 
ATOM      7  C   UNL     1       7.732   5.655  18.898  0.00  0.00    +0.000 C 
BRANCH   5   8
ATOM      8  C   UNL     1       6.628   4.816  16.738  0.00  0.00    +0.000 C 
ATOM      9  C   UNL     1       5.416   3.959  16.388  0.00  0.00    +0.000 C 
ATOM     10  C   UNL     1       5.778   3.445  14.995  0.00  0.00    +0.000 C 
ATOM     11  C   UNL     1       6.645   4.540  14.362  0.00  0.00    +0.000 C 
ATOM     12  C   UNL     1       6.850   5.593  15.449  0.00  0.00    +0.000 C 
ENDBRANCH   5   8
ENDBRANCH   3   5
BRANCH   2  13
ATOM     13  C   UNL     1       3.071   6.550  19.350  0.00  0.00    +0.000 C 
BRANCH  13  14
ATOM     14  C   UNL     1       2.327   5.238  19.648  0.00  0.00    +0.000 C 
BRANCH  14  15
ATOM     15  N   UNL     1       2.731   4.154  18.723  0.00  0.00    +0.000 NA
ATOM     16  C   UNL     1       1.617   3.714  17.864  0.00  0.00    +0.000 C 
ATOM     17  C   UNL     1       0.913   2.627  18.655  0.00  0.00    +0.000 C 
ATOM     18  C   UNL     1       2.050   1.915  19.359  0.00  0.00    +0.000 C 
ATOM     19  C   UNL     1       3.193   2.926  19.393  0.00  0.00    +0.000 C 
ENDBRANCH  14  15
ENDBRANCH  13  14
ENDBRANCH   2  13
TORSDOF 5
ENDMDL
MODEL 6
REMARK VINA RESULT:      -7.0      1.045      2.783
REMARK  Name = 
REMARK  5 active torsions:
REMARK  status: ('A' for Active; 'I' for Inactive)
REMARK    1  A    between atoms: C_2  and  C_3
REMARK    2  A    between atoms: C_3  and  C_4
REMARK    3  A    between atoms: C_4  and  N_5
REMARK    4  A    between atoms: N_10  and  C_11
REMARK    5  A    between atoms: C_11  and  C_12
REMARK                            x       y       z     vdW  Elec       q    Type
REMARK                         _______ _______ _______ _____ _____    ______ ____
ROOT
ATOM      1  O   UNL     1       3.629   4.369  17.968  0.00  0.00    +0.000 OA
ATOM      2  C   UNL     1       4.439   3.607  18.482  0.00  0.00    +0.000 C 
ATOM      3  N   UNL     1       5.820   3.683  18.332  0.00  0.00    +0.000 N 
ATOM      4  H   UNL     1       6.388   3.003  18.821  0.00  0.00    +0.000 HD
ENDROOT
BRANCH   3   5
ATOM      5  C   UNL     1       6.535   4.786  17.722  0.00  0.00    +0.000 C 
ATOM      6  C   UNL     1       6.636   6.107  18.457  0.00  0.00    +0.000 C 
ATOM      7  C   UNL     1       7.824   5.203  18.414  0.00  0.00    +0.000 C 
BRANCH   5   8
ATOM      8  C   UNL     1       6.563   4.868  16.204  0.00  0.00    +0.000 C 
ATOM      9  C   UNL     1       6.295   3.566  15.455  0.00  0.00    +0.000 C 
ATOM     10  C   UNL     1       6.166   4.048  14.010  0.00  0.00    +0.000 C 
ATOM     11  C   UNL     1       5.604   5.472  14.098  0.00  0.00    +0.000 C 
ATOM     12  C   UNL     1       5.537   5.806  15.587  0.00  0.00    +0.000 C 
ENDBRANCH   5   8
ENDBRANCH   3   5
BRANCH   2  13
ATOM     13  C   UNL     1       4.044   2.499  19.454  0.00  0.00    +0.000 C 
BRANCH  13  14
ATOM     14  C   UNL     1       2.626   1.940  19.256  0.00  0.00    +0.000 C 
BRANCH  14  15
ATOM     15  N   UNL     1       1.745   2.255  20.405  0.00  0.00    +0.000 NA
ATOM     16  C   UNL     1       0.648   3.166  20.031  0.00  0.00    +0.000 C 
ATOM     17  C   UNL     1       1.211   4.562  20.220  0.00  0.00    +0.000 C 
ATOM     18  C   UNL     1       2.096   4.419  21.443  0.00  0.00    +0.000 C 
ATOM     19  C   UNL     1       2.426   2.931  21.523  0.00  0.00    +0.000 C 
ENDBRANCH  14  15
ENDBRANCH  13  14
ENDBRANCH   2  13
TORSDOF 5
ENDMDL
MODEL 7
REMARK VINA RESULT:      -7.0      1.635      5.847
REMARK  Name = 
REMARK  5 active torsions:
REMARK  status: ('A' for Active; 'I' for Inactive)
REMARK    1  A    between atoms: C_2  and  C_3
REMARK    2  A    between atoms: C_3  and  C_4
REMARK    3  A    between atoms: C_4  and  N_5
REMARK    4  A    between atoms: N_10  and  C_11
REMARK    5  A    between atoms: C_11  and  C_12
REMARK                            x       y       z     vdW  Elec       q    Type
REMARK                         _______ _______ _______ _____ _____    ______ ____
ROOT
ATOM      1  O   UNL     1       4.183   5.947  19.791  0.00  0.00    +0.000 OA
ATOM      2  C   UNL     1       4.920   5.204  19.152  0.00  0.00    +0.000 C 
ATOM      3  N   UNL     1       4.529   4.017  18.542  0.00  0.00    +0.000 N 
ATOM      4  H   UNL     1       5.229   3.497  18.027  0.00  0.00    +0.000 HD
ENDROOT
BRANCH   3   5
ATOM      5  C   UNL     1       3.160   3.572  18.381  0.00  0.00    +0.000 C 
ATOM      6  C   UNL     1       2.241   4.312  17.432  0.00  0.00    +0.000 C 
ATOM      7  C   UNL     1       2.808   2.994  17.019  0.00  0.00    +0.000 C 
BRANCH   5   8
ATOM      8  C   UNL     1       2.486   2.892  19.563  0.00  0.00    +0.000 C 
ATOM      9  C   UNL     1       3.376   2.595  20.765  0.00  0.00    +0.000 C 
ATOM     10  C   UNL     1       2.358   2.151  21.816  0.00  0.00    +0.000 C 
ATOM     11  C   UNL     1       1.068   2.911  21.489  0.00  0.00    +0.000 C 
ATOM     12  C   UNL     1       1.347   3.677  20.198  0.00  0.00    +0.000 C 
ENDBRANCH   5   8
ENDBRANCH   3   5
BRANCH   2  13
ATOM     13  C   UNL     1       6.381   5.532  18.854  0.00  0.00    +0.000 C 
BRANCH  13  14
ATOM     14  C   UNL     1       7.063   4.589  17.850  0.00  0.00    +0.000 C 
BRANCH  14  15
ATOM     15  N   UNL     1       7.346   5.267  16.564  0.00  0.00    +0.000 NA
ATOM     16  C   UNL     1       6.586   6.521  16.418  0.00  0.00    +0.000 C 
ATOM     17  C   UNL     1       5.267   6.115  15.788  0.00  0.00    +0.000 C 
ATOM     18  C   UNL     1       5.663   5.002  14.838  0.00  0.00    +0.000 C 
ATOM     19  C   UNL     1       6.992   4.477  15.372  0.00  0.00    +0.000 C 
ENDBRANCH  14  15
ENDBRANCH  13  14
ENDBRANCH   2  13
TORSDOF 5
ENDMDL
MODEL 8
REMARK VINA RESULT:      -7.0      1.879      5.958
REMARK  Name = 
REMARK  5 active torsions:
REMARK  status: ('A' for Active; 'I' for Inactive)
REMARK    1  A    between atoms: C_2  and  C_3
REMARK    2  A    between atoms: C_3  and  C_4
REMARK    3  A    between atoms: C_4  and  N_5
REMARK    4  A    between atoms: N_10  and  C_11
REMARK    5  A    between atoms: C_11  and  C_12
REMARK                            x       y       z     vdW  Elec       q    Type
REMARK                         _______ _______ _______ _____ _____    ______ ____
ROOT
ATOM      1  O   UNL     1       4.677   3.245  18.494  0.00  0.00    +0.000 OA
ATOM      2  C   UNL     1       4.672   4.009  17.536  0.00  0.00    +0.000 C 
ATOM      3  N   UNL     1       3.741   5.021  17.321  0.00  0.00    +0.000 N 
ATOM      4  H   UNL     1       3.852   5.598  16.497  0.00  0.00    +0.000 HD
ENDROOT
BRANCH   3   5
ATOM      5  C   UNL     1       2.759   5.471  18.286  0.00  0.00    +0.000 C 
ATOM      6  C   UNL     1       3.140   6.532  19.298  0.00  0.00    +0.000 C 
ATOM      7  C   UNL     1       2.290   6.910  18.130  0.00  0.00    +0.000 C 
BRANCH   5   8
ATOM      8  C   UNL     1       1.687   4.488  18.728  0.00  0.00    +0.000 C 
ATOM      9  C   UNL     1       1.597   3.189  17.933  0.00  0.00    +0.000 C 
ATOM     10  C   UNL     1       0.615   2.369  18.769  0.00  0.00    +0.000 C 
ATOM     11  C   UNL     1       0.818   2.830  20.217  0.00  0.00    +0.000 C 
ATOM     12  C   UNL     1       1.823   3.978  20.154  0.00  0.00    +0.000 C 
ENDBRANCH   5   8
ENDBRANCH   3   5
BRANCH   2  13
ATOM     13  C   UNL     1       5.763   4.017  16.468  0.00  0.00    +0.000 C 
BRANCH  13  14
ATOM     14  C   UNL     1       6.813   5.128  16.625  0.00  0.00    +0.000 C 
BRANCH  14  15
ATOM     15  N   UNL     1       6.509   6.015  17.772  0.00  0.00    +0.000 NA
ATOM     16  C   UNL     1       6.335   7.419  17.357  0.00  0.00    +0.000 C 
ATOM     17  C   UNL     1       7.727   8.020  17.401  0.00  0.00    +0.000 C 
ATOM     18  C   UNL     1       8.362   7.344  18.599  0.00  0.00    +0.000 C 
ATOM     19  C   UNL     1       7.564   6.059  18.800  0.00  0.00    +0.000 C 
ENDBRANCH  14  15
ENDBRANCH  13  14
ENDBRANCH   2  13
TORSDOF 5
ENDMDL
MODEL 9
REMARK VINA RESULT:      -7.0      1.450      1.719
REMARK  Name = 
REMARK  5 active torsions:
REMARK  status: ('A' for Active; 'I' for Inactive)
REMARK    1  A    between atoms: C_2  and  C_3
REMARK    2  A    between atoms: C_3  and  C_4
REMARK    3  A    between atoms: C_4  and  N_5
REMARK    4  A    between atoms: N_10  and  C_11
REMARK    5  A    between atoms: C_11  and  C_12
REMARK                            x       y       z     vdW  Elec       q    Type
REMARK                         _______ _______ _______ _____ _____    ______ ____
ROOT
ATOM      1  O   UNL     1       3.865   7.282  17.229  0.00  0.00    +0.000 OA
ATOM      2  C   UNL     1       3.596   6.119  17.503  0.00  0.00    +0.000 C 
ATOM      3  N   UNL     1       4.312   5.006  17.073  0.00  0.00    +0.000 N 
ATOM      4  H   UNL     1       3.998   4.094  17.380  0.00  0.00    +0.000 HD
ENDROOT
BRANCH   3   5
ATOM      5  C   UNL     1       5.600   5.046  16.411  0.00  0.00    +0.000 C 
ATOM      6  C   UNL     1       5.901   4.059  15.303  0.00  0.00    +0.000 C 
ATOM      7  C   UNL     1       5.582   5.475  14.952  0.00  0.00    +0.000 C 
BRANCH   5   8
ATOM      8  C   UNL     1       6.800   5.532  17.211  0.00  0.00    +0.000 C 
ATOM      9  C   UNL     1       6.946   7.044  17.352  0.00  0.00    +0.000 C 
ATOM     10  C   UNL     1       8.074   7.162  18.377  0.00  0.00    +0.000 C 
ATOM     11  C   UNL     1       7.955   5.921  19.268  0.00  0.00    +0.000 C 
ATOM     12  C   UNL     1       6.840   5.072  18.660  0.00  0.00    +0.000 C 
ENDBRANCH   5   8
ENDBRANCH   3   5
BRANCH   2  13
ATOM     13  C   UNL     1       2.466   5.724  18.450  0.00  0.00    +0.000 C 
BRANCH  13  14
ATOM     14  C   UNL     1       1.851   4.341  18.183  0.00  0.00    +0.000 C 
BRANCH  14  15
ATOM     15  N   UNL     1       2.509   3.282  18.985  0.00  0.00    +0.000 NA
ATOM     16  C   UNL     1       1.547   2.281  19.479  0.00  0.00    +0.000 C 
ATOM     17  C   UNL     1       1.054   2.826  20.805  0.00  0.00    +0.000 C 
ATOM     18  C   UNL     1       2.285   3.487  21.391  0.00  0.00    +0.000 C 
ATOM     19  C   UNL     1       3.189   3.774  20.196  0.00  0.00    +0.000 C 
ENDBRANCH  14  15
ENDBRANCH  13  14
ENDBRANCH   2  13
TORSDOF 5
ENDMDL
