MODEL 1
REMARK VINA RESULT:      -7.5      0.000      0.000
REMARK  Name = 
REMARK  3 active torsions:
REMARK  status: ('A' for Active; 'I' for Inactive)
REMARK    1  A    between atoms: C_1  and  N_2
REMARK    2  A    between atoms: C_4  and  C_5
REMARK    3  A    between atoms: C_12  and  C_13
REMARK                            x       y       z     vdW  Elec       q    Type
REMARK                         _______ _______ _______ _____ _____    ______ ____
ROOT
ATOM      1  C   UNL     1       7.154   5.544  19.465  0.00  0.00    +0.000 C 
ATOM      2  N   UNL     1       5.999   4.872  18.915  0.00  0.00    +0.000 N 
ATOM      3  N   UNL     1       5.173   4.260  19.770  0.00  0.00    +0.000 NA
ATOM      4  C   UNL     1       4.355   3.553  18.996  0.00  0.00    +0.000 A 
ATOM      5  C   UNL     1       4.571   3.851  17.619  0.00  0.00    +0.000 A 
ATOM      6  C   UNL     1       5.650   4.716  17.593  0.00  0.00    +0.000 A 
ENDROOT
BRANCH   6   7
ATOM      7  C   UNL     1       6.355   5.486  16.519  0.00  0.00    +0.000 C 
ATOM      8  C   UNL     1       5.347   5.893  15.464  0.00  0.00    +0.000 C 
ATOM      9  O   UNL     1       6.039   5.806  14.248  0.00  0.00    +0.000 OA
ATOM     10  C   UNL     1       7.058   4.813  14.439  0.00  0.00    +0.000 C 
ATOM     11  C   UNL     1       6.621   3.427  13.964  0.00  0.00    +0.000 C 
ATOM     12  C   UNL     1       5.870   3.535  12.654  0.00  0.00    +0.000 C 
ATOM     13  C   UNL     1       6.519   4.462  11.615  0.00  0.00    +0.000 C 
ATOM     14  C   UNL     1       7.592   5.468  12.086  0.00  0.00    +0.000 C 
ATOM     15  C   UNL     1       8.188   5.229  13.491  0.00  0.00    +0.000 C 
ATOM     16  O   UNL     1       7.365   4.711  15.835  0.00  0.00    +0.000 OA
ENDBRANCH   6   7
BRANCH   4  17
ATOM     17  C   UNL     1       3.479   2.478  19.595  0.00  0.00    +0.000 C 
ATOM     18  C   UNL     1       2.977   2.953  20.973  0.00  0.00    +0.000 C 
ATOM     19  C   UNL     1       1.801   3.926  20.877  0.00  0.00    +0.000 C 
ATOM     20  C   UNL     1       0.638   3.293  20.127  0.00  0.00    +0.000 C 
ATOM     21  C   UNL     1       1.054   2.870  18.723  0.00  0.00    +0.000 C 
ATOM     22  C   UNL     1       2.308   1.987  18.715  0.00  0.00    +0.000 C 
ENDBRANCH   4  17
TORSDOF 2
ENDMDL
MODEL 2
REMARK VINA RESULT:      -7.2      1.096      1.720
REMARK  Name = 
REMARK  3 active torsions:
REMARK  status: ('A' for Active; 'I' for Inactive)
REMARK    1  A    between atoms: C_1  and  N_2
REMARK    2  A    between atoms: C_4  and  C_5
REMARK    3  A    between atoms: C_12  and  C_13
REMARK                            x       y       z     vdW  Elec       q    Type
REMARK                         _______ _______ _______ _____ _____    ______ ____
ROOT
ATOM      1  C   UNL     1       6.731   5.428  19.446  0.00  0.00    +0.000 C 
ATOM      2  N   UNL     1       5.372   5.595  18.989  0.00  0.00    +0.000 N 
ATOM      3  N   UNL     1       4.392   5.425  19.883  0.00  0.00    +0.000 NA
ATOM      4  C   UNL     1       3.277   5.410  19.158  0.00  0.00    +0.000 A 
ATOM      5  C   UNL     1       3.549   5.735  17.797  0.00  0.00    +0.000 A 
ATOM      6  C   UNL     1       4.924   5.851  17.712  0.00  0.00    +0.000 A 
ENDROOT
BRANCH   6   7
ATOM      7  C   UNL     1       5.881   6.249  16.631  0.00  0.00    +0.000 C 
ATOM      8  C   UNL     1       5.102   6.532  15.364  0.00  0.00    +0.000 C 
ATOM      9  O   UNL     1       5.921   6.072  14.323  0.00  0.00    +0.000 OA
ATOM     10  C   UNL     1       6.725   5.023  14.882  0.00  0.00    +0.000 C 
ATOM     11  C   UNL     1       6.127   3.636  14.643  0.00  0.00    +0.000 C 
ATOM     12  C   UNL     1       5.581   3.537  13.235  0.00  0.00    +0.000 C 
ATOM     13  C   UNL     1       6.505   4.100  12.145  0.00  0.00    +0.000 C 
ATOM     14  C   UNL     1       7.661   5.035  12.564  0.00  0.00    +0.000 C 
ATOM     15  C   UNL     1       8.022   5.051  14.066  0.00  0.00    +0.000 C 
ATOM     16  O   UNL     1       6.827   5.208  16.299  0.00  0.00    +0.000 OA
ENDBRANCH   6   7
BRANCH   4  17
ATOM     17  C   UNL     1       1.981   4.925  19.765  0.00  0.00    +0.000 C 
ATOM     18  C   UNL     1       1.284   3.981  18.764  0.00  0.00    +0.000 C 
ATOM     19  C   UNL     1       1.872   2.568  18.768  0.00  0.00    +0.000 C 
ATOM     20  C   UNL     1       1.788   1.954  20.158  0.00  0.00    +0.000 C 
ATOM     21  C   UNL     1       2.528   2.807  21.182  0.00  0.00    +0.000 C 
ATOM     22  C   UNL     1       2.087   4.276  21.163  0.00  0.00    +0.000 C 
ENDBRANCH   4  17
TORSDOF 2
ENDMDL
MODEL 3
REMARK VINA RESULT:      -7.0      0.867      1.326
REMARK  Name = 
REMARK  3 active torsions:
REMARK  status: ('A' for Active; 'I' for Inactive)
REMARK    1  A    between atoms: C_1  and  N_2
REMARK    2  A    between atoms: C_4  and  C_5
REMARK    3  A    between atoms: C_12  and  C_13
REMARK                            x       y       z     vdW  Elec       q    Type
REMARK                         _______ _______ _______ _____ _____    ______ ____
ROOT
ATOM      1  C   UNL     1       7.570   5.532  19.214  0.00  0.00    +0.000 C 
ATOM      2  N   UNL     1       6.157   5.476  18.922  0.00  0.00    +0.000 N 
ATOM      3  N   UNL     1       5.326   5.196  19.932  0.00  0.00    +0.000 NA
ATOM      4  C   UNL     1       4.149   4.986  19.349  0.00  0.00    +0.000 A 
ATOM      5  C   UNL     1       4.208   5.295  17.958  0.00  0.00    +0.000 A 
ATOM      6  C   UNL     1       5.529   5.613  17.704  0.00  0.00    +0.000 A 
ENDROOT
BRANCH   6   7
ATOM      7  C   UNL     1       6.281   6.107  16.507  0.00  0.00    +0.000 C 
ATOM      8  C   UNL     1       5.300   6.368  15.383  0.00  0.00    +0.000 C 
ATOM      9  O   UNL     1       5.978   5.996  14.214  0.00  0.00    +0.000 OA
ATOM     10  C   UNL     1       6.926   4.992  14.606  0.00  0.00    +0.000 C 
ATOM     11  C   UNL     1       6.392   3.573  14.407  0.00  0.00    +0.000 C 
ATOM     12  C   UNL     1       5.644   3.474  13.095  0.00  0.00    +0.000 C 
ATOM     13  C   UNL     1       6.351   4.131  11.901  0.00  0.00    +0.000 C 
ATOM     14  C   UNL     1       7.494   5.133  12.175  0.00  0.00    +0.000 C 
ATOM     15  C   UNL     1       8.078   5.134  13.605  0.00  0.00    +0.000 C 
ATOM     16  O   UNL     1       7.232   5.145  15.997  0.00  0.00    +0.000 OA
ENDBRANCH   6   7
BRANCH   4  17
ATOM     17  C   UNL     1       3.023   4.337  20.118  0.00  0.00    +0.000 C 
ATOM     18  C   UNL     1       1.684   4.706  19.449  0.00  0.00    +0.000 C 
ATOM     19  C   UNL     1       1.386   3.865  18.206  0.00  0.00    +0.000 C 
ATOM     20  C   UNL     1       1.366   2.383  18.551  0.00  0.00    +0.000 C 
ATOM     21  C   UNL     1       2.697   1.939  19.149  0.00  0.00    +0.000 C 
ATOM     22  C   UNL     1       3.138   2.811  20.331  0.00  0.00    +0.000 C 
ENDBRANCH   4  17
TORSDOF 2
ENDMDL
MODEL 4
REMARK VINA RESULT:      -6.9      1.647      2.236
REMARK  Name = 
REMARK  3 active torsions:
REMARK  status: ('A' for Active; 'I' for Inactive)
REMARK    1  A    between atoms: C_1  and  N_2
REMARK    2  A    between atoms: C_4  and  C_5
REMARK    3  A    between atoms: C_12  and  C_13
REMARK                            x       y       z     vdW  Elec       q    Type
REMARK                         _______ _______ _______ _____ _____    ______ ____
ROOT
ATOM      1  C   UNL     1       3.136   7.816  17.827  0.00  0.00    +0.000 C 
ATOM      2  N   UNL     1       3.081   6.374  17.756  0.00  0.00    +0.000 N 
ATOM      3  N   UNL     1       1.990   5.771  18.239  0.00  0.00    +0.000 NA
ATOM      4  C   UNL     1       2.302   4.478  18.256  0.00  0.00    +0.000 A 
ATOM      5  C   UNL     1       3.558   4.249  17.622  0.00  0.00    +0.000 A 
ATOM      6  C   UNL     1       4.046   5.503  17.304  0.00  0.00    +0.000 A 
ENDROOT
BRANCH   6   7
ATOM      7  C   UNL     1       5.247   6.007  16.564  0.00  0.00    +0.000 C 
ATOM      8  C   UNL     1       4.820   6.454  15.181  0.00  0.00    +0.000 C 
ATOM      9  O   UNL     1       5.887   6.105  14.342  0.00  0.00    +0.000 OA
ATOM     10  C   UNL     1       6.531   4.982  14.961  0.00  0.00    +0.000 C 
ATOM     11  C   UNL     1       6.034   3.645  14.410  0.00  0.00    +0.000 C 
ATOM     12  C   UNL     1       5.874   3.725  12.907  0.00  0.00    +0.000 C 
ATOM     13  C   UNL     1       7.042   4.396  12.170  0.00  0.00    +0.000 C 
ATOM     14  C   UNL     1       8.038   5.251  12.984  0.00  0.00    +0.000 C 
ATOM     15  C   UNL     1       7.995   5.082  14.518  0.00  0.00    +0.000 C 
ATOM     16  O   UNL     1       6.259   4.995  16.367  0.00  0.00    +0.000 OA
ENDBRANCH   6   7
BRANCH   4  17
ATOM     17  C   UNL     1       1.449   3.499  19.028  0.00  0.00    +0.000 C 
ATOM     18  C   UNL     1       2.203   2.159  19.136  0.00  0.00    +0.000 C 
ATOM     19  C   UNL     1       3.275   2.162  20.228  0.00  0.00    +0.000 C 
ATOM     20  C   UNL     1       2.662   2.488  21.583  0.00  0.00    +0.000 C 
ATOM     21  C   UNL     1       1.965   3.843  21.560  0.00  0.00    +0.000 C 
ATOM     22  C   UNL     1       0.956   3.974  20.413  0.00  0.00    +0.000 C 
ENDBRANCH   4  17
TORSDOF 2
ENDMDL
MODEL 5
REMARK VINA RESULT:      -6.8      2.234      7.051
REMARK  Name = 
REMARK  3 active torsions:
REMARK  status: ('A' for Active; 'I' for Inactive)
REMARK    1  A    between atoms: C_1  and  N_2
REMARK    2  A    between atoms: C_4  and  C_5
REMARK    3  A    between atoms: C_12  and  C_13
REMARK                            x       y       z     vdW  Elec       q    Type
REMARK                         _______ _______ _______ _____ _____    ______ ____
ROOT
ATOM      1  C   UNL     1       7.782   4.503  16.849  0.00  0.00    +0.000 C 
ATOM      2  N   UNL     1       6.632   4.405  15.982  0.00  0.00    +0.000 N 
ATOM      3  N   UNL     1       6.847   4.090  14.700  0.00  0.00    +0.000 NA
ATOM      4  C   UNL     1       5.676   4.293  14.104  0.00  0.00    +0.000 A 
ATOM      5  C   UNL     1       4.662   4.591  15.062  0.00  0.00    +0.000 A 
ATOM      6  C   UNL     1       5.312   4.658  16.280  0.00  0.00    +0.000 A 
ENDROOT
BRANCH   6   7
ATOM      7  C   UNL     1       4.870   4.842  17.700  0.00  0.00    +0.000 C 
ATOM      8  C   UNL     1       4.710   3.482  18.345  0.00  0.00    +0.000 C 
ATOM      9  O   UNL     1       3.608   3.613  19.201  0.00  0.00    +0.000 OA
ATOM     10  C   UNL     1       2.782   4.641  18.634  0.00  0.00    +0.000 C 
ATOM     11  C   UNL     1       1.669   4.076  17.751  0.00  0.00    +0.000 C 
ATOM     12  C   UNL     1       1.059   2.850  18.397  0.00  0.00    +0.000 C 
ATOM     13  C   UNL     1       0.761   2.994  19.897  0.00  0.00    +0.000 C 
ATOM     14  C   UNL     1       1.432   4.145  20.678  0.00  0.00    +0.000 C 
ATOM     15  C   UNL     1       2.067   5.271  19.833  0.00  0.00    +0.000 C 
ATOM     16  O   UNL     1       3.587   5.497  17.814  0.00  0.00    +0.000 OA
ENDBRANCH   6   7
BRANCH   4  17
ATOM     17  C   UNL     1       5.587   4.351  12.598  0.00  0.00    +0.000 C 
ATOM     18  C   UNL     1       7.014   4.382  12.015  0.00  0.00    +0.000 C 
ATOM     19  C   UNL     1       7.672   3.001  11.972  0.00  0.00    +0.000 C 
ATOM     20  C   UNL     1       6.833   2.030  11.155  0.00  0.00    +0.000 C 
ATOM     21  C   UNL     1       5.427   1.898  11.731  0.00  0.00    +0.000 C 
ATOM     22  C   UNL     1       4.734   3.252  11.925  0.00  0.00    +0.000 C 
ENDBRANCH   4  17
TORSDOF 2
ENDMDL
MODEL 6
REMARK VINA RESULT:      -6.7      5.785      7.848
REMARK  Name = 
REMARK  3 active torsions:
REMARK  status: ('A' for Active; 'I' for Inactive)
REMARK    1  A    between atoms: C_1  and  N_2
REMARK    2  A    between atoms: C_4  and  C_5
REMARK    3  A    between atoms: C_12  and  C_13
REMARK                            x       y       z     vdW  Elec       q    Type
REMARK                         _______ _______ _______ _____ _____    ______ ____
ROOT
ATOM      1  C   UNL     1       2.391   8.631  17.617  0.00  0.00    +0.000 C 
ATOM      2  N   UNL     1       2.410   7.797  18.796  0.00  0.00    +0.000 N 
ATOM      3  N   UNL     1       3.059   6.630  18.719  0.00  0.00    +0.000 NA
ATOM      4  C   UNL     1       2.727   5.989  19.836  0.00  0.00    +0.000 A 
ATOM      5  C   UNL     1       1.979   6.835  20.706  0.00  0.00    +0.000 A 
ATOM      6  C   UNL     1       1.786   8.010  20.004  0.00  0.00    +0.000 A 
ENDROOT
BRANCH   6   7
ATOM      7  C   UNL     1       1.174   9.339  20.326  0.00  0.00    +0.000 C 
ATOM      8  C   UNL     1      -0.245   9.122  20.809  0.00  0.00    +0.000 C 
ATOM      9  O   UNL     1      -0.971  10.209  20.303  0.00  0.00    +0.000 OA
ATOM     10  C   UNL     1      -0.291  10.622  19.109  0.00  0.00    +0.000 C 
ATOM     11  C   UNL     1      -0.892  10.000  17.848  0.00  0.00    +0.000 C 
ATOM     12  C   UNL     1      -2.403  10.006  17.930  0.00  0.00    +0.000 C 
ATOM     13  C   UNL     1      -3.015  11.327  18.420  0.00  0.00    +0.000 C 
ATOM     14  C   UNL     1      -2.102  12.345  19.138  0.00  0.00    +0.000 C 
ATOM     15  C   UNL     1      -0.581  12.123  18.996  0.00  0.00    +0.000 C 
ATOM     16  O   UNL     1       1.080  10.213  19.179  0.00  0.00    +0.000 OA
ENDBRANCH   6   7
BRANCH   4  17
ATOM     17  C   UNL     1       3.004   4.511  19.976  0.00  0.00    +0.000 C 
ATOM     18  C   UNL     1       1.912   3.880  20.863  0.00  0.00    +0.000 C 
ATOM     19  C   UNL     1       0.609   3.613  20.108  0.00  0.00    +0.000 C 
ATOM     20  C   UNL     1       0.854   2.701  18.915  0.00  0.00    +0.000 C 
ATOM     21  C   UNL     1       1.873   3.309  17.958  0.00  0.00    +0.000 C 
ATOM     22  C   UNL     1       3.173   3.724  18.657  0.00  0.00    +0.000 C 
ENDBRANCH   4  17
TORSDOF 2
ENDMDL
MODEL 7
REMARK VINA RESULT:      -6.4      0.701      1.081
REMARK  Name = 
REMARK  3 active torsions:
REMARK  status: ('A' for Active; 'I' for Inactive)
REMARK    1  A    between atoms: C_1  and  N_2
REMARK    2  A    between atoms: C_4  and  C_5
REMARK    3  A    between atoms: C_12  and  C_13
REMARK                            x       y       z     vdW  Elec       q    Type
REMARK                         _______ _______ _______ _____ _____    ______ ____
ROOT
ATOM      1  C   UNL     1       6.351   5.374  19.440  0.00  0.00    +0.000 C 
ATOM      2  N   UNL     1       5.218   4.885  18.689  0.00  0.00    +0.000 N 
ATOM      3  N   UNL     1       4.206   4.345  19.377  0.00  0.00    +0.000 NA
ATOM      4  C   UNL     1       3.432   3.788  18.450  0.00  0.00    +0.000 A 
ATOM      5  C   UNL     1       3.885   4.122  17.140  0.00  0.00    +0.000 A 
ATOM      6  C   UNL     1       5.053   4.839  17.324  0.00  0.00    +0.000 A 
ENDROOT
BRANCH   6   7
ATOM      7  C   UNL     1       5.998   5.562  16.414  0.00  0.00    +0.000 C 
ATOM      8  C   UNL     1       5.229   6.072  15.212  0.00  0.00    +0.000 C 
ATOM      9  O   UNL     1       6.115   5.944  14.133  0.00  0.00    +0.000 OA
ATOM     10  C   UNL     1       6.998   4.864  14.468  0.00  0.00    +0.000 C 
ATOM     11  C   UNL     1       6.539   3.529  13.881  0.00  0.00    +0.000 C 
ATOM     12  C   UNL     1       6.042   3.723  12.465  0.00  0.00    +0.000 C 
ATOM     13  C   UNL     1       6.939   4.606  11.584  0.00  0.00    +0.000 C 
ATOM     14  C   UNL     1       7.992   5.506  12.266  0.00  0.00    +0.000 C 
ATOM     15  C   UNL     1       8.308   5.194  13.745  0.00  0.00    +0.000 C 
ATOM     16  O   UNL     1       7.045   4.713  15.892  0.00  0.00    +0.000 OA
ENDBRANCH   6   7
BRANCH   4  17
ATOM     17  C   UNL     1       2.353   2.808  18.846  0.00  0.00    +0.000 C 
ATOM     18  C   UNL     1       2.900   1.886  19.955  0.00  0.00    +0.000 C 
ATOM     19  C   UNL     1       2.882   2.541  21.338  0.00  0.00    +0.000 C 
ATOM     20  C   UNL     1       1.471   2.971  21.713  0.00  0.00    +0.000 C 
ATOM     21  C   UNL     1       0.904   3.947  20.689  0.00  0.00    +0.000 C 
ATOM     22  C   UNL     1       0.994   3.422  19.251  0.00  0.00    +0.000 C 
ENDBRANCH   4  17
TORSDOF 2
ENDMDL
MODEL 8
REMARK VINA RESULT:      -6.4      6.719      8.604
REMARK  Name = 
REMARK  3 active torsions:
REMARK  status: ('A' for Active; 'I' for Inactive)
REMARK    1  A    between atoms: C_1  and  N_2
REMARK    2  A    between atoms: C_4  and  C_5
REMARK    3  A    between atoms: C_12  and  C_13
REMARK                            x       y       z     vdW  Elec       q    Type
REMARK                         _______ _______ _______ _____ _____    ______ ____
ROOT
ATOM      1  C   UNL     1       1.325   9.650  18.005  0.00  0.00    +0.000 C 
ATOM      2  N   UNL     1       1.647   8.710  19.052  0.00  0.00    +0.000 N 
ATOM      3  N   UNL     1       2.496   7.719  18.757  0.00  0.00    +0.000 NA
ATOM      4  C   UNL     1       2.431   6.900  19.803  0.00  0.00    +0.000 A 
ATOM      5  C   UNL     1       1.642   7.467  20.846  0.00  0.00    +0.000 A 
ATOM      6  C   UNL     1       1.142   8.649  20.332  0.00  0.00    +0.000 A 
ENDROOT
BRANCH   6   7
ATOM      7  C   UNL     1       0.326   9.776  20.887  0.00  0.00    +0.000 C 
ATOM      8  C   UNL     1      -0.595  10.296  19.803  0.00  0.00    +0.000 C 
ATOM      9  O   UNL     1      -0.656  11.681  20.011  0.00  0.00    +0.000 OA
ATOM     10  C   UNL     1       0.582  12.045  20.639  0.00  0.00    +0.000 C 
ATOM     11  C   UNL     1       1.628  12.529  19.634  0.00  0.00    +0.000 C 
ATOM     12  C   UNL     1       0.983  13.424  18.598  0.00  0.00    +0.000 C 
ATOM     13  C   UNL     1       0.017  14.474  19.166  0.00  0.00    +0.000 C 
ATOM     14  C   UNL     1      -0.511  14.293  20.607  0.00  0.00    +0.000 C 
ATOM     15  C   UNL     1       0.240  13.273  21.490  0.00  0.00    +0.000 C 
ATOM     16  O   UNL     1       1.127  10.902  21.309  0.00  0.00    +0.000 OA
ENDBRANCH   6   7
BRANCH   4  17
ATOM     17  C   UNL     1       3.005   5.506  19.715  0.00  0.00    +0.000 C 
ATOM     18  C   UNL     1       2.313   4.614  20.764  0.00  0.00    +0.000 C 
ATOM     19  C   UNL     1       0.933   4.127  20.317  0.00  0.00    +0.000 C 
ATOM     20  C   UNL     1       1.032   3.354  19.010  0.00  0.00    +0.000 C 
ATOM     21  C   UNL     1       1.641   4.213  17.908  0.00  0.00    +0.000 C 
ATOM     22  C   UNL     1       2.976   4.847  18.317  0.00  0.00    +0.000 C 
ENDBRANCH   4  17
TORSDOF 2
ENDMDL
MODEL 9
REMARK VINA RESULT:      -6.2      6.024      8.358
REMARK  Name = 
REMARK  3 active torsions:
REMARK  status: ('A' for Active; 'I' for Inactive)
REMARK    1  A    between atoms: C_1  and  N_2
REMARK    2  A    between atoms: C_4  and  C_5
REMARK    3  A    between atoms: C_12  and  C_13
REMARK                            x       y       z     vdW  Elec       q    Type
REMARK                         _______ _______ _______ _____ _____    ______ ____
ROOT
ATOM      1  C   UNL     1       1.743   7.719  21.417  0.00  0.00    +0.000 C 
ATOM      2  N   UNL     1       1.984   7.604  19.998  0.00  0.00    +0.000 N 
ATOM      3  N   UNL     1       2.498   6.454  19.547  0.00  0.00    +0.000 NA
ATOM      4  C   UNL     1       2.821   6.705  18.282  0.00  0.00    +0.000 A 
ATOM      5  C   UNL     1       2.355   7.992  17.883  0.00  0.00    +0.000 A 
ATOM      6  C   UNL     1       1.812   8.558  19.021  0.00  0.00    +0.000 A 
ENDROOT
BRANCH   6   7
ATOM      7  C   UNL     1       1.079   9.831  19.315  0.00  0.00    +0.000 C 
ATOM      8  C   UNL     1      -0.170   9.507  20.108  0.00  0.00    +0.000 C 
ATOM      9  O   UNL     1      -1.137  10.413  19.650  0.00  0.00    +0.000 OA
ATOM     10  C   UNL     1      -0.770  10.738  18.301  0.00  0.00    +0.000 C 
ATOM     11  C   UNL     1      -1.502   9.876  17.271  0.00  0.00    +0.000 C 
ATOM     12  C   UNL     1      -2.952   9.703  17.668  0.00  0.00    +0.000 C 
ATOM     13  C   UNL     1      -3.651  10.991  18.127  0.00  0.00    +0.000 C 
ATOM     14  C   UNL     1      -2.782  12.206  18.520  0.00  0.00    +0.000 C 
ATOM     15  C   UNL     1      -1.301  12.160  18.087  0.00  0.00    +0.000 C 
ATOM     16  O   UNL     1       0.634  10.519  18.125  0.00  0.00    +0.000 OA
ENDBRANCH   6   7
BRANCH   4  17
ATOM     17  C   UNL     1       3.716   5.755  17.522  0.00  0.00    +0.000 C 
ATOM     18  C   UNL     1       4.674   6.575  16.635  0.00  0.00    +0.000 C 
ATOM     19  C   UNL     1       5.861   7.151  17.411  0.00  0.00    +0.000 C 
ATOM     20  C   UNL     1       6.652   6.041  18.087  0.00  0.00    +0.000 C 
ATOM     21  C   UNL     1       5.772   5.240  19.040  0.00  0.00    +0.000 C 
ATOM     22  C   UNL     1       4.490   4.724  18.374  0.00  0.00    +0.000 C 
ENDBRANCH   4  17
TORSDOF 2
ENDMDL
