MODEL 1
REMARK VINA RESULT:      -7.9      0.000      0.000
REMARK  Name = 
REMARK  4 active torsions:
REMARK  status: ('A' for Active; 'I' for Inactive)
REMARK    1  A    between atoms: S_2  and  N_4
REMARK    2  A    between atoms: S_2  and  C_17
REMARK    3  A    between atoms: N_4  and  C_5
REMARK    4  A    between atoms: C_10  and  N_11
REMARK                            x       y       z     vdW  Elec       q    Type
REMARK                         _______ _______ _______ _____ _____    ______ ____
ROOT
ATOM      1  N   UNL     1       4.286   4.640  18.441  0.00  0.00    +0.000 NA
ATOM      2  H   UNL     1       4.250   3.920  19.164  0.00  0.00    +0.000 HD
ENDROOT
BRANCH   1   3
ATOM      3  C   UNL     1       3.085   5.475  18.204  0.00  0.00    +0.000 C 
ATOM      4  C   UNL     1       1.898   4.642  17.737  0.00  0.00    +0.000 C 
ATOM      5  C   UNL     1       1.311   3.728  18.808  0.00  0.00    +0.000 C 
ATOM      6  C   UNL     1       1.234   4.271  20.234  0.00  0.00    +0.000 C 
ATOM      7  C   UNL     1       2.269   5.324  20.625  0.00  0.00    +0.000 C 
ATOM      8  C   UNL     1       2.730   6.285  19.505  0.00  0.00    +0.000 C 
BRANCH   8   9
ATOM      9  N   UNL     1       1.847   7.480  19.381  0.00  0.00    +0.000 NA
ATOM     10  C   UNL     1       1.608   8.148  20.668  0.00  0.00    +0.000 C 
ATOM     11  C   UNL     1       0.531   9.233  20.562  0.00  0.00    +0.000 C 
ATOM     12  C   UNL     1       0.868  10.244  19.474  0.00  0.00    +0.000 C 
ATOM     13  C   UNL     1       1.089   9.517  18.159  0.00  0.00    +0.000 C 
ATOM     14  C   UNL     1       2.154   8.434  18.313  0.00  0.00    +0.000 C 
ENDBRANCH   8   9
ENDBRANCH   1   3
BRANCH   1  16
ATOM     15  O   UNL     1       5.909   6.509  18.293  0.00  0.00    +0.000 OA
ATOM     16  S   UNL     1       5.844   5.081  18.047  0.00  0.00    +0.000 S 
ATOM     17  O   UNL     1       6.788   4.184  18.668  0.00  0.00    +0.000 OA
BRANCH  16  18
ATOM     18  C   UNL     1       5.966   4.863  16.272  0.00  0.00    +0.000 A 
ATOM     19  C   UNL     1       7.138   5.258  15.615  0.00  0.00    +0.000 A 
ATOM     20  C   UNL     1       7.353   4.871  14.289  0.00  0.00    +0.000 A 
ATOM     21  C   UNL     1       6.403   4.089  13.630  0.00  0.00    +0.000 A 
ATOM     22 CL   UNL     1       6.724   3.518  12.039  0.00  0.00    +0.000 Cl
ATOM     23  C   UNL     1       5.216   3.730  14.270  0.00  0.00    +0.000 A 
ATOM     24  C   UNL     1       4.995   4.115  15.597  0.00  0.00    +0.000 A 
ENDBRANCH  16  18
ENDBRANCH   1  16
TORSDOF 4
ENDMDL
MODEL 2
REMARK VINA RESULT:      -7.9      0.235      1.038
REMARK  Name = 
REMARK  4 active torsions:
REMARK  status: ('A' for Active; 'I' for Inactive)
REMARK    1  A    between atoms: S_2  and  N_4
REMARK    2  A    between atoms: S_2  and  C_17
REMARK    3  A    between atoms: N_4  and  C_5
REMARK    4  A    between atoms: C_10  and  N_11
REMARK                            x       y       z     vdW  Elec       q    Type
REMARK                         _______ _______ _______ _____ _____    ______ ____
ROOT
ATOM      1  N   UNL     1       4.220   4.698  18.465  0.00  0.00    +0.000 NA
ATOM      2  H   UNL     1       4.179   3.933  19.140  0.00  0.00    +0.000 HD
ENDROOT
BRANCH   1   3
ATOM      3  C   UNL     1       3.009   5.524  18.248  0.00  0.00    +0.000 C 
ATOM      4  C   UNL     1       1.823   4.683  17.793  0.00  0.00    +0.000 C 
ATOM      5  C   UNL     1       1.257   3.759  18.867  0.00  0.00    +0.000 C 
ATOM      6  C   UNL     1       1.195   4.294  20.296  0.00  0.00    +0.000 C 
ATOM      7  C   UNL     1       2.226   5.354  20.679  0.00  0.00    +0.000 C 
ATOM      8  C   UNL     1       2.664   6.324  19.557  0.00  0.00    +0.000 C 
BRANCH   8   9
ATOM      9  N   UNL     1       1.770   7.513  19.452  0.00  0.00    +0.000 NA
ATOM     10  C   UNL     1       1.521   8.157  20.748  0.00  0.00    +0.000 C 
ATOM     11  C   UNL     1       0.433   9.233  20.659  0.00  0.00    +0.000 C 
ATOM     12  C   UNL     1       0.762  10.265  19.588  0.00  0.00    +0.000 C 
ATOM     13  C   UNL     1       0.994   9.562  18.262  0.00  0.00    +0.000 C 
ATOM     14  C   UNL     1       2.069   8.487  18.400  0.00  0.00    +0.000 C 
ENDBRANCH   8   9
ENDBRANCH   1   3
BRANCH   1  16
ATOM     15  O   UNL     1       5.708   6.638  18.050  0.00  0.00    +0.000 OA
ATOM     16  S   UNL     1       5.778   5.193  18.143  0.00  0.00    +0.000 S 
ATOM     17  O   UNL     1       6.700   4.557  19.052  0.00  0.00    +0.000 OA
BRANCH  16  18
ATOM     18  C   UNL     1       6.135   4.593  16.492  0.00  0.00    +0.000 A 
ATOM     19  C   UNL     1       5.169   3.838  15.816  0.00  0.00    +0.000 A 
ATOM     20  C   UNL     1       5.324   3.579  14.450  0.00  0.00    +0.000 A 
ATOM     21  C   UNL     1       6.435   4.077  13.768  0.00  0.00    +0.000 A 
ATOM     22 CL   UNL     1       6.562   3.855  12.067  0.00  0.00    +0.000 Cl
ATOM     23  C   UNL     1       7.419   4.794  14.449  0.00  0.00    +0.000 A 
ATOM     24  C   UNL     1       7.270   5.057  15.816  0.00  0.00    +0.000 A 
ENDBRANCH  16  18
ENDBRANCH   1  16
TORSDOF 4
ENDMDL
MODEL 3
REMARK VINA RESULT:      -7.3      3.357      7.316
REMARK  Name = 
REMARK  4 active torsions:
REMARK  status: ('A' for Active; 'I' for Inactive)
REMARK    1  A    between atoms: S_2  and  N_4
REMARK    2  A    between atoms: S_2  and  C_17
REMARK    3  A    between atoms: N_4  and  C_5
REMARK    4  A    between atoms: C_10  and  N_11
REMARK                            x       y       z     vdW  Elec       q    Type
REMARK                         _______ _______ _______ _____ _____    ______ ____
ROOT
ATOM      1  N   UNL     1       4.505   3.973  17.656  0.00  0.00    +0.000 NA
ATOM      2  H   UNL     1       5.190   3.501  18.248  0.00  0.00    +0.000 HD
ENDROOT
BRANCH   1   3
ATOM      3  C   UNL     1       4.949   4.532  16.357  0.00  0.00    +0.000 C 
ATOM      4  C   UNL     1       4.873   6.053  16.339  0.00  0.00    +0.000 C 
ATOM      5  C   UNL     1       5.900   6.746  17.229  0.00  0.00    +0.000 C 
ATOM      6  C   UNL     1       7.302   6.143  17.288  0.00  0.00    +0.000 C 
ATOM      7  C   UNL     1       7.416   4.641  17.032  0.00  0.00    +0.000 C 
ATOM      8  C   UNL     1       6.406   4.036  16.030  0.00  0.00    +0.000 C 
BRANCH   8   9
ATOM      9  N   UNL     1       6.885   4.115  14.620  0.00  0.00    +0.000 NA
ATOM     10  C   UNL     1       5.891   3.636  13.651  0.00  0.00    +0.000 C 
ATOM     11  C   UNL     1       6.474   3.516  12.239  0.00  0.00    +0.000 C 
ATOM     12  C   UNL     1       7.095   4.829  11.783  0.00  0.00    +0.000 C 
ATOM     13  C   UNL     1       8.129   5.280  12.800  0.00  0.00    +0.000 C 
ATOM     14  C   UNL     1       7.512   5.368  14.194  0.00  0.00    +0.000 C 
ENDBRANCH   8   9
ENDBRANCH   1   3
BRANCH   1  16
ATOM     15  O   UNL     1       2.246   3.506  16.750  0.00  0.00    +0.000 OA
ATOM     16  S   UNL     1       2.936   3.554  18.024  0.00  0.00    +0.000 S 
ATOM     17  O   UNL     1       2.919   2.417  18.913  0.00  0.00    +0.000 OA
BRANCH  16  18
ATOM     18  C   UNL     1       2.264   4.957  18.914  0.00  0.00    +0.000 A 
ATOM     19  C   UNL     1       1.756   4.766  20.205  0.00  0.00    +0.000 A 
ATOM     20  C   UNL     1       1.464   5.875  21.006  0.00  0.00    +0.000 A 
ATOM     21  C   UNL     1       1.684   7.163  20.517  0.00  0.00    +0.000 A 
ATOM     22 CL   UNL     1       1.434   8.520  21.545  0.00  0.00    +0.000 Cl
ATOM     23  C   UNL     1       2.150   7.355  19.216  0.00  0.00    +0.000 A 
ATOM     24  C   UNL     1       2.445   6.250  18.410  0.00  0.00    +0.000 A 
ENDBRANCH  16  18
ENDBRANCH   1  16
TORSDOF 4
ENDMDL
MODEL 4
REMARK VINA RESULT:      -7.2      2.682      3.170
REMARK  Name = 
REMARK  4 active torsions:
REMARK  status: ('A' for Active; 'I' for Inactive)
REMARK    1  A    between atoms: S_2  and  N_4
REMARK    2  A    between atoms: S_2  and  C_17
REMARK    3  A    between atoms: N_4  and  C_5
REMARK    4  A    between atoms: C_10  and  N_11
REMARK                            x       y       z     vdW  Elec       q    Type
REMARK                         _______ _______ _______ _____ _____    ______ ____
ROOT
ATOM      1  N   UNL     1       4.240   4.855  18.882  0.00  0.00    +0.000 NA
ATOM      2  H   UNL     1       4.514   4.826  19.865  0.00  0.00    +0.000 HD
ENDROOT
BRANCH   1   3
ATOM      3  C   UNL     1       3.060   5.662  18.492  0.00  0.00    +0.000 C 
ATOM      4  C   UNL     1       1.944   4.797  17.920  0.00  0.00    +0.000 C 
ATOM      5  C   UNL     1       1.256   3.899  18.944  0.00  0.00    +0.000 C 
ATOM      6  C   UNL     1       1.014   4.476  20.337  0.00  0.00    +0.000 C 
ATOM      7  C   UNL     1       1.985   5.557  20.812  0.00  0.00    +0.000 C 
ATOM      8  C   UNL     1       2.552   6.498  19.724  0.00  0.00    +0.000 C 
BRANCH   8   9
ATOM      9  N   UNL     1       1.671   7.674  19.473  0.00  0.00    +0.000 NA
ATOM     10  C   UNL     1       1.348   8.418  20.698  0.00  0.00    +0.000 C 
ATOM     11  C   UNL     1       0.273   9.483  20.460  0.00  0.00    +0.000 C 
ATOM     12  C   UNL     1       0.669  10.428  19.334  0.00  0.00    +0.000 C 
ATOM     13  C   UNL     1       0.976   9.623  18.082  0.00  0.00    +0.000 C 
ATOM     14  C   UNL     1       2.036   8.562  18.368  0.00  0.00    +0.000 C 
ENDBRANCH   8   9
ENDBRANCH   1   3
BRANCH   1  16
ATOM     15  O   UNL     1       6.213   3.389  18.555  0.00  0.00    +0.000 OA
ATOM     16  S   UNL     1       5.478   4.423  17.854  0.00  0.00    +0.000 S 
ATOM     17  O   UNL     1       4.963   4.189  16.526  0.00  0.00    +0.000 OA
BRANCH  16  18
ATOM     18  C   UNL     1       6.556   5.853  17.779  0.00  0.00    +0.000 A 
ATOM     19  C   UNL     1       6.163   6.965  17.025  0.00  0.00    +0.000 A 
ATOM     20  C   UNL     1       6.859   8.172  17.155  0.00  0.00    +0.000 A 
ATOM     21  C   UNL     1       7.935   8.262  18.039  0.00  0.00    +0.000 A 
ATOM     22 CL   UNL     1       8.714   9.777  18.282  0.00  0.00    +0.000 Cl
ATOM     23  C   UNL     1       8.353   7.143  18.760  0.00  0.00    +0.000 A 
ATOM     24  C   UNL     1       7.662   5.933  18.634  0.00  0.00    +0.000 A 
ENDBRANCH  16  18
ENDBRANCH   1  16
TORSDOF 4
ENDMDL
MODEL 5
REMARK VINA RESULT:      -7.1      3.286      7.279
REMARK  Name = 
REMARK  4 active torsions:
REMARK  status: ('A' for Active; 'I' for Inactive)
REMARK    1  A    between atoms: S_2  and  N_4
REMARK    2  A    between atoms: S_2  and  C_17
REMARK    3  A    between atoms: N_4  and  C_5
REMARK    4  A    between atoms: C_10  and  N_11
REMARK                            x       y       z     vdW  Elec       q    Type
REMARK                         _______ _______ _______ _____ _____    ______ ____
ROOT
ATOM      1  N   UNL     1       4.401   4.309  17.833  0.00  0.00    +0.000 NA
ATOM      2  H   UNL     1       5.007   3.696  18.380  0.00  0.00    +0.000 HD
ENDROOT
BRANCH   1   3
ATOM      3  C   UNL     1       4.856   4.756  16.495  0.00  0.00    +0.000 C 
ATOM      4  C   UNL     1       4.904   6.275  16.391  0.00  0.00    +0.000 C 
ATOM      5  C   UNL     1       6.008   6.928  17.218  0.00  0.00    +0.000 C 
ATOM      6  C   UNL     1       7.356   6.214  17.283  0.00  0.00    +0.000 C 
ATOM      7  C   UNL     1       7.340   4.696  17.112  0.00  0.00    +0.000 C 
ATOM      8  C   UNL     1       6.258   4.123  16.167  0.00  0.00    +0.000 C 
BRANCH   8   9
ATOM      9  N   UNL     1       6.707   4.083  14.746  0.00  0.00    +0.000 NA
ATOM     10  C   UNL     1       5.649   3.648  13.824  0.00  0.00    +0.000 C 
ATOM     11  C   UNL     1       6.182   3.401  12.409  0.00  0.00    +0.000 C 
ATOM     12  C   UNL     1       6.909   4.625  11.870  0.00  0.00    +0.000 C 
ATOM     13  C   UNL     1       8.006   5.031  12.840  0.00  0.00    +0.000 C 
ATOM     14  C   UNL     1       7.435   5.248  14.239  0.00  0.00    +0.000 C 
ENDBRANCH   8   9
ENDBRANCH   1   3
BRANCH   1  16
ATOM     15  O   UNL     1       2.035   4.198  17.100  0.00  0.00    +0.000 OA
ATOM     16  S   UNL     1       2.810   4.249  18.324  0.00  0.00    +0.000 S 
ATOM     17  O   UNL     1       2.642   3.242  19.344  0.00  0.00    +0.000 OA
BRANCH  16  18
ATOM     18  C   UNL     1       2.482   5.845  19.070  0.00  0.00    +0.000 A 
ATOM     19  C   UNL     1       2.491   6.990  18.264  0.00  0.00    +0.000 A 
ATOM     20  C   UNL     1       1.995   8.197  18.768  0.00  0.00    +0.000 A 
ATOM     21  C   UNL     1       1.490   8.252  20.068  0.00  0.00    +0.000 A 
ATOM     22 CL   UNL     1       0.775   9.707  20.643  0.00  0.00    +0.000 Cl
ATOM     23  C   UNL     1       1.519   7.123  20.886  0.00  0.00    +0.000 A 
ATOM     24  C   UNL     1       2.014   5.912  20.387  0.00  0.00    +0.000 A 
ENDBRANCH  16  18
ENDBRANCH   1  16
TORSDOF 4
ENDMDL
MODEL 6
REMARK VINA RESULT:      -7.0      2.749      3.280
REMARK  Name = 
REMARK  4 active torsions:
REMARK  status: ('A' for Active; 'I' for Inactive)
REMARK    1  A    between atoms: S_2  and  N_4
REMARK    2  A    between atoms: S_2  and  C_17
REMARK    3  A    between atoms: N_4  and  C_5
REMARK    4  A    between atoms: C_10  and  N_11
REMARK                            x       y       z     vdW  Elec       q    Type
REMARK                         _______ _______ _______ _____ _____    ______ ____
ROOT
ATOM      1  N   UNL     1       4.192   4.504  17.699  0.00  0.00    +0.000 NA
ATOM      2  H   UNL     1       4.427   3.939  18.516  0.00  0.00    +0.000 HD
ENDROOT
BRANCH   1   3
ATOM      3  C   UNL     1       2.954   5.319  17.726  0.00  0.00    +0.000 C 
ATOM      4  C   UNL     1       1.703   4.452  17.645  0.00  0.00    +0.000 C 
ATOM      5  C   UNL     1       1.433   3.617  18.893  0.00  0.00    +0.000 C 
ATOM      6  C   UNL     1       1.719   4.262  20.248  0.00  0.00    +0.000 C 
ATOM      7  C   UNL     1       2.800   5.343  20.281  0.00  0.00    +0.000 C 
ATOM      8  C   UNL     1       2.933   6.220  19.015  0.00  0.00    +0.000 C 
BRANCH   8   9
ATOM      9  N   UNL     1       2.025   7.402  19.043  0.00  0.00    +0.000 NA
ATOM     10  C   UNL     1       1.859   7.962  20.391  0.00  0.00    +0.000 C 
ATOM     11  C   UNL     1       0.760   9.029  20.441  0.00  0.00    +0.000 C 
ATOM     12  C   UNL     1       1.009  10.129  19.418  0.00  0.00    +0.000 C 
ATOM     13  C   UNL     1       1.156   9.512  18.038  0.00  0.00    +0.000 C 
ATOM     14  C   UNL     1       2.246   8.443  18.037  0.00  0.00    +0.000 C 
ENDBRANCH   8   9
ENDBRANCH   1   3
BRANCH   1  16
ATOM     15  O   UNL     1       6.354   3.637  16.850  0.00  0.00    +0.000 OA
ATOM     16  S   UNL     1       5.508   4.808  16.724  0.00  0.00    +0.000 S 
ATOM     17  O   UNL     1       5.071   5.264  15.426  0.00  0.00    +0.000 OA
BRANCH  16  18
ATOM     18  C   UNL     1       6.385   6.157  17.513  0.00  0.00    +0.000 A 
ATOM     19  C   UNL     1       7.385   5.867  18.449  0.00  0.00    +0.000 A 
ATOM     20  C   UNL     1       8.244   6.882  18.883  0.00  0.00    +0.000 A 
ATOM     21  C   UNL     1       8.103   8.175  18.378  0.00  0.00    +0.000 A 
ATOM     22 CL   UNL     1       9.233   9.392  18.826  0.00  0.00    +0.000 Cl
ATOM     23  C   UNL     1       7.081   8.475  17.477  0.00  0.00    +0.000 A 
ATOM     24  C   UNL     1       6.218   7.464  17.039  0.00  0.00    +0.000 A 
ENDBRANCH  16  18
ENDBRANCH   1  16
TORSDOF 4
ENDMDL
MODEL 7
REMARK VINA RESULT:      -7.0      3.321      7.387
REMARK  Name = 
REMARK  4 active torsions:
REMARK  status: ('A' for Active; 'I' for Inactive)
REMARK    1  A    between atoms: S_2  and  N_4
REMARK    2  A    between atoms: S_2  and  C_17
REMARK    3  A    between atoms: N_4  and  C_5
REMARK    4  A    between atoms: C_10  and  N_11
REMARK                            x       y       z     vdW  Elec       q    Type
REMARK                         _______ _______ _______ _____ _____    ______ ____
ROOT
ATOM      1  N   UNL     1       4.297   4.960  18.036  0.00  0.00    +0.000 NA
ATOM      2  H   UNL     1       4.944   4.344  18.531  0.00  0.00    +0.000 HD
ENDROOT
BRANCH   1   3
ATOM      3  C   UNL     1       4.652   5.421  16.673  0.00  0.00    +0.000 C 
ATOM      4  C   UNL     1       5.046   6.893  16.656  0.00  0.00    +0.000 C 
ATOM      5  C   UNL     1       6.379   7.195  17.334  0.00  0.00    +0.000 C 
ATOM      6  C   UNL     1       7.513   6.191  17.137  0.00  0.00    +0.000 C 
ATOM      7  C   UNL     1       7.111   4.740  16.877  0.00  0.00    +0.000 C 
ATOM      8  C   UNL     1       5.801   4.522  16.085  0.00  0.00    +0.000 C 
BRANCH   8   9
ATOM      9  N   UNL     1       6.021   4.521  14.610  0.00  0.00    +0.000 NA
ATOM     10  C   UNL     1       7.403   4.852  14.239  0.00  0.00    +0.000 C 
ATOM     11  C   UNL     1       7.561   5.063  12.729  0.00  0.00    +0.000 C 
ATOM     12  C   UNL     1       7.057   3.859  11.946  0.00  0.00    +0.000 C 
ATOM     13  C   UNL     1       5.621   3.561  12.344  0.00  0.00    +0.000 C 
ATOM     14  C   UNL     1       5.506   3.377  13.855  0.00  0.00    +0.000 C 
ENDBRANCH   8   9
ENDBRANCH   1   3
BRANCH   1  16
ATOM     15  O   UNL     1       1.903   4.604  17.498  0.00  0.00    +0.000 OA
ATOM     16  S   UNL     1       2.747   4.889  18.642  0.00  0.00    +0.000 S 
ATOM     17  O   UNL     1       2.709   4.046  19.813  0.00  0.00    +0.000 OA
BRANCH  16  18
ATOM     18  C   UNL     1       2.360   6.561  19.157  0.00  0.00    +0.000 A 
ATOM     19  C   UNL     1       2.251   7.566  18.187  0.00  0.00    +0.000 A 
ATOM     20  C   UNL     1       1.708   8.807  18.534  0.00  0.00    +0.000 A 
ATOM     21  C   UNL     1       1.275   9.036  19.840  0.00  0.00    +0.000 A 
ATOM     22 CL   UNL     1       0.502  10.522  20.234  0.00  0.00    +0.000 Cl
ATOM     23  C   UNL     1       1.421   8.051  20.817  0.00  0.00    +0.000 A 
ATOM     24  C   UNL     1       1.963   6.806  20.476  0.00  0.00    +0.000 A 
ENDBRANCH  16  18
ENDBRANCH   1  16
TORSDOF 4
ENDMDL
MODEL 8
REMARK VINA RESULT:      -7.0      0.443      1.112
REMARK  Name = 
REMARK  4 active torsions:
REMARK  status: ('A' for Active; 'I' for Inactive)
REMARK    1  A    between atoms: S_2  and  N_4
REMARK    2  A    between atoms: S_2  and  C_17
REMARK    3  A    between atoms: N_4  and  C_5
REMARK    4  A    between atoms: C_10  and  N_11
REMARK                            x       y       z     vdW  Elec       q    Type
REMARK                         _______ _______ _______ _____ _____    ______ ____
ROOT
ATOM      1  N   UNL     1       4.270   4.665  18.276  0.00  0.00    +0.000 NA
ATOM      2  H   UNL     1       4.182   3.790  18.794  0.00  0.00    +0.000 HD
ENDROOT
BRANCH   1   3
ATOM      3  C   UNL     1       3.151   5.636  18.316  0.00  0.00    +0.000 C 
ATOM      4  C   UNL     1       1.849   5.022  17.819  0.00  0.00    +0.000 C 
ATOM      5  C   UNL     1       1.251   3.973  18.752  0.00  0.00    +0.000 C 
ATOM      6  C   UNL     1       1.344   4.231  20.255  0.00  0.00    +0.000 C 
ATOM      7  C   UNL     1       2.514   5.089  20.734  0.00  0.00    +0.000 C 
ATOM      8  C   UNL     1       2.987   6.205  19.774  0.00  0.00    +0.000 C 
BRANCH   8   9
ATOM      9  N   UNL     1       2.231   7.476  19.962  0.00  0.00    +0.000 NA
ATOM     10  C   UNL     1       1.880   8.125  18.692  0.00  0.00    +0.000 C 
ATOM     11  C   UNL     1       1.303   9.529  18.902  0.00  0.00    +0.000 C 
ATOM     12  C   UNL     1       0.113   9.502  19.852  0.00  0.00    +0.000 C 
ATOM     13  C   UNL     1       0.522   8.842  21.157  0.00  0.00    +0.000 C 
ATOM     14  C   UNL     1       1.108   7.455  20.901  0.00  0.00    +0.000 C 
ENDBRANCH   8   9
ENDBRANCH   1   3
BRANCH   1  16
ATOM     15  O   UNL     1       5.966   6.473  18.203  0.00  0.00    +0.000 OA
ATOM     16  S   UNL     1       5.853   5.053  17.929  0.00  0.00    +0.000 S 
ATOM     17  O   UNL     1       6.746   4.109  18.557  0.00  0.00    +0.000 OA
BRANCH  16  18
ATOM     18  C   UNL     1       6.013   4.862  16.155  0.00  0.00    +0.000 A 
ATOM     19  C   UNL     1       7.225   5.198  15.539  0.00  0.00    +0.000 A 
ATOM     20  C   UNL     1       7.454   4.823  14.211  0.00  0.00    +0.000 A 
ATOM     21  C   UNL     1       6.478   4.114  13.510  0.00  0.00    +0.000 A 
ATOM     22 CL   UNL     1       6.810   3.554  11.917  0.00  0.00    +0.000 Cl
ATOM     23  C   UNL     1       5.254   3.816  14.109  0.00  0.00    +0.000 A 
ATOM     24  C   UNL     1       5.018   4.188  15.437  0.00  0.00    +0.000 A 
ENDBRANCH  16  18
ENDBRANCH   1  16
TORSDOF 4
ENDMDL
MODEL 9
REMARK VINA RESULT:      -6.9      3.330      7.414
REMARK  Name = 
REMARK  4 active torsions:
REMARK  status: ('A' for Active; 'I' for Inactive)
REMARK    1  A    between atoms: S_2  and  N_4
REMARK    2  A    between atoms: S_2  and  C_17
REMARK    3  A    between atoms: N_4  and  C_5
REMARK    4  A    between atoms: C_10  and  N_11
REMARK                            x       y       z     vdW  Elec       q    Type
REMARK                         _______ _______ _______ _____ _____    ______ ____
ROOT
ATOM      1  N   UNL     1       4.402   4.269  17.769  0.00  0.00    +0.000 NA
ATOM      2  H   UNL     1       5.163   3.794  18.257  0.00  0.00    +0.000 HD
ENDROOT
BRANCH   1   3
ATOM      3  C   UNL     1       4.673   4.873  16.442  0.00  0.00    +0.000 C 
ATOM      4  C   UNL     1       4.766   6.392  16.519  0.00  0.00    +0.000 C 
ATOM      5  C   UNL     1       6.004   6.911  17.243  0.00  0.00    +0.000 C 
ATOM      6  C   UNL     1       7.318   6.166  17.015  0.00  0.00    +0.000 C 
ATOM      7  C   UNL     1       7.216   4.682  16.663  0.00  0.00    +0.000 C 
ATOM      8  C   UNL     1       5.984   4.257  15.830  0.00  0.00    +0.000 C 
BRANCH   8   9
ATOM      9  N   UNL     1       6.217   4.389  14.364  0.00  0.00    +0.000 NA
ATOM     10  C   UNL     1       7.553   4.905  14.041  0.00  0.00    +0.000 C 
ATOM     11  C   UNL     1       7.698   5.242  12.553  0.00  0.00    +0.000 C 
ATOM     12  C   UNL     1       7.347   4.047  11.678  0.00  0.00    +0.000 C 
ATOM     13  C   UNL     1       5.954   3.555  12.028  0.00  0.00    +0.000 C 
ATOM     14  C   UNL     1       5.848   3.250  13.521  0.00  0.00    +0.000 C 
ENDBRANCH   8   9
ENDBRANCH   1   3
BRANCH   1  16
ATOM     15  O   UNL     1       2.108   3.591  17.118  0.00  0.00    +0.000 OA
ATOM     16  S   UNL     1       2.897   3.810  18.314  0.00  0.00    +0.000 S 
ATOM     17  O   UNL     1       3.024   2.774  19.312  0.00  0.00    +0.000 OA
BRANCH  16  18
ATOM     18  C   UNL     1       2.217   5.262  19.115  0.00  0.00    +0.000 A 
ATOM     19  C   UNL     1       1.686   5.144  20.406  0.00  0.00    +0.000 A 
ATOM     20  C   UNL     1       1.385   6.296  21.139  0.00  0.00    +0.000 A 
ATOM     21  C   UNL     1       1.620   7.555  20.585  0.00  0.00    +0.000 A 
ATOM     22 CL   UNL     1       1.358   8.966  21.533  0.00  0.00    +0.000 Cl
ATOM     23  C   UNL     1       2.110   7.674  19.284  0.00  0.00    +0.000 A 
ATOM     24  C   UNL     1       2.413   6.525  18.545  0.00  0.00    +0.000 A 
ENDBRANCH  16  18
ENDBRANCH   1  16
TORSDOF 4
ENDMDL
