MODEL 1
REMARK VINA RESULT:      -8.1      0.000      0.000
REMARK  Name = 
REMARK  8 active torsions:
REMARK  status: ('A' for Active; 'I' for Inactive)
REMARK    1  A    between atoms: C_1  and  C_2
REMARK    2  A    between atoms: C_4  and  C_5
REMARK    3  A    between atoms: C_6  and  C_7
REMARK    4  A    between atoms: C_12  and  C_14
REMARK    5  A    between atoms: C_17  and  C_18
REMARK    6  A    between atoms: C_25  and  N_26
REMARK    7  A    between atoms: N_29  and  C_30
REMARK    8  A    between atoms: C_30  and  C_31
REMARK                            x       y       z     vdW  Elec       q    Type
REMARK                         _______ _______ _______ _____ _____    ______ ____
ROOT
ATOM      1  C   UNL     1       6.990   4.410  16.315  0.00  0.00    +0.000 C 
ATOM      2  C   UNL     1       5.841   4.939  17.128  0.00  0.00    +0.000 A 
ATOM      3  C   UNL     1       4.587   4.298  16.946  0.00  0.00    +0.000 A 
ATOM      4  C   UNL     1       3.430   4.695  17.633  0.00  0.00    +0.000 A 
ATOM      5  C   UNL     1       2.147   3.939  17.419  0.00  0.00    +0.000 C 
ATOM      6  C   UNL     1       3.533   5.763  18.529  0.00  0.00    +0.000 A 
ATOM      7  C   UNL     1       4.790   6.341  18.764  0.00  0.00    +0.000 A 
ATOM      8  C   UNL     1       5.948   6.002  18.046  0.00  0.00    +0.000 A 
ENDROOT
BRANCH   6   9
ATOM      9  C   UNL     1       2.378   6.234  19.352  0.00  0.00    +0.000 C 
ATOM     10  O   UNL     1       1.804   5.423  20.076  0.00  0.00    +0.000 OA
ATOM     11  N   UNL     1       2.031   7.596  19.355  0.00  0.00    +0.000 N 
ATOM     12  C   UNL     1       1.059   7.989  20.365  0.00  0.00    +0.000 C 
ATOM     13  C   UNL     1       1.191   9.460  20.740  0.00  0.00    +0.000 C 
ATOM     14  C   UNL     1       1.142  10.384  19.515  0.00  0.00    +0.000 C 
ATOM     15  F   UNL     1       1.544  11.621  19.962  0.00  0.00    +0.000 F 
ATOM     16  C   UNL     1       2.226   9.913  18.523  0.00  0.00    +0.000 C 
ATOM     17  C   UNL     1       2.068   8.441  18.157  0.00  0.00    +0.000 C 
BRANCH  14  18
ATOM     18  C   UNL     1      -0.238  10.537  18.857  0.00  0.00    +0.000 A 
ATOM     19  C   UNL     1      -0.651   9.795  17.738  0.00  0.00    +0.000 A 
ATOM     20  C   UNL     1      -1.912   9.982  17.168  0.00  0.00    +0.000 A 
ATOM     21  C   UNL     1      -2.805  10.893  17.724  0.00  0.00    +0.000 A 
ATOM     22  C   UNL     1      -2.441  11.610  18.866  0.00  0.00    +0.000 A 
ATOM     23  C   UNL     1      -1.172  11.421  19.428  0.00  0.00    +0.000 A 
BRANCH  21  24
ATOM     24  C   UNL     1      -4.093  11.087  17.140  0.00  0.00    +0.000 C 
ATOM     25  N   UNL     1      -5.143  11.235  16.665  0.00  0.00    +0.000 NA
ENDBRANCH  21  24
ENDBRANCH  14  18
ENDBRANCH   6   9
BRANCH   8  26
ATOM     26  N   UNL     1       7.175   6.712  18.257  0.00  0.00    +0.000 N 
ATOM     27  C   UNL     1       7.419   8.009  17.833  0.00  0.00    +0.000 C 
ATOM     28  O   UNL     1       6.645   8.707  17.180  0.00  0.00    +0.000 OA
ATOM     29  N   UNL     1       8.666   8.512  18.167  0.00  0.00    +0.000 N 
ATOM     30  H   UNL     1       7.962   6.192  18.612  0.00  0.00    +0.000 HD
ATOM     31  H   UNL     1       9.066   8.202  19.043  0.00  0.00    +0.000 HD
BRANCH  29  32
ATOM     32  C   UNL     1       8.844   9.934  17.853  0.00  0.00    +0.000 C 
BRANCH  32  33
ATOM     33  C   UNL     1       9.855  10.711  18.706  0.00  0.00    +0.000 C 
ATOM     34  C   UNL     1      10.770  11.566  17.828  0.00  0.00    +0.000 C 
ATOM     35  C   UNL     1      10.024  12.873  17.727  0.00  0.00    +0.000 C 
ATOM     36  C   UNL     1       9.369  12.972  19.087  0.00  0.00    +0.000 C 
ATOM     37  O   UNL     1       9.146  11.632  19.559  0.00  0.00    +0.000 OA
ENDBRANCH  32  33
ENDBRANCH  29  32
ENDBRANCH   8  26
TORSDOF 6
ENDMDL
MODEL 2
REMARK VINA RESULT:      -8.0      3.643      5.648
REMARK  Name = 
REMARK  8 active torsions:
REMARK  status: ('A' for Active; 'I' for Inactive)
REMARK    1  A    between atoms: C_1  and  C_2
REMARK    2  A    between atoms: C_4  and  C_5
REMARK    3  A    between atoms: C_6  and  C_7
REMARK    4  A    between atoms: C_12  and  C_14
REMARK    5  A    between atoms: C_17  and  C_18
REMARK    6  A    between atoms: C_25  and  N_26
REMARK    7  A    between atoms: N_29  and  C_30
REMARK    8  A    between atoms: C_30  and  C_31
REMARK                            x       y       z     vdW  Elec       q    Type
REMARK                         _______ _______ _______ _____ _____    ______ ____
ROOT
ATOM      1  C   UNL     1       2.711   4.935  20.372  0.00  0.00    +0.000 C 
ATOM      2  C   UNL     1       2.182   6.318  20.108  0.00  0.00    +0.000 A 
ATOM      3  C   UNL     1       1.467   6.937  21.167  0.00  0.00    +0.000 A 
ATOM      4  C   UNL     1       0.911   8.220  21.054  0.00  0.00    +0.000 A 
ATOM      5  C   UNL     1       0.204   8.826  22.235  0.00  0.00    +0.000 C 
ATOM      6  C   UNL     1       1.080   8.902  19.846  0.00  0.00    +0.000 A 
ATOM      7  C   UNL     1       1.854   8.319  18.831  0.00  0.00    +0.000 A 
ATOM      8  C   UNL     1       2.368   7.015  18.899  0.00  0.00    +0.000 A 
ENDROOT
BRANCH   6   9
ATOM      9  C   UNL     1       0.576  10.294  19.634  0.00  0.00    +0.000 C 
ATOM     10  O   UNL     1       1.211  11.228  20.119  0.00  0.00    +0.000 OA
ATOM     11  N   UNL     1      -0.547  10.514  18.818  0.00  0.00    +0.000 N 
ATOM     12  C   UNL     1      -0.809  11.905  18.481  0.00  0.00    +0.000 C 
ATOM     13  C   UNL     1      -1.575  12.040  17.171  0.00  0.00    +0.000 C 
ATOM     14  C   UNL     1      -2.860  11.200  17.155  0.00  0.00    +0.000 C 
ATOM     15  F   UNL     1      -3.289  11.196  15.847  0.00  0.00    +0.000 F 
ATOM     16  C   UNL     1      -2.478   9.743  17.486  0.00  0.00    +0.000 C 
ATOM     17  C   UNL     1      -1.721   9.633  18.805  0.00  0.00    +0.000 C 
BRANCH  14  18
ATOM     18  C   UNL     1      -4.005  11.727  18.033  0.00  0.00    +0.000 A 
ATOM     19  C   UNL     1      -5.360  11.659  17.667  0.00  0.00    +0.000 A 
ATOM     20  C   UNL     1      -6.363  12.166  18.496  0.00  0.00    +0.000 A 
ATOM     21  C   UNL     1      -6.039  12.725  19.728  0.00  0.00    +0.000 A 
ATOM     22  C   UNL     1      -4.704  12.763  20.141  0.00  0.00    +0.000 A 
ATOM     23  C   UNL     1      -3.704  12.257  19.302  0.00  0.00    +0.000 A 
BRANCH  21  24
ATOM     24  C   UNL     1      -7.063  13.245  20.575  0.00  0.00    +0.000 C 
ATOM     25  N   UNL     1      -7.895  13.677  21.262  0.00  0.00    +0.000 NA
ENDBRANCH  21  24
ENDBRANCH  14  18
ENDBRANCH   6   9
BRANCH   8  26
ATOM     26  N   UNL     1       3.053   6.439  17.779  0.00  0.00    +0.000 N 
ATOM     27  C   UNL     1       4.388   6.655  17.474  0.00  0.00    +0.000 C 
ATOM     28  O   UNL     1       5.150   7.401  18.084  0.00  0.00    +0.000 OA
ATOM     29  N   UNL     1       4.853   5.977  16.358  0.00  0.00    +0.000 N 
ATOM     30  H   UNL     1       2.499   5.958  17.087  0.00  0.00    +0.000 HD
ATOM     31  H   UNL     1       4.452   5.067  16.174  0.00  0.00    +0.000 HD
BRANCH  29  32
ATOM     32  C   UNL     1       6.300   6.089  16.148  0.00  0.00    +0.000 C 
BRANCH  32  33
ATOM     33  C   UNL     1       7.020   4.848  15.605  0.00  0.00    +0.000 C 
ATOM     34  C   UNL     1       6.018   3.763  15.210  0.00  0.00    +0.000 C 
ATOM     35  C   UNL     1       5.721   4.080  13.766  0.00  0.00    +0.000 C 
ATOM     36  C   UNL     1       7.051   4.604  13.274  0.00  0.00    +0.000 C 
ATOM     37  O   UNL     1       7.725   5.199  14.397  0.00  0.00    +0.000 OA
ENDBRANCH  32  33
ENDBRANCH  29  32
ENDBRANCH   8  26
TORSDOF 6
ENDMDL
MODEL 3
REMARK VINA RESULT:      -7.7      5.616      7.728
REMARK  Name = 
REMARK  8 active torsions:
REMARK  status: ('A' for Active; 'I' for Inactive)
REMARK    1  A    between atoms: C_1  and  C_2
REMARK    2  A    between atoms: C_4  and  C_5
REMARK    3  A    between atoms: C_6  and  C_7
REMARK    4  A    between atoms: C_12  and  C_14
REMARK    5  A    between atoms: C_17  and  C_18
REMARK    6  A    between atoms: C_25  and  N_26
REMARK    7  A    between atoms: N_29  and  C_30
REMARK    8  A    between atoms: C_30  and  C_31
REMARK                            x       y       z     vdW  Elec       q    Type
REMARK                         _______ _______ _______ _____ _____    ______ ____
ROOT
ATOM      1  C   UNL     1       7.374  17.405  20.229  0.00  0.00    +0.000 C 
ATOM      2  C   UNL     1       5.955  17.036  19.896  0.00  0.00    +0.000 A 
ATOM      3  C   UNL     1       4.942  17.607  20.712  0.00  0.00    +0.000 A 
ATOM      4  C   UNL     1       3.579  17.340  20.519  0.00  0.00    +0.000 A 
ATOM      5  C   UNL     1       2.562  18.018  21.397  0.00  0.00    +0.000 C 
ATOM      6  C   UNL     1       3.220  16.480  19.478  0.00  0.00    +0.000 A 
ATOM      7  C   UNL     1       4.217  15.980  18.626  0.00  0.00    +0.000 A 
ATOM      8  C   UNL     1       5.590  16.184  18.835  0.00  0.00    +0.000 A 
ENDROOT
BRANCH   6   9
ATOM      9  C   UNL     1       1.795  16.169  19.149  0.00  0.00    +0.000 C 
ATOM     10  O   UNL     1       1.101  17.053  18.653  0.00  0.00    +0.000 OA
ATOM     11  N   UNL     1       1.306  14.863  19.326  0.00  0.00    +0.000 N 
ATOM     12  C   UNL     1      -0.008  14.607  18.754  0.00  0.00    +0.000 C 
ATOM     13  C   UNL     1      -0.205  13.135  18.415  0.00  0.00    +0.000 C 
ATOM     14  C   UNL     1       0.084  12.214  19.609  0.00  0.00    +0.000 C 
ATOM     15  F   UNL     1       0.139  10.939  19.095  0.00  0.00    +0.000 F 
ATOM     16  C   UNL     1       1.504  12.533  20.120  0.00  0.00    +0.000 C 
ATOM     17  C   UNL     1       1.674  14.009  20.461  0.00  0.00    +0.000 C 
BRANCH  14  18
ATOM     18  C   UNL     1      -0.968  12.235  20.728  0.00  0.00    +0.000 A 
ATOM     19  C   UNL     1      -2.289  12.676  20.546  0.00  0.00    +0.000 A 
ATOM     20  C   UNL     1      -3.203  12.688  21.601  0.00  0.00    +0.000 A 
ATOM     21  C   UNL     1      -2.829  12.226  22.859  0.00  0.00    +0.000 A 
ATOM     22  C   UNL     1      -1.537  11.735  23.059  0.00  0.00    +0.000 A 
ATOM     23  C   UNL     1      -0.624  11.731  21.997  0.00  0.00    +0.000 A 
BRANCH  21  24
ATOM     24  C   UNL     1      -3.763  12.240  23.938  0.00  0.00    +0.000 C 
ATOM     25  N   UNL     1      -4.528  12.258  24.813  0.00  0.00    +0.000 NA
ENDBRANCH  21  24
ENDBRANCH  14  18
ENDBRANCH   6   9
BRANCH   8  26
ATOM     26  N   UNL     1       6.561  15.550  17.992  0.00  0.00    +0.000 N 
ATOM     27  C   UNL     1       7.398  14.518  18.389  0.00  0.00    +0.000 C 
ATOM     28  O   UNL     1       7.459  14.041  19.520  0.00  0.00    +0.000 OA
ATOM     29  N   UNL     1       8.243  14.035  17.403  0.00  0.00    +0.000 N 
ATOM     30  H   UNL     1       6.749  15.971  17.096  0.00  0.00    +0.000 HD
ATOM     31  H   UNL     1       7.892  14.041  16.454  0.00  0.00    +0.000 HD
BRANCH  29  32
ATOM     32  C   UNL     1       9.000  12.841  17.794  0.00  0.00    +0.000 C 
BRANCH  32  33
ATOM     33  C   UNL     1      10.522  12.894  17.609  0.00  0.00    +0.000 C 
ATOM     34  C   UNL     1      11.162  13.858  18.609  0.00  0.00    +0.000 C 
ATOM     35  C   UNL     1      11.454  12.975  19.797  0.00  0.00    +0.000 C 
ATOM     36  C   UNL     1      11.797  11.658  19.137  0.00  0.00    +0.000 C 
ATOM     37  O   UNL     1      11.080  11.596  17.892  0.00  0.00    +0.000 OA
ENDBRANCH  32  33
ENDBRANCH  29  32
ENDBRANCH   8  26
TORSDOF 6
ENDMDL
MODEL 4
REMARK VINA RESULT:      -7.3      4.867     10.380
REMARK  Name = 
REMARK  8 active torsions:
REMARK  status: ('A' for Active; 'I' for Inactive)
REMARK    1  A    between atoms: C_1  and  C_2
REMARK    2  A    between atoms: C_4  and  C_5
REMARK    3  A    between atoms: C_6  and  C_7
REMARK    4  A    between atoms: C_12  and  C_14
REMARK    5  A    between atoms: C_17  and  C_18
REMARK    6  A    between atoms: C_25  and  N_26
REMARK    7  A    between atoms: N_29  and  C_30
REMARK    8  A    between atoms: C_30  and  C_31
REMARK                            x       y       z     vdW  Elec       q    Type
REMARK                         _______ _______ _______ _____ _____    ______ ____
ROOT
ATOM      1  C   UNL     1      -7.218  12.465  20.106  0.00  0.00    +0.000 C 
ATOM      2  C   UNL     1      -5.748  12.335  19.816  0.00  0.00    +0.000 A 
ATOM      3  C   UNL     1      -5.395  11.678  18.608  0.00  0.00    +0.000 A 
ATOM      4  C   UNL     1      -4.062  11.480  18.219  0.00  0.00    +0.000 A 
ATOM      5  C   UNL     1      -3.768  10.813  16.902  0.00  0.00    +0.000 C 
ATOM      6  C   UNL     1      -3.055  11.956  19.063  0.00  0.00    +0.000 A 
ATOM      7  C   UNL     1      -3.408  12.673  20.216  0.00  0.00    +0.000 A 
ATOM      8  C   UNL     1      -4.732  12.831  20.656  0.00  0.00    +0.000 A 
ENDROOT
BRANCH   6   9
ATOM      9  C   UNL     1      -1.604  11.846  18.721  0.00  0.00    +0.000 C 
ATOM     10  O   UNL     1      -1.162  12.539  17.808  0.00  0.00    +0.000 OA
ATOM     11  N   UNL     1      -0.761  11.033  19.499  0.00  0.00    +0.000 N 
ATOM     12  C   UNL     1       0.663  11.182  19.240  0.00  0.00    +0.000 C 
ATOM     13  C   UNL     1       1.505  10.806  20.452  0.00  0.00    +0.000 C 
ATOM     14  C   UNL     1       1.169   9.406  20.988  0.00  0.00    +0.000 C 
ATOM     15  F   UNL     1       1.787   9.316  22.215  0.00  0.00    +0.000 F 
ATOM     16  C   UNL     1      -0.348   9.358  21.266  0.00  0.00    +0.000 C 
ATOM     17  C   UNL     1      -1.169   9.729  20.037  0.00  0.00    +0.000 C 
BRANCH  14  18
ATOM     18  C   UNL     1       1.651   8.234  20.122  0.00  0.00    +0.000 A 
ATOM     19  C   UNL     1       2.085   8.376  18.793  0.00  0.00    +0.000 A 
ATOM     20  C   UNL     1       2.500   7.274  18.042  0.00  0.00    +0.000 A 
ATOM     21  C   UNL     1       2.525   6.005  18.613  0.00  0.00    +0.000 A 
ATOM     22  C   UNL     1       2.147   5.840  19.947  0.00  0.00    +0.000 A 
ATOM     23  C   UNL     1       1.727   6.949  20.692  0.00  0.00    +0.000 A 
BRANCH  21  24
ATOM     24  C   UNL     1       2.948   4.879  17.845  0.00  0.00    +0.000 C 
ATOM     25  N   UNL     1       3.284   3.960  17.218  0.00  0.00    +0.000 NA
ENDBRANCH  21  24
ENDBRANCH  14  18
ENDBRANCH   6   9
BRANCH   8  26
ATOM     26  N   UNL     1      -5.016  13.477  21.904  0.00  0.00    +0.000 N 
ATOM     27  C   UNL     1      -4.162  13.496  22.996  0.00  0.00    +0.000 C 
ATOM     28  O   UNL     1      -3.075  12.926  23.065  0.00  0.00    +0.000 OA
ATOM     29  N   UNL     1      -4.626  14.203  24.094  0.00  0.00    +0.000 N 
ATOM     30  H   UNL     1      -5.952  13.821  22.051  0.00  0.00    +0.000 HD
ATOM     31  H   UNL     1      -5.198  15.016  23.907  0.00  0.00    +0.000 HD
BRANCH  29  32
ATOM     32  C   UNL     1      -3.645  14.347  25.174  0.00  0.00    +0.000 C 
BRANCH  32  33
ATOM     33  C   UNL     1      -3.007  15.731  25.350  0.00  0.00    +0.000 C 
ATOM     34  C   UNL     1      -1.510  15.611  25.638  0.00  0.00    +0.000 C 
ATOM     35  C   UNL     1      -0.894  15.630  24.261  0.00  0.00    +0.000 C 
ATOM     36  C   UNL     1      -1.817  16.565  23.512  0.00  0.00    +0.000 C 
ATOM     37  O   UNL     1      -3.118  16.465  24.114  0.00  0.00    +0.000 OA
ENDBRANCH  32  33
ENDBRANCH  29  32
ENDBRANCH   8  26
TORSDOF 6
ENDMDL
MODEL 5
REMARK VINA RESULT:      -7.2      3.672      7.697
REMARK  Name = 
REMARK  8 active torsions:
REMARK  status: ('A' for Active; 'I' for Inactive)
REMARK    1  A    between atoms: C_1  and  C_2
REMARK    2  A    between atoms: C_4  and  C_5
REMARK    3  A    between atoms: C_6  and  C_7
REMARK    4  A    between atoms: C_12  and  C_14
REMARK    5  A    between atoms: C_17  and  C_18
REMARK    6  A    between atoms: C_25  and  N_26
REMARK    7  A    between atoms: N_29  and  C_30
REMARK    8  A    between atoms: C_30  and  C_31
REMARK                            x       y       z     vdW  Elec       q    Type
REMARK                         _______ _______ _______ _____ _____    ______ ____
ROOT
ATOM      1  C   UNL     1      11.660  11.551  17.872  0.00  0.00    +0.000 C 
ATOM      2  C   UNL     1      10.594  12.322  18.601  0.00  0.00    +0.000 A 
ATOM      3  C   UNL     1      10.696  13.738  18.563  0.00  0.00    +0.000 A 
ATOM      4  C   UNL     1       9.776  14.578  19.207  0.00  0.00    +0.000 A 
ATOM      5  C   UNL     1       9.926  16.070  19.085  0.00  0.00    +0.000 C 
ATOM      6  C   UNL     1       8.723  13.982  19.908  0.00  0.00    +0.000 A 
ATOM      7  C   UNL     1       8.582  12.586  19.877  0.00  0.00    +0.000 A 
ATOM      8  C   UNL     1       9.521  11.724  19.291  0.00  0.00    +0.000 A 
ENDROOT
BRANCH   6   9
ATOM      9  C   UNL     1       7.657  14.781  20.585  0.00  0.00    +0.000 C 
ATOM     10  O   UNL     1       7.829  15.119  21.754  0.00  0.00    +0.000 OA
ATOM     11  N   UNL     1       6.532  15.207  19.856  0.00  0.00    +0.000 N 
ATOM     12  C   UNL     1       5.681  16.174  20.531  0.00  0.00    +0.000 C 
ATOM     13  C   UNL     1       4.905  17.037  19.545  0.00  0.00    +0.000 C 
ATOM     14  C   UNL     1       4.116  16.200  18.527  0.00  0.00    +0.000 C 
ATOM     15  F   UNL     1       3.704  17.082  17.555  0.00  0.00    +0.000 F 
ATOM     16  C   UNL     1       5.105  15.235  17.840  0.00  0.00    +0.000 C 
ATOM     17  C   UNL     1       5.863  14.377  18.847  0.00  0.00    +0.000 C 
BRANCH  14  18
ATOM     18  C   UNL     1       2.876  15.483  19.081  0.00  0.00    +0.000 A 
ATOM     19  C   UNL     1       2.221  15.865  20.263  0.00  0.00    +0.000 A 
ATOM     20  C   UNL     1       1.104  15.170  20.732  0.00  0.00    +0.000 A 
ATOM     21  C   UNL     1       0.593  14.095  20.011  0.00  0.00    +0.000 A 
ATOM     22  C   UNL     1       1.194  13.722  18.807  0.00  0.00    +0.000 A 
ATOM     23  C   UNL     1       2.316  14.421  18.346  0.00  0.00    +0.000 A 
BRANCH  21  24
ATOM     24  C   UNL     1      -0.547  13.383  20.491  0.00  0.00    +0.000 C 
ATOM     25  N   UNL     1      -1.478  12.802  20.874  0.00  0.00    +0.000 NA
ENDBRANCH  21  24
ENDBRANCH  14  18
ENDBRANCH   6   9
BRANCH   8  26
ATOM     26  N   UNL     1       9.375  10.301  19.395  0.00  0.00    +0.000 N 
ATOM     27  C   UNL     1       8.595   9.524  18.552  0.00  0.00    +0.000 C 
ATOM     28  O   UNL     1       7.890   9.945  17.638  0.00  0.00    +0.000 OA
ATOM     29  N   UNL     1       8.619   8.164  18.818  0.00  0.00    +0.000 N 
ATOM     30  H   UNL     1       9.747   9.851  20.217  0.00  0.00    +0.000 HD
ATOM     31  H   UNL     1       9.485   7.781  19.174  0.00  0.00    +0.000 HD
BRANCH  29  32
ATOM     32  C   UNL     1       7.921   7.346  17.821  0.00  0.00    +0.000 C 
BRANCH  32  33
ATOM     33  C   UNL     1       7.389   5.985  18.290  0.00  0.00    +0.000 C 
ATOM     34  C   UNL     1       5.862   5.942  18.223  0.00  0.00    +0.000 C 
ATOM     35  C   UNL     1       5.595   5.436  16.827  0.00  0.00    +0.000 C 
ATOM     36  C   UNL     1       6.750   4.486  16.606  0.00  0.00    +0.000 C 
ATOM     37  O   UNL     1       7.857   4.959  17.392  0.00  0.00    +0.000 OA
ENDBRANCH  32  33
ENDBRANCH  29  32
ENDBRANCH   8  26
TORSDOF 6
ENDMDL
MODEL 6
REMARK VINA RESULT:      -7.1      4.726      8.530
REMARK  Name = 
REMARK  8 active torsions:
REMARK  status: ('A' for Active; 'I' for Inactive)
REMARK    1  A    between atoms: C_1  and  C_2
REMARK    2  A    between atoms: C_4  and  C_5
REMARK    3  A    between atoms: C_6  and  C_7
REMARK    4  A    between atoms: C_12  and  C_14
REMARK    5  A    between atoms: C_17  and  C_18
REMARK    6  A    between atoms: C_25  and  N_26
REMARK    7  A    between atoms: N_29  and  C_30
REMARK    8  A    between atoms: C_30  and  C_31
REMARK                            x       y       z     vdW  Elec       q    Type
REMARK                         _______ _______ _______ _____ _____    ______ ____
ROOT
ATOM      1  C   UNL     1      11.937  11.337  18.332  0.00  0.00    +0.000 C 
ATOM      2  C   UNL     1      11.061  12.031  19.338  0.00  0.00    +0.000 A 
ATOM      3  C   UNL     1      11.383  13.381  19.637  0.00  0.00    +0.000 A 
ATOM      4  C   UNL     1      10.656  14.143  20.564  0.00  0.00    +0.000 A 
ATOM      5  C   UNL     1      11.032  15.582  20.794  0.00  0.00    +0.000 C 
ATOM      6  C   UNL     1       9.575  13.536  21.207  0.00  0.00    +0.000 A 
ATOM      7  C   UNL     1       9.212  12.227  20.851  0.00  0.00    +0.000 A 
ATOM      8  C   UNL     1       9.959  11.426  19.973  0.00  0.00    +0.000 A 
ENDROOT
BRANCH   6   9
ATOM      9  C   UNL     1       8.700  14.270  22.171  0.00  0.00    +0.000 C 
ATOM     10  O   UNL     1       8.834  14.049  23.372  0.00  0.00    +0.000 OA
ATOM     11  N   UNL     1       7.813  15.255  21.700  0.00  0.00    +0.000 N 
ATOM     12  C   UNL     1       7.190  16.074  22.728  0.00  0.00    +0.000 C 
ATOM     13  C   UNL     1       6.782  17.442  22.197  0.00  0.00    +0.000 C 
ATOM     14  C   UNL     1       5.906  17.346  20.939  0.00  0.00    +0.000 C 
ATOM     15  F   UNL     1       5.850  18.620  20.422  0.00  0.00    +0.000 F 
ATOM     16  C   UNL     1       6.664  16.493  19.900  0.00  0.00    +0.000 C 
ATOM     17  C   UNL     1       7.053  15.127  20.452  0.00  0.00    +0.000 C 
BRANCH  14  18
ATOM     18  C   UNL     1       4.468  16.858  21.171  0.00  0.00    +0.000 A 
ATOM     19  C   UNL     1       3.957  16.517  22.434  0.00  0.00    +0.000 A 
ATOM     20  C   UNL     1       2.645  16.065  22.590  0.00  0.00    +0.000 A 
ATOM     21  C   UNL     1       1.799  15.976  21.489  0.00  0.00    +0.000 A 
ATOM     22  C   UNL     1       2.263  16.354  20.227  0.00  0.00    +0.000 A 
ATOM     23  C   UNL     1       3.582  16.802  20.079  0.00  0.00    +0.000 A 
BRANCH  21  24
ATOM     24  C   UNL     1       0.458  15.512  21.647  0.00  0.00    +0.000 C 
ATOM     25  N   UNL     1      -0.631  15.133  21.784  0.00  0.00    +0.000 NA
ENDBRANCH  21  24
ENDBRANCH  14  18
ENDBRANCH   6   9
BRANCH   8  26
ATOM     26  N   UNL     1       9.596  10.059  19.742  0.00  0.00    +0.000 N 
ATOM     27  C   UNL     1       8.735   9.629  18.744  0.00  0.00    +0.000 C 
ATOM     28  O   UNL     1       8.130  10.354  17.958  0.00  0.00    +0.000 OA
ATOM     29  N   UNL     1       8.544   8.257  18.683  0.00  0.00    +0.000 N 
ATOM     30  H   UNL     1       9.870   9.378  20.433  0.00  0.00    +0.000 HD
ATOM     31  H   UNL     1       9.331   7.673  18.935  0.00  0.00    +0.000 HD
BRANCH  29  32
ATOM     32  C   UNL     1       7.763   7.810  17.525  0.00  0.00    +0.000 C 
BRANCH  32  33
ATOM     33  C   UNL     1       6.736   6.697  17.770  0.00  0.00    +0.000 C 
ATOM     34  C   UNL     1       5.994   6.345  16.479  0.00  0.00    +0.000 C 
ATOM     35  C   UNL     1       6.853   5.261  15.876  0.00  0.00    +0.000 C 
ATOM     36  C   UNL     1       7.366   4.541  17.102  0.00  0.00    +0.000 C 
ATOM     37  O   UNL     1       7.425   5.497  18.174  0.00  0.00    +0.000 OA
ENDBRANCH  32  33
ENDBRANCH  29  32
ENDBRANCH   8  26
TORSDOF 6
ENDMDL
MODEL 7
REMARK VINA RESULT:      -7.1      3.917      9.248
REMARK  Name = 
REMARK  8 active torsions:
REMARK  status: ('A' for Active; 'I' for Inactive)
REMARK    1  A    between atoms: C_1  and  C_2
REMARK    2  A    between atoms: C_4  and  C_5
REMARK    3  A    between atoms: C_6  and  C_7
REMARK    4  A    between atoms: C_12  and  C_14
REMARK    5  A    between atoms: C_17  and  C_18
REMARK    6  A    between atoms: C_25  and  N_26
REMARK    7  A    between atoms: N_29  and  C_30
REMARK    8  A    between atoms: C_30  and  C_31
REMARK                            x       y       z     vdW  Elec       q    Type
REMARK                         _______ _______ _______ _____ _____    ______ ____
ROOT
ATOM      1  C   UNL     1      -0.791   9.264  23.095  0.00  0.00    +0.000 C 
ATOM      2  C   UNL     1      -0.199  10.246  22.122  0.00  0.00    +0.000 A 
ATOM      3  C   UNL     1      -0.728  11.563  22.149  0.00  0.00    +0.000 A 
ATOM      4  C   UNL     1      -0.275  12.576  21.290  0.00  0.00    +0.000 A 
ATOM      5  C   UNL     1      -0.855  13.959  21.408  0.00  0.00    +0.000 C 
ATOM      6  C   UNL     1       0.738  12.260  20.381  0.00  0.00    +0.000 A 
ATOM      7  C   UNL     1       1.312  10.980  20.412  0.00  0.00    +0.000 A 
ATOM      8  C   UNL     1       0.836   9.935  21.219  0.00  0.00    +0.000 A 
ENDROOT
BRANCH   6   9
ATOM      9  C   UNL     1       1.332  13.274  19.458  0.00  0.00    +0.000 C 
ATOM     10  O   UNL     1       0.939  13.311  18.295  0.00  0.00    +0.000 OA
ATOM     11  N   UNL     1       2.252  14.217  19.953  0.00  0.00    +0.000 N 
ATOM     12  C   UNL     1       2.582  15.302  19.042  0.00  0.00    +0.000 C 
ATOM     13  C   UNL     1       3.031  16.554  19.786  0.00  0.00    +0.000 C 
ATOM     14  C   UNL     1       4.173  16.272  20.772  0.00  0.00    +0.000 C 
ATOM     15  F   UNL     1       4.281  17.399  21.553  0.00  0.00    +0.000 F 
ATOM     16  C   UNL     1       3.717  15.138  21.714  0.00  0.00    +0.000 C 
ATOM     17  C   UNL     1       3.282  13.895  20.947  0.00  0.00    +0.000 C 
BRANCH  14  18
ATOM     18  C   UNL     1       5.544  15.997  20.135  0.00  0.00    +0.000 A 
ATOM     19  C   UNL     1       5.975  16.587  18.935  0.00  0.00    +0.000 A 
ATOM     20  C   UNL     1       7.226  16.293  18.389  0.00  0.00    +0.000 A 
ATOM     21  C   UNL     1       8.093  15.427  19.048  0.00  0.00    +0.000 A 
ATOM     22  C   UNL     1       7.712  14.863  20.268  0.00  0.00    +0.000 A 
ATOM     23  C   UNL     1       6.453  15.159  20.806  0.00  0.00    +0.000 A 
BRANCH  21  24
ATOM     24  C   UNL     1       9.371  15.125  18.490  0.00  0.00    +0.000 C 
ATOM     25  N   UNL     1      10.410  14.870  18.035  0.00  0.00    +0.000 NA
ENDBRANCH  21  24
ENDBRANCH  14  18
ENDBRANCH   6   9
BRANCH   8  26
ATOM     26  N   UNL     1       1.395   8.618  21.117  0.00  0.00    +0.000 N 
ATOM     27  C   UNL     1       1.850   8.042  19.941  0.00  0.00    +0.000 C 
ATOM     28  O   UNL     1       1.794   8.553  18.825  0.00  0.00    +0.000 OA
ATOM     29  N   UNL     1       2.378   6.768  20.077  0.00  0.00    +0.000 N 
ATOM     30  H   UNL     1       1.326   8.017  21.923  0.00  0.00    +0.000 HD
ATOM     31  H   UNL     1       2.862   6.562  20.941  0.00  0.00    +0.000 HD
BRANCH  29  32
ATOM     32  C   UNL     1       3.000   6.243  18.857  0.00  0.00    +0.000 C 
BRANCH  32  33
ATOM     33  C   UNL     1       2.265   5.104  18.139  0.00  0.00    +0.000 C 
ATOM     34  C   UNL     1       3.254   4.166  17.444  0.00  0.00    +0.000 C 
ATOM     35  C   UNL     1       3.561   3.143  18.509  0.00  0.00    +0.000 C 
ATOM     36  C   UNL     1       2.241   3.033  19.237  0.00  0.00    +0.000 C 
ATOM     37  O   UNL     1       1.571   4.300  19.114  0.00  0.00    +0.000 OA
ENDBRANCH  32  33
ENDBRANCH  29  32
ENDBRANCH   8  26
TORSDOF 6
ENDMDL
MODEL 8
REMARK VINA RESULT:      -7.1      0.944      1.109
REMARK  Name = 
REMARK  8 active torsions:
REMARK  status: ('A' for Active; 'I' for Inactive)
REMARK    1  A    between atoms: C_1  and  C_2
REMARK    2  A    between atoms: C_4  and  C_5
REMARK    3  A    between atoms: C_6  and  C_7
REMARK    4  A    between atoms: C_12  and  C_14
REMARK    5  A    between atoms: C_17  and  C_18
REMARK    6  A    between atoms: C_25  and  N_26
REMARK    7  A    between atoms: N_29  and  C_30
REMARK    8  A    between atoms: C_30  and  C_31
REMARK                            x       y       z     vdW  Elec       q    Type
REMARK                         _______ _______ _______ _____ _____    ______ ____
ROOT
ATOM      1  C   UNL     1       6.662   4.792  15.443  0.00  0.00    +0.000 C 
ATOM      2  C   UNL     1       5.600   5.305  16.375  0.00  0.00    +0.000 A 
ATOM      3  C   UNL     1       4.530   4.419  16.668  0.00  0.00    +0.000 A 
ATOM      4  C   UNL     1       3.469   4.771  17.515  0.00  0.00    +0.000 A 
ATOM      5  C   UNL     1       2.394   3.761  17.812  0.00  0.00    +0.000 C 
ATOM      6  C   UNL     1       3.481   6.047  18.085  0.00  0.00    +0.000 A 
ATOM      7  C   UNL     1       4.578   6.891  17.855  0.00  0.00    +0.000 A 
ATOM      8  C   UNL     1       5.621   6.584  16.966  0.00  0.00    +0.000 A 
ENDROOT
BRANCH   6   9
ATOM      9  C   UNL     1       2.429   6.508  19.042  0.00  0.00    +0.000 C 
ATOM     10  O   UNL     1       1.978   5.701  19.851  0.00  0.00    +0.000 OA
ATOM     11  N   UNL     1       2.045   7.860  19.062  0.00  0.00    +0.000 N 
ATOM     12  C   UNL     1       1.203   8.253  20.181  0.00  0.00    +0.000 C 
ATOM     13  C   UNL     1       1.339   9.735  20.505  0.00  0.00    +0.000 C 
ATOM     14  C   UNL     1       1.104  10.627  19.277  0.00  0.00    +0.000 C 
ATOM     15  F   UNL     1       1.525  11.885  19.643  0.00  0.00    +0.000 F 
ATOM     16  C   UNL     1       2.063  10.160  18.163  0.00  0.00    +0.000 C 
ATOM     17  C   UNL     1       1.902   8.677  17.851  0.00  0.00    +0.000 C 
BRANCH  14  18
ATOM     18  C   UNL     1      -0.353  10.728  18.802  0.00  0.00    +0.000 A 
ATOM     19  C   UNL     1      -0.885   9.954  17.757  0.00  0.00    +0.000 A 
ATOM     20  C   UNL     1      -2.214  10.094  17.353  0.00  0.00    +0.000 A 
ATOM     21  C   UNL     1      -3.056  10.988  18.008  0.00  0.00    +0.000 A 
ATOM     22  C   UNL     1      -2.569  11.736  19.082  0.00  0.00    +0.000 A 
ATOM     23  C   UNL     1      -1.234  11.594  19.478  0.00  0.00    +0.000 A 
BRANCH  21  24
ATOM     24  C   UNL     1      -4.414  11.133  17.594  0.00  0.00    +0.000 C 
ATOM     25  N   UNL     1      -5.520  11.243  17.253  0.00  0.00    +0.000 NA
ENDBRANCH  21  24
ENDBRANCH  14  18
ENDBRANCH   6   9
BRANCH   8  26
ATOM     26  N   UNL     1       6.653   7.540  16.691  0.00  0.00    +0.000 N 
ATOM     27  C   UNL     1       7.420   8.173  17.656  0.00  0.00    +0.000 C 
ATOM     28  O   UNL     1       7.292   8.044  18.872  0.00  0.00    +0.000 OA
ATOM     29  N   UNL     1       8.382   9.042  17.165  0.00  0.00    +0.000 N 
ATOM     30  H   UNL     1       6.735   7.881  15.746  0.00  0.00    +0.000 HD
ATOM     31  H   UNL     1       8.811   8.799  16.282  0.00  0.00    +0.000 HD
BRANCH  29  32
ATOM     32  C   UNL     1       9.287   9.576  18.189  0.00  0.00    +0.000 C 
BRANCH  32  33
ATOM     33  C   UNL     1       9.460  11.099  18.234  0.00  0.00    +0.000 C 
ATOM     34  C   UNL     1       9.337  11.621  19.667  0.00  0.00    +0.000 C 
ATOM     35  C   UNL     1      10.756  11.560  20.177  0.00  0.00    +0.000 C 
ATOM     36  C   UNL     1      11.555  11.883  18.934  0.00  0.00    +0.000 C 
ATOM     37  O   UNL     1      10.793  11.438  17.800  0.00  0.00    +0.000 OA
ENDBRANCH  32  33
ENDBRANCH  29  32
ENDBRANCH   8  26
TORSDOF 6
ENDMDL
MODEL 9
REMARK VINA RESULT:      -7.0      5.024     10.738
REMARK  Name = 
REMARK  8 active torsions:
REMARK  status: ('A' for Active; 'I' for Inactive)
REMARK    1  A    between atoms: C_1  and  C_2
REMARK    2  A    between atoms: C_4  and  C_5
REMARK    3  A    between atoms: C_6  and  C_7
REMARK    4  A    between atoms: C_12  and  C_14
REMARK    5  A    between atoms: C_17  and  C_18
REMARK    6  A    between atoms: C_25  and  N_26
REMARK    7  A    between atoms: N_29  and  C_30
REMARK    8  A    between atoms: C_30  and  C_31
REMARK                            x       y       z     vdW  Elec       q    Type
REMARK                         _______ _______ _______ _____ _____    ______ ____
ROOT
ATOM      1  C   UNL     1      -7.383  12.036  19.349  0.00  0.00    +0.000 C 
ATOM      2  C   UNL     1      -5.884  12.012  19.225  0.00  0.00    +0.000 A 
ATOM      3  C   UNL     1      -5.350  11.312  18.112  0.00  0.00    +0.000 A 
ATOM      4  C   UNL     1      -3.971  11.202  17.880  0.00  0.00    +0.000 A 
ATOM      5  C   UNL     1      -3.484  10.479  16.653  0.00  0.00    +0.000 C 
ATOM      6  C   UNL     1      -3.103  11.813  18.788  0.00  0.00    +0.000 A 
ATOM      7  C   UNL     1      -3.636  12.570  19.843  0.00  0.00    +0.000 A 
ATOM      8  C   UNL     1      -5.008  12.644  20.129  0.00  0.00    +0.000 A 
ENDROOT
BRANCH   6   9
ATOM      9  C   UNL     1      -1.619  11.804  18.609  0.00  0.00    +0.000 C 
ATOM     10  O   UNL     1      -1.122  12.576  17.793  0.00  0.00    +0.000 OA
ATOM     11  N   UNL     1      -0.820  10.991  19.433  0.00  0.00    +0.000 N 
ATOM     12  C   UNL     1       0.612  11.234  19.347  0.00  0.00    +0.000 C 
ATOM     13  C   UNL     1       1.336  10.829  20.625  0.00  0.00    +0.000 C 
ATOM     14  C   UNL     1       1.029   9.383  21.040  0.00  0.00    +0.000 C 
ATOM     15  F   UNL     1       1.510   9.251  22.322  0.00  0.00    +0.000 F 
ATOM     16  C   UNL     1      -0.504   9.234  21.139  0.00  0.00    +0.000 C 
ATOM     17  C   UNL     1      -1.205   9.636  19.846  0.00  0.00    +0.000 C 
BRANCH  14  18
ATOM     18  C   UNL     1       1.675   8.294  20.170  0.00  0.00    +0.000 A 
ATOM     19  C   UNL     1       1.814   6.956  20.577  0.00  0.00    +0.000 A 
ATOM     20  C   UNL     1       2.423   6.007  19.753  0.00  0.00    +0.000 A 
ATOM     21  C   UNL     1       2.878   6.364  18.488  0.00  0.00    +0.000 A 
ATOM     22  C   UNL     1       2.709   7.675  18.037  0.00  0.00    +0.000 A 
ATOM     23  C   UNL     1       2.102   8.623  18.870  0.00  0.00    +0.000 A 
BRANCH  21  24
ATOM     24  C   UNL     1       3.502   5.394  17.647  0.00  0.00    +0.000 C 
ATOM     25  N   UNL     1       4.008   4.609  16.955  0.00  0.00    +0.000 NA
ENDBRANCH  21  24
ENDBRANCH  14  18
ENDBRANCH   6   9
BRANCH   8  26
ATOM     26  N   UNL     1      -5.477  13.342  21.290  0.00  0.00    +0.000 N 
ATOM     27  C   UNL     1      -4.900  14.492  21.807  0.00  0.00    +0.000 C 
ATOM     28  O   UNL     1      -3.888  15.041  21.376  0.00  0.00    +0.000 OA
ATOM     29  N   UNL     1      -5.533  15.017  22.923  0.00  0.00    +0.000 N 
ATOM     30  H   UNL     1      -6.184  12.894  21.852  0.00  0.00    +0.000 HD
ATOM     31  H   UNL     1      -6.537  14.909  22.973  0.00  0.00    +0.000 HD
BRANCH  29  32
ATOM     32  C   UNL     1      -5.008  16.317  23.354  0.00  0.00    +0.000 C 
BRANCH  32  33
ATOM     33  C   UNL     1      -4.448  16.399  24.780  0.00  0.00    +0.000 C 
ATOM     34  C   UNL     1      -3.368  15.340  25.006  0.00  0.00    +0.000 C 
ATOM     35  C   UNL     1      -2.102  16.048  24.591  0.00  0.00    +0.000 C 
ATOM     36  C   UNL     1      -2.378  17.472  25.020  0.00  0.00    +0.000 C 
ATOM     37  O   UNL     1      -3.801  17.675  24.962  0.00  0.00    +0.000 OA
ENDBRANCH  32  33
ENDBRANCH  29  32
ENDBRANCH   8  26
TORSDOF 6
ENDMDL
