MODEL 1
REMARK VINA RESULT:      -7.0      0.000      0.000
REMARK  Name = 
REMARK  7 active torsions:
REMARK  status: ('A' for Active; 'I' for Inactive)
REMARK    1  A    between atoms: C_1  and  C_2
REMARK    2  A    between atoms: N_6  and  C_7
REMARK    3  A    between atoms: C_7  and  C_8
REMARK    4  A    between atoms: C_7  and  C_9
REMARK    5  A    between atoms: N_11  and  C_12
REMARK    6  A    between atoms: C_12  and  C_13
REMARK    7  A    between atoms: C_13  and  O_14
REMARK                            x       y       z     vdW  Elec       q    Type
REMARK                         _______ _______ _______ _____ _____    ______ ____
ROOT
ATOM      1  C   UNL     1       5.613   4.513  18.834  0.00  0.00    +0.000 C 
ATOM      2  O   UNL     1       5.314   5.180  19.823  0.00  0.00    +0.000 OA
ATOM      3  N   UNL     1       4.836   3.464  18.385  0.00  0.00    +0.000 N 
ATOM      4  H   UNL     1       5.266   2.804  17.754  0.00  0.00    +0.000 HD
ENDROOT
BRANCH   3   5
ATOM      5  C   UNL     1       3.636   2.989  19.104  0.00  0.00    +0.000 C 
ATOM      6  C   UNL     1       2.685   4.178  19.354  0.00  0.00    +0.000 C 
ATOM      7  C   UNL     1       1.297   3.562  19.499  0.00  0.00    +0.000 C 
ATOM      8  C   UNL     1       1.340   2.236  18.745  0.00  0.00    +0.000 C 
ATOM      9  C   UNL     1       2.764   2.083  18.219  0.00  0.00    +0.000 C 
BRANCH   5  10
ATOM     10  C   UNL     1       4.000   2.283  20.442  0.00  0.00    +0.000 C 
BRANCH  10  11
ATOM     11  O   UNL     1       5.201   1.522  20.312  0.00  0.00    +0.000 OA
ATOM     12  H   UNL     1       5.806   2.066  19.778  0.00  0.00    +0.000 HD
ENDBRANCH  10  11
ENDBRANCH   5  10
ENDBRANCH   3   5
BRANCH   1  13
ATOM     13  C   UNL     1       6.827   4.872  17.980  0.00  0.00    +0.000 C 
ATOM     14  C   UNL     1       7.653   5.968  18.643  0.00  0.00    +0.000 C 
BRANCH  13  20
ATOM     15  C   UNL     1       4.712   6.898  16.620  0.00  0.00    +0.000 C 
ATOM     16  C   UNL     1       5.611   5.923  15.952  0.00  0.00    +0.000 A 
ATOM     17  N   UNL     1       5.680   5.795  14.641  0.00  0.00    +0.000 NA
ATOM     18  C   UNL     1       6.621   4.840  14.391  0.00  0.00    +0.000 A 
ATOM     19  C   UNL     1       7.127   4.352  15.568  0.00  0.00    +0.000 A 
ATOM     20  N   UNL     1       6.492   5.056  16.570  0.00  0.00    +0.000 N 
ENDBRANCH  13  20
ENDBRANCH   1  13
TORSDOF 5
ENDMDL
MODEL 2
REMARK VINA RESULT:      -7.0      1.179      1.956
REMARK  Name = 
REMARK  7 active torsions:
REMARK  status: ('A' for Active; 'I' for Inactive)
REMARK    1  A    between atoms: C_1  and  C_2
REMARK    2  A    between atoms: N_6  and  C_7
REMARK    3  A    between atoms: C_7  and  C_8
REMARK    4  A    between atoms: C_7  and  C_9
REMARK    5  A    between atoms: N_11  and  C_12
REMARK    6  A    between atoms: C_12  and  C_13
REMARK    7  A    between atoms: C_13  and  O_14
REMARK                            x       y       z     vdW  Elec       q    Type
REMARK                         _______ _______ _______ _____ _____    ______ ____
ROOT
ATOM      1  C   UNL     1       4.454   5.285  18.641  0.00  0.00    +0.000 C 
ATOM      2  O   UNL     1       4.763   5.284  19.832  0.00  0.00    +0.000 OA
ATOM      3  N   UNL     1       3.509   4.425  18.120  0.00  0.00    +0.000 N 
ATOM      4  H   UNL     1       3.503   4.293  17.119  0.00  0.00    +0.000 HD
ENDROOT
BRANCH   3   5
ATOM      5  C   UNL     1       2.860   3.367  18.920  0.00  0.00    +0.000 C 
ATOM      6  C   UNL     1       2.524   3.918  20.321  0.00  0.00    +0.000 C 
ATOM      7  C   UNL     1       1.367   3.061  20.827  0.00  0.00    +0.000 C 
ATOM      8  C   UNL     1       0.667   2.517  19.585  0.00  0.00    +0.000 C 
ATOM      9  C   UNL     1       1.459   3.027  18.384  0.00  0.00    +0.000 C 
BRANCH   5  10
ATOM     10  C   UNL     1       3.744   2.092  19.027  0.00  0.00    +0.000 C 
BRANCH  10  11
ATOM     11  O   UNL     1       4.850   2.305  19.905  0.00  0.00    +0.000 OA
ATOM     12  H   UNL     1       5.582   1.773  19.548  0.00  0.00    +0.000 HD
ENDBRANCH  10  11
ENDBRANCH   5  10
ENDBRANCH   3   5
BRANCH   1  13
ATOM     13  C   UNL     1       5.038   6.316  17.677  0.00  0.00    +0.000 C 
ATOM     14  C   UNL     1       3.973   7.316  17.240  0.00  0.00    +0.000 C 
BRANCH  13  20
ATOM     15  C   UNL     1       7.804   4.667  17.911  0.00  0.00    +0.000 C 
ATOM     16  C   UNL     1       7.024   4.982  16.689  0.00  0.00    +0.000 A 
ATOM     17  N   UNL     1       7.373   4.564  15.488  0.00  0.00    +0.000 NA
ATOM     18  C   UNL     1       6.418   5.012  14.624  0.00  0.00    +0.000 A 
ATOM     19  C   UNL     1       5.472   5.740  15.299  0.00  0.00    +0.000 A 
ATOM     20  N   UNL     1       5.850   5.710  16.625  0.00  0.00    +0.000 N 
ENDBRANCH  13  20
ENDBRANCH   1  13
TORSDOF 5
ENDMDL
MODEL 3
REMARK VINA RESULT:      -7.0      0.893      1.324
REMARK  Name = 
REMARK  7 active torsions:
REMARK  status: ('A' for Active; 'I' for Inactive)
REMARK    1  A    between atoms: C_1  and  C_2
REMARK    2  A    between atoms: N_6  and  C_7
REMARK    3  A    between atoms: C_7  and  C_8
REMARK    4  A    between atoms: C_7  and  C_9
REMARK    5  A    between atoms: N_11  and  C_12
REMARK    6  A    between atoms: C_12  and  C_13
REMARK    7  A    between atoms: C_13  and  O_14
REMARK                            x       y       z     vdW  Elec       q    Type
REMARK                         _______ _______ _______ _____ _____    ______ ____
ROOT
ATOM      1  C   UNL     1       5.255   4.477  19.028  0.00  0.00    +0.000 C 
ATOM      2  O   UNL     1       4.779   5.259  19.850  0.00  0.00    +0.000 OA
ATOM      3  N   UNL     1       4.593   3.336  18.620  0.00  0.00    +0.000 N 
ATOM      4  H   UNL     1       5.140   2.618  18.168  0.00  0.00    +0.000 HD
ENDROOT
BRANCH   3   5
ATOM      5  C   UNL     1       3.307   2.903  19.204  0.00  0.00    +0.000 C 
ATOM      6  C   UNL     1       3.455   2.780  20.735  0.00  0.00    +0.000 C 
ATOM      7  C   UNL     1       2.046   2.955  21.293  0.00  0.00    +0.000 C 
ATOM      8  C   UNL     1       1.274   3.761  20.253  0.00  0.00    +0.000 C 
ATOM      9  C   UNL     1       2.233   3.998  19.090  0.00  0.00    +0.000 C 
BRANCH   5  10
ATOM     10  C   UNL     1       2.810   1.563  18.589  0.00  0.00    +0.000 C 
BRANCH  10  11
ATOM     11  O   UNL     1       3.903   0.688  18.311  0.00  0.00    +0.000 OA
ATOM     12  H   UNL     1       4.132   0.833  17.376  0.00  0.00    +0.000 HD
ENDBRANCH  10  11
ENDBRANCH   5  10
ENDBRANCH   3   5
BRANCH   1  13
ATOM     13  C   UNL     1       6.581   4.778  18.332  0.00  0.00    +0.000 C 
ATOM     14  C   UNL     1       7.388   5.803  19.120  0.00  0.00    +0.000 C 
BRANCH  13  20
ATOM     15  C   UNL     1       4.701   6.907  16.796  0.00  0.00    +0.000 C 
ATOM     16  C   UNL     1       5.649   5.928  16.209  0.00  0.00    +0.000 A 
ATOM     17  N   UNL     1       5.875   5.837  14.912  0.00  0.00    +0.000 NA
ATOM     18  C   UNL     1       6.814   4.863  14.746  0.00  0.00    +0.000 A 
ATOM     19  C   UNL     1       7.159   4.324  15.958  0.00  0.00    +0.000 A 
ATOM     20  N   UNL     1       6.425   5.015  16.899  0.00  0.00    +0.000 N 
ENDBRANCH  13  20
ENDBRANCH   1  13
TORSDOF 5
ENDMDL
MODEL 4
REMARK VINA RESULT:      -7.0      1.731      2.584
REMARK  Name = 
REMARK  7 active torsions:
REMARK  status: ('A' for Active; 'I' for Inactive)
REMARK    1  A    between atoms: C_1  and  C_2
REMARK    2  A    between atoms: N_6  and  C_7
REMARK    3  A    between atoms: C_7  and  C_8
REMARK    4  A    between atoms: C_7  and  C_9
REMARK    5  A    between atoms: N_11  and  C_12
REMARK    6  A    between atoms: C_12  and  C_13
REMARK    7  A    between atoms: C_13  and  O_14
REMARK                            x       y       z     vdW  Elec       q    Type
REMARK                         _______ _______ _______ _____ _____    ______ ____
ROOT
ATOM      1  C   UNL     1       3.641   5.046  18.167  0.00  0.00    +0.000 C 
ATOM      2  O   UNL     1       2.650   4.940  17.446  0.00  0.00    +0.000 OA
ATOM      3  N   UNL     1       3.863   4.216  19.248  0.00  0.00    +0.000 N 
ATOM      4  H   UNL     1       4.531   4.523  19.939  0.00  0.00    +0.000 HD
ENDROOT
BRANCH   3   5
ATOM      5  C   UNL     1       2.889   3.198  19.690  0.00  0.00    +0.000 C 
ATOM      6  C   UNL     1       3.038   2.974  21.210  0.00  0.00    +0.000 C 
ATOM      7  C   UNL     1       1.684   2.446  21.675  0.00  0.00    +0.000 C 
ATOM      8  C   UNL     1       0.661   2.948  20.661  0.00  0.00    +0.000 C 
ATOM      9  C   UNL     1       1.444   3.716  19.600  0.00  0.00    +0.000 C 
BRANCH   5  10
ATOM     10  C   UNL     1       3.054   1.858  18.917  0.00  0.00    +0.000 C 
BRANCH  10  11
ATOM     11  O   UNL     1       2.285   1.861  17.714  0.00  0.00    +0.000 OA
ATOM     12  H   UNL     1       1.778   1.030  17.718  0.00  0.00    +0.000 HD
ENDBRANCH  10  11
ENDBRANCH   5  10
ENDBRANCH   3   5
BRANCH   1  13
ATOM     13  C   UNL     1       4.743   6.054  17.848  0.00  0.00    +0.000 C 
ATOM     14  C   UNL     1       4.159   7.323  17.237  0.00  0.00    +0.000 C 
BRANCH  13  20
ATOM     15  C   UNL     1       7.768   5.600  18.881  0.00  0.00    +0.000 C 
ATOM     16  C   UNL     1       7.178   5.220  17.574  0.00  0.00    +0.000 A 
ATOM     17  N   UNL     1       7.855   4.578  16.641  0.00  0.00    +0.000 NA
ATOM     18  C   UNL     1       6.994   4.374  15.604  0.00  0.00    +0.000 A 
ATOM     19  C   UNL     1       5.768   4.919  15.890  0.00  0.00    +0.000 A 
ATOM     20  N   UNL     1       5.880   5.449  17.157  0.00  0.00    +0.000 N 
ENDBRANCH  13  20
ENDBRANCH   1  13
TORSDOF 5
ENDMDL
MODEL 5
REMARK VINA RESULT:      -6.9      1.824      5.612
REMARK  Name = 
REMARK  7 active torsions:
REMARK  status: ('A' for Active; 'I' for Inactive)
REMARK    1  A    between atoms: C_1  and  C_2
REMARK    2  A    between atoms: N_6  and  C_7
REMARK    3  A    between atoms: C_7  and  C_8
REMARK    4  A    between atoms: C_7  and  C_9
REMARK    5  A    between atoms: N_11  and  C_12
REMARK    6  A    between atoms: C_12  and  C_13
REMARK    7  A    between atoms: C_13  and  O_14
REMARK                            x       y       z     vdW  Elec       q    Type
REMARK                         _______ _______ _______ _____ _____    ______ ____
ROOT
ATOM      1  C   UNL     1       4.769   3.525  18.777  0.00  0.00    +0.000 C 
ATOM      2  O   UNL     1       5.064   4.546  19.396  0.00  0.00    +0.000 OA
ATOM      3  N   UNL     1       5.157   3.313  17.470  0.00  0.00    +0.000 N 
ATOM      4  H   UNL     1       4.665   2.603  16.948  0.00  0.00    +0.000 HD
ENDROOT
BRANCH   3   5
ATOM      5  C   UNL     1       5.873   4.328  16.671  0.00  0.00    +0.000 C 
ATOM      6  C   UNL     1       5.971   3.852  15.206  0.00  0.00    +0.000 C 
ATOM      7  C   UNL     1       6.122   5.123  14.376  0.00  0.00    +0.000 C 
ATOM      8  C   UNL     1       5.502   6.246  15.203  0.00  0.00    +0.000 C 
ATOM      9  C   UNL     1       5.047   5.616  16.517  0.00  0.00    +0.000 C 
BRANCH   5  10
ATOM     10  C   UNL     1       7.286   4.633  17.246  0.00  0.00    +0.000 C 
BRANCH  10  11
ATOM     11  O   UNL     1       7.274   5.825  18.033  0.00  0.00    +0.000 OA
ATOM     12  H   UNL     1       7.815   5.633  18.818  0.00  0.00    +0.000 HD
ENDBRANCH  10  11
ENDBRANCH   5  10
ENDBRANCH   3   5
BRANCH   1  13
ATOM     13  C   UNL     1       4.027   2.378  19.459  0.00  0.00    +0.000 C 
ATOM     14  C   UNL     1       3.929   1.169  18.535  0.00  0.00    +0.000 C 
BRANCH  13  20
ATOM     15  C   UNL     1       1.442   3.852  18.206  0.00  0.00    +0.000 C 
ATOM     16  C   UNL     1       1.665   3.425  19.610  0.00  0.00    +0.000 A 
ATOM     17  N   UNL     1       0.759   3.574  20.557  0.00  0.00    +0.000 NA
ATOM     18  C   UNL     1       1.293   3.046  21.695  0.00  0.00    +0.000 A 
ATOM     19  C   UNL     1       2.561   2.584  21.455  0.00  0.00    +0.000 A 
ATOM     20  N   UNL     1       2.796   2.812  20.115  0.00  0.00    +0.000 N 
ENDBRANCH  13  20
ENDBRANCH   1  13
TORSDOF 5
ENDMDL
MODEL 6
REMARK VINA RESULT:      -6.9      1.380      2.153
REMARK  Name = 
REMARK  7 active torsions:
REMARK  status: ('A' for Active; 'I' for Inactive)
REMARK    1  A    between atoms: C_1  and  C_2
REMARK    2  A    between atoms: N_6  and  C_7
REMARK    3  A    between atoms: C_7  and  C_8
REMARK    4  A    between atoms: C_7  and  C_9
REMARK    5  A    between atoms: N_11  and  C_12
REMARK    6  A    between atoms: C_12  and  C_13
REMARK    7  A    between atoms: C_13  and  O_14
REMARK                            x       y       z     vdW  Elec       q    Type
REMARK                         _______ _______ _______ _____ _____    ______ ____
ROOT
ATOM      1  C   UNL     1       3.726   5.326  18.314  0.00  0.00    +0.000 C 
ATOM      2  O   UNL     1       2.578   5.369  17.873  0.00  0.00    +0.000 OA
ATOM      3  N   UNL     1       4.138   4.365  19.215  0.00  0.00    +0.000 N 
ATOM      4  H   UNL     1       4.986   4.545  19.731  0.00  0.00    +0.000 HD
ENDROOT
BRANCH   3   5
ATOM      5  C   UNL     1       3.219   3.369  19.802  0.00  0.00    +0.000 C 
ATOM      6  C   UNL     1       2.193   4.087  20.702  0.00  0.00    +0.000 C 
ATOM      7  C   UNL     1       0.979   3.165  20.749  0.00  0.00    +0.000 C 
ATOM      8  C   UNL     1       1.033   2.327  19.475  0.00  0.00    +0.000 C 
ATOM      9  C   UNL     1       2.303   2.743  18.737  0.00  0.00    +0.000 C 
BRANCH   5  10
ATOM     10  C   UNL     1       3.980   2.272  20.601  0.00  0.00    +0.000 C 
BRANCH  10  11
ATOM     11  O   UNL     1       5.098   1.779  19.860  0.00  0.00    +0.000 OA
ATOM     12  H   UNL     1       5.456   1.037  20.378  0.00  0.00    +0.000 HD
ENDBRANCH  10  11
ENDBRANCH   5  10
ENDBRANCH   3   5
BRANCH   1  13
ATOM     13  C   UNL     1       4.799   6.288  17.810  0.00  0.00    +0.000 C 
ATOM     14  C   UNL     1       4.169   7.483  17.104  0.00  0.00    +0.000 C 
BRANCH  13  20
ATOM     15  C   UNL     1       7.793   5.635  18.829  0.00  0.00    +0.000 C 
ATOM     16  C   UNL     1       7.171   5.293  17.526  0.00  0.00    +0.000 A 
ATOM     17  N   UNL     1       7.799   4.605  16.592  0.00  0.00    +0.000 NA
ATOM     18  C   UNL     1       6.920   4.456  15.559  0.00  0.00    +0.000 A 
ATOM     19  C   UNL     1       5.736   5.082  15.850  0.00  0.00    +0.000 A 
ATOM     20  N   UNL     1       5.889   5.607  17.116  0.00  0.00    +0.000 N 
ENDBRANCH  13  20
ENDBRANCH   1  13
TORSDOF 5
ENDMDL
MODEL 7
REMARK VINA RESULT:      -6.9      2.048      5.629
REMARK  Name = 
REMARK  7 active torsions:
REMARK  status: ('A' for Active; 'I' for Inactive)
REMARK    1  A    between atoms: C_1  and  C_2
REMARK    2  A    between atoms: N_6  and  C_7
REMARK    3  A    between atoms: C_7  and  C_8
REMARK    4  A    between atoms: C_7  and  C_9
REMARK    5  A    between atoms: N_11  and  C_12
REMARK    6  A    between atoms: C_12  and  C_13
REMARK    7  A    between atoms: C_13  and  O_14
REMARK                            x       y       z     vdW  Elec       q    Type
REMARK                         _______ _______ _______ _____ _____    ______ ____
ROOT
ATOM      1  C   UNL     1       4.955   3.677  18.852  0.00  0.00    +0.000 C 
ATOM      2  O   UNL     1       5.379   4.413  19.742  0.00  0.00    +0.000 OA
ATOM      3  N   UNL     1       5.357   3.795  17.537  0.00  0.00    +0.000 N 
ATOM      4  H   UNL     1       4.782   3.356  16.834  0.00  0.00    +0.000 HD
ENDROOT
BRANCH   3   5
ATOM      5  C   UNL     1       6.251   4.872  17.066  0.00  0.00    +0.000 C 
ATOM      6  C   UNL     1       5.492   6.215  17.089  0.00  0.00    +0.000 C 
ATOM      7  C   UNL     1       6.570   7.288  17.211  0.00  0.00    +0.000 C 
ATOM      8  C   UNL     1       7.771   6.611  17.865  0.00  0.00    +0.000 C 
ATOM      9  C   UNL     1       7.386   5.148  18.067  0.00  0.00    +0.000 C 
BRANCH   5  10
ATOM     10  C   UNL     1       6.815   4.583  15.646  0.00  0.00    +0.000 C 
BRANCH  10  11
ATOM     11  O   UNL     1       6.240   3.396  15.096  0.00  0.00    +0.000 OA
ATOM     12  H   UNL     1       6.927   3.002  14.532  0.00  0.00    +0.000 HD
ENDBRANCH  10  11
ENDBRANCH   5  10
ENDBRANCH   3   5
BRANCH   1  13
ATOM     13  C   UNL     1       4.018   2.514  19.173  0.00  0.00    +0.000 C 
ATOM     14  C   UNL     1       3.835   1.613  17.957  0.00  0.00    +0.000 C 
BRANCH  13  20
ATOM     15  C   UNL     1       1.449   4.111  18.044  0.00  0.00    +0.000 C 
ATOM     16  C   UNL     1       1.684   3.604  19.419  0.00  0.00    +0.000 A 
ATOM     17  N   UNL     1       0.796   3.721  20.387  0.00  0.00    +0.000 NA
ATOM     18  C   UNL     1       1.335   3.120  21.487  0.00  0.00    +0.000 A 
ATOM     19  C   UNL     1       2.588   2.644  21.201  0.00  0.00    +0.000 A 
ATOM     20  N   UNL     1       2.808   2.939  19.872  0.00  0.00    +0.000 N 
ENDBRANCH  13  20
ENDBRANCH   1  13
TORSDOF 5
ENDMDL
MODEL 8
REMARK VINA RESULT:      -6.8      1.570      2.372
REMARK  Name = 
REMARK  7 active torsions:
REMARK  status: ('A' for Active; 'I' for Inactive)
REMARK    1  A    between atoms: C_1  and  C_2
REMARK    2  A    between atoms: N_6  and  C_7
REMARK    3  A    between atoms: C_7  and  C_8
REMARK    4  A    between atoms: C_7  and  C_9
REMARK    5  A    between atoms: N_11  and  C_12
REMARK    6  A    between atoms: C_12  and  C_13
REMARK    7  A    between atoms: C_13  and  O_14
REMARK                            x       y       z     vdW  Elec       q    Type
REMARK                         _______ _______ _______ _____ _____    ______ ____
ROOT
ATOM      1  C   UNL     1       4.350   4.733  18.698  0.00  0.00    +0.000 C 
ATOM      2  O   UNL     1       5.167   3.925  19.139  0.00  0.00    +0.000 OA
ATOM      3  N   UNL     1       2.991   4.593  18.893  0.00  0.00    +0.000 N 
ATOM      4  H   UNL     1       2.378   5.122  18.290  0.00  0.00    +0.000 HD
ENDROOT
BRANCH   3   5
ATOM      5  C   UNL     1       2.392   3.418  19.558  0.00  0.00    +0.000 C 
ATOM      6  C   UNL     1       3.353   2.903  20.650  0.00  0.00    +0.000 C 
ATOM      7  C   UNL     1       2.469   2.165  21.651  0.00  0.00    +0.000 C 
ATOM      8  C   UNL     1       1.074   2.765  21.509  0.00  0.00    +0.000 C 
ATOM      9  C   UNL     1       1.161   3.804  20.395  0.00  0.00    +0.000 C 
BRANCH   5  10
ATOM     10  C   UNL     1       2.050   2.287  18.546  0.00  0.00    +0.000 C 
BRANCH  10  11
ATOM     11  O   UNL     1       3.187   1.459  18.296  0.00  0.00    +0.000 OA
ATOM     12  H   UNL     1       2.932   0.563  18.574  0.00  0.00    +0.000 HD
ENDBRANCH  10  11
ENDBRANCH   5  10
ENDBRANCH   3   5
BRANCH   1  13
ATOM     13  C   UNL     1       4.806   6.002  17.983  0.00  0.00    +0.000 C 
ATOM     14  C   UNL     1       3.616   6.889  17.638  0.00  0.00    +0.000 C 
BRANCH  13  20
ATOM     15  C   UNL     1       7.721   7.294  17.468  0.00  0.00    +0.000 C 
ATOM     16  C   UNL     1       7.025   6.252  16.673  0.00  0.00    +0.000 A 
ATOM     17  N   UNL     1       7.570   5.669  15.622  0.00  0.00    +0.000 NA
ATOM     18  C   UNL     1       6.665   4.754  15.170  0.00  0.00    +0.000 A 
ATOM     19  C   UNL     1       5.531   4.787  15.940  0.00  0.00    +0.000 A 
ATOM     20  N   UNL     1       5.765   5.735  16.913  0.00  0.00    +0.000 N 
ENDBRANCH  13  20
ENDBRANCH   1  13
TORSDOF 5
ENDMDL
MODEL 9
REMARK VINA RESULT:      -6.8      1.703      5.314
REMARK  Name = 
REMARK  7 active torsions:
REMARK  status: ('A' for Active; 'I' for Inactive)
REMARK    1  A    between atoms: C_1  and  C_2
REMARK    2  A    between atoms: N_6  and  C_7
REMARK    3  A    between atoms: C_7  and  C_8
REMARK    4  A    between atoms: C_7  and  C_9
REMARK    5  A    between atoms: N_11  and  C_12
REMARK    6  A    between atoms: C_12  and  C_13
REMARK    7  A    between atoms: C_13  and  O_14
REMARK                            x       y       z     vdW  Elec       q    Type
REMARK                         _______ _______ _______ _____ _____    ______ ____
ROOT
ATOM      1  C   UNL     1       4.772   4.105  19.154  0.00  0.00    +0.000 C 
ATOM      2  O   UNL     1       5.062   5.245  19.516  0.00  0.00    +0.000 OA
ATOM      3  N   UNL     1       5.173   3.588  17.939  0.00  0.00    +0.000 N 
ATOM      4  H   UNL     1       4.685   2.774  17.596  0.00  0.00    +0.000 HD
ENDROOT
BRANCH   3   5
ATOM      5  C   UNL     1       5.899   4.385  16.929  0.00  0.00    +0.000 C 
ATOM      6  C   UNL     1       5.871   3.644  15.576  0.00  0.00    +0.000 C 
ATOM      7  C   UNL     1       6.048   4.728  14.517  0.00  0.00    +0.000 C 
ATOM      8  C   UNL     1       5.555   6.026  15.151  0.00  0.00    +0.000 C 
ATOM      9  C   UNL     1       5.147   5.681  16.580  0.00  0.00    +0.000 C 
BRANCH   5  10
ATOM     10  C   UNL     1       7.362   4.685  17.363  0.00  0.00    +0.000 C 
BRANCH  10  11
ATOM     11  O   UNL     1       7.458   5.957  18.005  0.00  0.00    +0.000 OA
ATOM     12  H   UNL     1       8.271   5.927  18.538  0.00  0.00    +0.000 HD
ENDBRANCH  10  11
ENDBRANCH   5  10
ENDBRANCH   3   5
BRANCH   1  13
ATOM     13  C   UNL     1       4.021   3.152  20.082  0.00  0.00    +0.000 C 
ATOM     14  C   UNL     1       4.792   1.849  20.262  0.00  0.00    +0.000 C 
BRANCH  13  20
ATOM     15  C   UNL     1       1.599   5.186  20.732  0.00  0.00    +0.000 C 
ATOM     16  C   UNL     1       1.545   3.899  19.995  0.00  0.00    +0.000 A 
ATOM     17  N   UNL     1       0.437   3.429  19.453  0.00  0.00    +0.000 NA
ATOM     18  C   UNL     1       0.769   2.257  18.840  0.00  0.00    +0.000 A 
ATOM     19  C   UNL     1       2.100   1.984  19.025  0.00  0.00    +0.000 A 
ATOM     20  N   UNL     1       2.602   3.042  19.752  0.00  0.00    +0.000 N 
ENDBRANCH  13  20
ENDBRANCH   1  13
TORSDOF 5
ENDMDL
