MODEL 1
REMARK VINA RESULT:      -8.5      0.000      0.000
REMARK  Name = 
REMARK  7 active torsions:
REMARK  status: ('A' for Active; 'I' for Inactive)
REMARK    1  A    between atoms: C_1  and  C_9
REMARK    2  A    between atoms: C_2  and  C_3
REMARK    3  A    between atoms: C_9  and  N_10
REMARK    4  A    between atoms: N_13  and  C_14
REMARK    5  A    between atoms: C_14  and  C_15
REMARK    6  A    between atoms: C_15  and  C_16
REMARK    7  A    between atoms: C_16  and  N_17
REMARK                            x       y       z     vdW  Elec       q    Type
REMARK                         _______ _______ _______ _____ _____    ______ ____
ROOT
ATOM      1  C   UNL     1       5.266   4.064  17.221  0.00  0.00    +0.000 C 
ENDROOT
BRANCH   1   5
ATOM      2  N   UNL     1       7.012   7.200  18.020  0.00  0.00    +0.000 NA
ATOM      3  C   UNL     1       5.844   7.221  17.105  0.00  0.00    +0.000 C 
ATOM      4  C   UNL     1       5.791   6.151  15.979  0.00  0.00    +0.000 C 
ATOM      5  N   UNL     1       6.208   4.782  16.348  0.00  0.00    +0.000 NA
ATOM      6  C   UNL     1       7.513   4.901  17.031  0.00  0.00    +0.000 C 
ATOM      7  C   UNL     1       7.473   5.819  18.275  0.00  0.00    +0.000 C 
BRANCH   2   8
ATOM      8  C   UNL     1       8.131   8.024  17.562  0.00  0.00    +0.000 C 
BRANCH   8   9
ATOM      9  C   UNL     1       8.244   9.354  18.253  0.00  0.00    +0.000 C 
ATOM     10  C   UNL     1       9.372  10.083  18.207  0.00  0.00    +0.000 C 
BRANCH  10  11
ATOM     11  C   UNL     1       9.689  11.248  19.054  0.00  0.00    +0.000 A 
ATOM     12  C   UNL     1       9.569  11.098  20.442  0.00  0.00    +0.000 A 
ATOM     13  C   UNL     1       9.792  12.175  21.308  0.00  0.00    +0.000 A 
ATOM     14  C   UNL     1      10.159  13.413  20.789  0.00  0.00    +0.000 A 
ATOM     15  C   UNL     1      10.314  13.571  19.413  0.00  0.00    +0.000 A 
ATOM     16  C   UNL     1      10.081  12.497  18.550  0.00  0.00    +0.000 A 
ENDBRANCH  10  11
ENDBRANCH   8   9
ENDBRANCH   2   8
ENDBRANCH   1   5
BRANCH   1  17
ATOM     17  C   UNL     1       3.960   3.613  16.580  0.00  0.00    +0.000 C 
BRANCH  17  18
ATOM     18  C   UNL     1       2.690   3.998  17.352  0.00  0.00    +0.000 C 
BRANCH  18  19
ATOM     19  N   UNL     1       3.102   4.723  18.571  0.00  0.00    +0.000 N 
ATOM     20  C   UNL     1       2.690   6.018  18.846  0.00  0.00    +0.000 A 
ATOM     21  C   UNL     1       2.651   7.171  18.049  0.00  0.00    +0.000 A 
ATOM     22  C   UNL     1       2.081   8.323  18.604  0.00  0.00    +0.000 A 
ATOM     23  C   UNL     1       1.531   8.309  19.883  0.00  0.00    +0.000 A 
ATOM     24  C   UNL     1       1.520   7.134  20.641  0.00  0.00    +0.000 A 
ATOM     25  C   UNL     1       2.122   5.969  20.125  0.00  0.00    +0.000 A 
ATOM     26  C   UNL     1       2.276   4.628  20.602  0.00  0.00    +0.000 A 
ATOM     27  C   UNL     1       1.731   3.861  21.648  0.00  0.00    +0.000 A 
ATOM     28  C   UNL     1       2.205   2.557  21.853  0.00  0.00    +0.000 A 
ATOM     29  C   UNL     1       3.269   2.055  21.105  0.00  0.00    +0.000 A 
ATOM     30  C   UNL     1       3.794   2.777  20.034  0.00  0.00    +0.000 A 
ATOM     31  C   UNL     1       3.203   4.015  19.762  0.00  0.00    +0.000 A 
ENDBRANCH  18  19
ENDBRANCH  17  18
ENDBRANCH   1  17
TORSDOF 7
ENDMDL
MODEL 2
REMARK VINA RESULT:      -8.4      4.712      9.045
REMARK  Name = 
REMARK  7 active torsions:
REMARK  status: ('A' for Active; 'I' for Inactive)
REMARK    1  A    between atoms: C_1  and  C_9
REMARK    2  A    between atoms: C_2  and  C_3
REMARK    3  A    between atoms: C_9  and  N_10
REMARK    4  A    between atoms: N_13  and  C_14
REMARK    5  A    between atoms: C_14  and  C_15
REMARK    6  A    between atoms: C_15  and  C_16
REMARK    7  A    between atoms: C_16  and  N_17
REMARK                            x       y       z     vdW  Elec       q    Type
REMARK                         _______ _______ _______ _____ _____    ______ ____
ROOT
ATOM      1  C   UNL     1       1.640   7.883  20.505  0.00  0.00    +0.000 C 
ENDROOT
BRANCH   1   5
ATOM      2  N   UNL     1       0.937  11.293  21.689  0.00  0.00    +0.000 NA
ATOM      3  C   UNL     1       0.445  10.128  22.465  0.00  0.00    +0.000 C 
ATOM      4  C   UNL     1      -0.252   8.981  21.682  0.00  0.00    +0.000 C 
ATOM      5  N   UNL     1       0.359   8.596  20.392  0.00  0.00    +0.000 NA
ATOM      6  C   UNL     1       0.558   9.842  19.623  0.00  0.00    +0.000 C 
ATOM      7  C   UNL     1       1.434  10.883  20.359  0.00  0.00    +0.000 C 
BRANCH   2   8
ATOM      8  C   UNL     1      -0.051  12.362  21.546  0.00  0.00    +0.000 C 
BRANCH   8   9
ATOM      9  C   UNL     1      -1.282  12.185  22.390  0.00  0.00    +0.000 C 
ATOM     10  C   UNL     1      -2.515  12.379  21.894  0.00  0.00    +0.000 C 
BRANCH  10  11
ATOM     11  C   UNL     1      -3.759  12.501  22.678  0.00  0.00    +0.000 A 
ATOM     12  C   UNL     1      -4.938  12.808  21.985  0.00  0.00    +0.000 A 
ATOM     13  C   UNL     1      -6.146  13.002  22.665  0.00  0.00    +0.000 A 
ATOM     14  C   UNL     1      -6.188  12.870  24.050  0.00  0.00    +0.000 A 
ATOM     15  C   UNL     1      -5.031  12.533  24.750  0.00  0.00    +0.000 A 
ATOM     16  C   UNL     1      -3.824  12.350  24.070  0.00  0.00    +0.000 A 
ENDBRANCH  10  11
ENDBRANCH   8   9
ENDBRANCH   2   8
ENDBRANCH   1   5
BRANCH   1  17
ATOM     17  C   UNL     1       2.304   7.474  19.197  0.00  0.00    +0.000 C 
BRANCH  17  18
ATOM     18  C   UNL     1       3.220   6.244  19.290  0.00  0.00    +0.000 C 
BRANCH  18  19
ATOM     19  N   UNL     1       3.108   5.497  18.021  0.00  0.00    +0.000 N 
ATOM     20  C   UNL     1       4.132   5.449  17.088  0.00  0.00    +0.000 A 
ATOM     21  C   UNL     1       4.941   6.456  16.543  0.00  0.00    +0.000 A 
ATOM     22  C   UNL     1       5.969   6.063  15.677  0.00  0.00    +0.000 A 
ATOM     23  C   UNL     1       6.206   4.718  15.406  0.00  0.00    +0.000 A 
ATOM     24  C   UNL     1       5.430   3.722  16.008  0.00  0.00    +0.000 A 
ATOM     25  C   UNL     1       4.364   4.089  16.853  0.00  0.00    +0.000 A 
ATOM     26  C   UNL     1       3.405   3.359  17.626  0.00  0.00    +0.000 A 
ATOM     27  C   UNL     1       3.248   2.023  18.037  0.00  0.00    +0.000 A 
ATOM     28  C   UNL     1       2.094   1.661  18.747  0.00  0.00    +0.000 A 
ATOM     29  C   UNL     1       1.064   2.578  18.957  0.00  0.00    +0.000 A 
ATOM     30  C   UNL     1       1.216   3.918  18.600  0.00  0.00    +0.000 A 
ATOM     31  C   UNL     1       2.439   4.280  18.025  0.00  0.00    +0.000 A 
ENDBRANCH  18  19
ENDBRANCH  17  18
ENDBRANCH   1  17
TORSDOF 7
ENDMDL
MODEL 3
REMARK VINA RESULT:      -8.4      5.133      9.565
REMARK  Name = 
REMARK  7 active torsions:
REMARK  status: ('A' for Active; 'I' for Inactive)
REMARK    1  A    between atoms: C_1  and  C_9
REMARK    2  A    between atoms: C_2  and  C_3
REMARK    3  A    between atoms: C_9  and  N_10
REMARK    4  A    between atoms: N_13  and  C_14
REMARK    5  A    between atoms: C_14  and  C_15
REMARK    6  A    between atoms: C_15  and  C_16
REMARK    7  A    between atoms: C_16  and  N_17
REMARK                            x       y       z     vdW  Elec       q    Type
REMARK                         _______ _______ _______ _____ _____    ______ ____
ROOT
ATOM      1  C   UNL     1       1.139   9.290  18.033  0.00  0.00    +0.000 C 
ENDROOT
BRANCH   1   5
ATOM      2  N   UNL     1      -1.014  12.156  18.855  0.00  0.00    +0.000 NA
ATOM      3  C   UNL     1       0.416  12.380  18.525  0.00  0.00    +0.000 C 
ATOM      4  C   UNL     1       1.466  11.457  19.203  0.00  0.00    +0.000 C 
ATOM      5  N   UNL     1       1.117  10.024  19.307  0.00  0.00    +0.000 NA
ATOM      6  C   UNL     1      -0.240   9.954  19.889  0.00  0.00    +0.000 C 
ATOM      7  C   UNL     1      -1.300  10.721  19.065  0.00  0.00    +0.000 C 
BRANCH   2   8
ATOM      8  C   UNL     1      -1.479  12.932  20.004  0.00  0.00    +0.000 C 
BRANCH   8   9
ATOM      9  C   UNL     1      -2.730  12.399  20.646  0.00  0.00    +0.000 C 
ATOM     10  C   UNL     1      -3.907  13.039  20.542  0.00  0.00    +0.000 C 
BRANCH  10  11
ATOM     11  C   UNL     1      -5.118  12.766  21.339  0.00  0.00    +0.000 A 
ATOM     12  C   UNL     1      -6.171  12.087  20.712  0.00  0.00    +0.000 A 
ATOM     13  C   UNL     1      -7.377  11.847  21.381  0.00  0.00    +0.000 A 
ATOM     14  C   UNL     1      -7.531  12.270  22.698  0.00  0.00    +0.000 A 
ATOM     15  C   UNL     1      -6.482  12.917  23.347  0.00  0.00    +0.000 A 
ATOM     16  C   UNL     1      -5.283  13.165  22.672  0.00  0.00    +0.000 A 
ENDBRANCH  10  11
ENDBRANCH   8   9
ENDBRANCH   2   8
ENDBRANCH   1   5
BRANCH   1  17
ATOM     17  C   UNL     1       2.403   8.496  17.731  0.00  0.00    +0.000 C 
BRANCH  17  18
ATOM     18  C   UNL     1       2.629   7.269  18.626  0.00  0.00    +0.000 C 
BRANCH  18  19
ATOM     19  N   UNL     1       3.323   6.242  17.823  0.00  0.00    +0.000 N 
ATOM     20  C   UNL     1       4.700   6.217  17.668  0.00  0.00    +0.000 A 
ATOM     21  C   UNL     1       5.619   7.229  17.357  0.00  0.00    +0.000 A 
ATOM     22  C   UNL     1       6.979   6.895  17.369  0.00  0.00    +0.000 A 
ATOM     23  C   UNL     1       7.402   5.616  17.722  0.00  0.00    +0.000 A 
ATOM     24  C   UNL     1       6.476   4.636  18.092  0.00  0.00    +0.000 A 
ATOM     25  C   UNL     1       5.099   4.931  18.052  0.00  0.00    +0.000 A 
ATOM     26  C   UNL     1       3.910   4.199  18.369  0.00  0.00    +0.000 A 
ATOM     27  C   UNL     1       3.614   2.996  19.035  0.00  0.00    +0.000 A 
ATOM     28  C   UNL     1       2.285   2.553  19.078  0.00  0.00    +0.000 A 
ATOM     29  C   UNL     1       1.280   3.229  18.387  0.00  0.00    +0.000 A 
ATOM     30  C   UNL     1       1.540   4.447  17.759  0.00  0.00    +0.000 A 
ATOM     31  C   UNL     1       2.845   4.938  17.858  0.00  0.00    +0.000 A 
ENDBRANCH  18  19
ENDBRANCH  17  18
ENDBRANCH   1  17
TORSDOF 7
ENDMDL
MODEL 4
REMARK VINA RESULT:      -8.3      4.780      9.048
REMARK  Name = 
REMARK  7 active torsions:
REMARK  status: ('A' for Active; 'I' for Inactive)
REMARK    1  A    between atoms: C_1  and  C_9
REMARK    2  A    between atoms: C_2  and  C_3
REMARK    3  A    between atoms: C_9  and  N_10
REMARK    4  A    between atoms: N_13  and  C_14
REMARK    5  A    between atoms: C_14  and  C_15
REMARK    6  A    between atoms: C_15  and  C_16
REMARK    7  A    between atoms: C_16  and  N_17
REMARK                            x       y       z     vdW  Elec       q    Type
REMARK                         _______ _______ _______ _____ _____    ______ ____
ROOT
ATOM      1  C   UNL     1       1.873   8.638  19.535  0.00  0.00    +0.000 C 
ENDROOT
BRANCH   1   5
ATOM      2  N   UNL     1       0.827  11.708  21.270  0.00  0.00    +0.000 NA
ATOM      3  C   UNL     1       0.329  10.391  21.739  0.00  0.00    +0.000 C 
ATOM      4  C   UNL     1      -0.203   9.397  20.670  0.00  0.00    +0.000 C 
ATOM      5  N   UNL     1       0.568   9.306  19.412  0.00  0.00    +0.000 NA
ATOM      6  C   UNL     1       0.768  10.688  18.930  0.00  0.00    +0.000 C 
ATOM      7  C   UNL     1       1.490  11.594  19.954  0.00  0.00    +0.000 C 
BRANCH   2   8
ATOM      8  C   UNL     1      -0.207  12.742  21.221  0.00  0.00    +0.000 C 
BRANCH   8   9
ATOM      9  C   UNL     1      -1.516  12.339  21.839  0.00  0.00    +0.000 C 
ATOM     10  C   UNL     1      -2.580  13.158  21.843  0.00  0.00    +0.000 C 
BRANCH  10  11
ATOM     11  C   UNL     1      -3.808  12.987  22.642  0.00  0.00    +0.000 A 
ATOM     12  C   UNL     1      -3.666  12.578  23.975  0.00  0.00    +0.000 A 
ATOM     13  C   UNL     1      -4.784  12.333  24.780  0.00  0.00    +0.000 A 
ATOM     14  C   UNL     1      -6.062  12.516  24.259  0.00  0.00    +0.000 A 
ATOM     15  C   UNL     1      -6.221  12.954  22.946  0.00  0.00    +0.000 A 
ATOM     16  C   UNL     1      -5.101  13.187  22.142  0.00  0.00    +0.000 A 
ENDBRANCH  10  11
ENDBRANCH   8   9
ENDBRANCH   2   8
ENDBRANCH   1   5
BRANCH   1  17
ATOM     17  C   UNL     1       2.264   7.701  18.401  0.00  0.00    +0.000 C 
BRANCH  17  18
ATOM     18  C   UNL     1       3.086   6.475  18.825  0.00  0.00    +0.000 C 
BRANCH  18  19
ATOM     19  N   UNL     1       3.191   5.573  17.660  0.00  0.00    +0.000 N 
ATOM     20  C   UNL     1       4.345   5.462  16.901  0.00  0.00    +0.000 A 
ATOM     21  C   UNL     1       5.197   6.433  16.355  0.00  0.00    +0.000 A 
ATOM     22  C   UNL     1       6.356   5.989  15.707  0.00  0.00    +0.000 A 
ATOM     23  C   UNL     1       6.672   4.634  15.649  0.00  0.00    +0.000 A 
ATOM     24  C   UNL     1       5.845   3.682  16.254  0.00  0.00    +0.000 A 
ATOM     25  C   UNL     1       4.652   4.096  16.879  0.00  0.00    +0.000 A 
ATOM     26  C   UNL     1       3.610   3.420  17.591  0.00  0.00    +0.000 A 
ATOM     27  C   UNL     1       3.433   2.138  18.143  0.00  0.00    +0.000 A 
ATOM     28  C   UNL     1       2.196   1.810  18.716  0.00  0.00    +0.000 A 
ATOM     29  C   UNL     1       1.119   2.694  18.653  0.00  0.00    +0.000 A 
ATOM     30  C   UNL     1       1.282   3.985  18.153  0.00  0.00    +0.000 A 
ATOM     31  C   UNL     1       2.566   4.334  17.722  0.00  0.00    +0.000 A 
ENDBRANCH  18  19
ENDBRANCH  17  18
ENDBRANCH   1  17
TORSDOF 7
ENDMDL
MODEL 5
REMARK VINA RESULT:      -8.3      4.887      9.303
REMARK  Name = 
REMARK  7 active torsions:
REMARK  status: ('A' for Active; 'I' for Inactive)
REMARK    1  A    between atoms: C_1  and  C_9
REMARK    2  A    between atoms: C_2  and  C_3
REMARK    3  A    between atoms: C_9  and  N_10
REMARK    4  A    between atoms: N_13  and  C_14
REMARK    5  A    between atoms: C_14  and  C_15
REMARK    6  A    between atoms: C_15  and  C_16
REMARK    7  A    between atoms: C_16  and  N_17
REMARK                            x       y       z     vdW  Elec       q    Type
REMARK                         _______ _______ _______ _____ _____    ______ ____
ROOT
ATOM      1  C   UNL     1       1.670   8.906  19.537  0.00  0.00    +0.000 C 
ENDROOT
BRANCH   1   5
ATOM      2  N   UNL     1       0.692  11.823  21.551  0.00  0.00    +0.000 NA
ATOM      3  C   UNL     1       0.160  10.481  21.894  0.00  0.00    +0.000 C 
ATOM      4  C   UNL     1      -0.392   9.606  20.734  0.00  0.00    +0.000 C 
ATOM      5  N   UNL     1       0.382   9.614  19.474  0.00  0.00    +0.000 NA
ATOM      6  C   UNL     1       0.618  11.030  19.126  0.00  0.00    +0.000 C 
ATOM      7  C   UNL     1       1.358  11.818  20.232  0.00  0.00    +0.000 C 
BRANCH   2   8
ATOM      8  C   UNL     1      -0.315  12.883  21.598  0.00  0.00    +0.000 C 
BRANCH   8   9
ATOM      9  C   UNL     1      -1.651  12.444  22.130  0.00  0.00    +0.000 C 
ATOM     10  C   UNL     1      -2.744  13.218  22.028  0.00  0.00    +0.000 C 
BRANCH  10  11
ATOM     11  C   UNL     1      -4.021  13.020  22.739  0.00  0.00    +0.000 A 
ATOM     12  C   UNL     1      -3.964  12.639  24.087  0.00  0.00    +0.000 A 
ATOM     13  C   UNL     1      -5.130  12.370  24.812  0.00  0.00    +0.000 A 
ATOM     14  C   UNL     1      -6.371  12.501  24.196  0.00  0.00    +0.000 A 
ATOM     15  C   UNL     1      -6.447  12.911  22.867  0.00  0.00    +0.000 A 
ATOM     16  C   UNL     1      -5.280  13.168  22.142  0.00  0.00    +0.000 A 
ENDBRANCH  10  11
ENDBRANCH   8   9
ENDBRANCH   2   8
ENDBRANCH   1   5
BRANCH   1  17
ATOM     17  C   UNL     1       2.286   8.503  18.204  0.00  0.00    +0.000 C 
BRANCH  17  18
ATOM     18  C   UNL     1       2.084   7.032  17.812  0.00  0.00    +0.000 C 
BRANCH  18  19
ATOM     19  N   UNL     1       3.172   6.245  18.425  0.00  0.00    +0.000 N 
ATOM     20  C   UNL     1       2.943   5.275  19.389  0.00  0.00    +0.000 A 
ATOM     21  C   UNL     1       2.158   5.286  20.551  0.00  0.00    +0.000 A 
ATOM     22  C   UNL     1       2.059   4.094  21.277  0.00  0.00    +0.000 A 
ATOM     23  C   UNL     1       2.681   2.928  20.835  0.00  0.00    +0.000 A 
ATOM     24  C   UNL     1       3.408   2.918  19.640  0.00  0.00    +0.000 A 
ATOM     25  C   UNL     1       3.557   4.113  18.908  0.00  0.00    +0.000 A 
ATOM     26  C   UNL     1       4.199   4.456  17.675  0.00  0.00    +0.000 A 
ATOM     27  C   UNL     1       4.749   3.745  16.593  0.00  0.00    +0.000 A 
ATOM     28  C   UNL     1       5.383   4.457  15.565  0.00  0.00    +0.000 A 
ATOM     29  C   UNL     1       5.562   5.837  15.652  0.00  0.00    +0.000 A 
ATOM     30  C   UNL     1       4.987   6.568  16.691  0.00  0.00    +0.000 A 
ATOM     31  C   UNL     1       4.236   5.848  17.625  0.00  0.00    +0.000 A 
ENDBRANCH  18  19
ENDBRANCH  17  18
ENDBRANCH   1  17
TORSDOF 7
ENDMDL
MODEL 6
REMARK VINA RESULT:      -8.3      3.835      8.415
REMARK  Name = 
REMARK  7 active torsions:
REMARK  status: ('A' for Active; 'I' for Inactive)
REMARK    1  A    between atoms: C_1  and  C_9
REMARK    2  A    between atoms: C_2  and  C_3
REMARK    3  A    between atoms: C_9  and  N_10
REMARK    4  A    between atoms: N_13  and  C_14
REMARK    5  A    between atoms: C_14  and  C_15
REMARK    6  A    between atoms: C_15  and  C_16
REMARK    7  A    between atoms: C_16  and  N_17
REMARK                            x       y       z     vdW  Elec       q    Type
REMARK                         _______ _______ _______ _____ _____    ______ ____
ROOT
ATOM      1  C   UNL     1       1.847   7.985  20.678  0.00  0.00    +0.000 C 
ENDROOT
BRANCH   1   5
ATOM      2  N   UNL     1       0.419  11.167  21.845  0.00  0.00    +0.000 NA
ATOM      3  C   UNL     1       0.027   9.898  22.507  0.00  0.00    +0.000 C 
ATOM      4  C   UNL     1      -0.350   8.696  21.597  0.00  0.00    +0.000 C 
ATOM      5  N   UNL     1       0.491   8.485  20.400  0.00  0.00    +0.000 NA
ATOM      6  C   UNL     1       0.582   9.786  19.705  0.00  0.00    +0.000 C 
ATOM      7  C   UNL     1       1.158  10.914  20.591  0.00  0.00    +0.000 C 
BRANCH   2   8
ATOM      8  C   UNL     1      -0.706  12.067  21.590  0.00  0.00    +0.000 C 
BRANCH   8   9
ATOM      9  C   UNL     1      -1.155  12.105  20.157  0.00  0.00    +0.000 C 
ATOM     10  C   UNL     1      -2.398  11.747  19.794  0.00  0.00    +0.000 C 
BRANCH  10  11
ATOM     11  C   UNL     1      -2.861  11.486  18.418  0.00  0.00    +0.000 A 
ATOM     12  C   UNL     1      -4.205  11.752  18.121  0.00  0.00    +0.000 A 
ATOM     13  C   UNL     1      -4.736  11.472  16.857  0.00  0.00    +0.000 A 
ATOM     14  C   UNL     1      -3.915  10.938  15.867  0.00  0.00    +0.000 A 
ATOM     15  C   UNL     1      -2.569  10.698  16.135  0.00  0.00    +0.000 A 
ATOM     16  C   UNL     1      -2.045  10.970  17.402  0.00  0.00    +0.000 A 
ENDBRANCH  10  11
ENDBRANCH   8   9
ENDBRANCH   2   8
ENDBRANCH   1   5
BRANCH   1  17
ATOM     17  C   UNL     1       2.322   6.811  19.833  0.00  0.00    +0.000 C 
BRANCH  17  18
ATOM     18  C   UNL     1       2.466   7.106  18.332  0.00  0.00    +0.000 C 
BRANCH  18  19
ATOM     19  N   UNL     1       3.235   6.003  17.724  0.00  0.00    +0.000 N 
ATOM     20  C   UNL     1       4.619   6.016  17.635  0.00  0.00    +0.000 A 
ATOM     21  C   UNL     1       5.514   7.009  17.215  0.00  0.00    +0.000 A 
ATOM     22  C   UNL     1       6.883   6.741  17.335  0.00  0.00    +0.000 A 
ATOM     23  C   UNL     1       7.335   5.548  17.896  0.00  0.00    +0.000 A 
ATOM     24  C   UNL     1       6.429   4.595  18.370  0.00  0.00    +0.000 A 
ATOM     25  C   UNL     1       5.045   4.820  18.226  0.00  0.00    +0.000 A 
ATOM     26  C   UNL     1       3.870   4.092  18.598  0.00  0.00    +0.000 A 
ATOM     27  C   UNL     1       3.586   2.991  19.426  0.00  0.00    +0.000 A 
ATOM     28  C   UNL     1       2.274   2.500  19.477  0.00  0.00    +0.000 A 
ATOM     29  C   UNL     1       1.280   3.022  18.649  0.00  0.00    +0.000 A 
ATOM     30  C   UNL     1       1.525   4.141  17.856  0.00  0.00    +0.000 A 
ATOM     31  C   UNL     1       2.805   4.699  17.935  0.00  0.00    +0.000 A 
ENDBRANCH  18  19
ENDBRANCH  17  18
ENDBRANCH   1  17
TORSDOF 7
ENDMDL
MODEL 7
REMARK VINA RESULT:      -8.2      4.973      9.162
REMARK  Name = 
REMARK  7 active torsions:
REMARK  status: ('A' for Active; 'I' for Inactive)
REMARK    1  A    between atoms: C_1  and  C_9
REMARK    2  A    between atoms: C_2  and  C_3
REMARK    3  A    between atoms: C_9  and  N_10
REMARK    4  A    between atoms: N_13  and  C_14
REMARK    5  A    between atoms: C_14  and  C_15
REMARK    6  A    between atoms: C_15  and  C_16
REMARK    7  A    between atoms: C_16  and  N_17
REMARK                            x       y       z     vdW  Elec       q    Type
REMARK                         _______ _______ _______ _____ _____    ______ ____
ROOT
ATOM      1  C   UNL     1       1.174   9.197  18.272  0.00  0.00    +0.000 C 
ENDROOT
BRANCH   1   5
ATOM      2  N   UNL     1      -0.837  12.172  19.067  0.00  0.00    +0.000 NA
ATOM      3  C   UNL     1       0.450  12.325  18.345  0.00  0.00    +0.000 C 
ATOM      4  C   UNL     1       1.681  11.550  18.891  0.00  0.00    +0.000 C 
ATOM      5  N   UNL     1       1.439  10.165  19.348  0.00  0.00    +0.000 NA
ATOM      6  C   UNL     1       0.279  10.211  20.261  0.00  0.00    +0.000 C 
ATOM      7  C   UNL     1      -0.991  10.806  19.609  0.00  0.00    +0.000 C 
BRANCH   2   8
ATOM      8  C   UNL     1      -1.034  13.157  20.130  0.00  0.00    +0.000 C 
BRANCH   8   9
ATOM      9  C   UNL     1      -2.417  13.167  20.718  0.00  0.00    +0.000 C 
ATOM     10  C   UNL     1      -2.627  13.324  22.035  0.00  0.00    +0.000 C 
BRANCH  10  11
ATOM     11  C   UNL     1      -3.895  13.082  22.749  0.00  0.00    +0.000 A 
ATOM     12  C   UNL     1      -3.820  12.614  24.068  0.00  0.00    +0.000 A 
ATOM     13  C   UNL     1      -4.977  12.300  24.790  0.00  0.00    +0.000 A 
ATOM     14  C   UNL     1      -6.226  12.473  24.201  0.00  0.00    +0.000 A 
ATOM     15  C   UNL     1      -6.319  12.969  22.903  0.00  0.00    +0.000 A 
ATOM     16  C   UNL     1      -5.161  13.271  22.180  0.00  0.00    +0.000 A 
ENDBRANCH  10  11
ENDBRANCH   8   9
ENDBRANCH   2   8
ENDBRANCH   1   5
BRANCH   1  17
ATOM     17  C   UNL     1       2.363   8.376  17.793  0.00  0.00    +0.000 C 
BRANCH  17  18
ATOM     18  C   UNL     1       2.721   7.172  18.678  0.00  0.00    +0.000 C 
BRANCH  18  19
ATOM     19  N   UNL     1       3.372   6.158  17.824  0.00  0.00    +0.000 N 
ATOM     20  C   UNL     1       4.744   6.112  17.631  0.00  0.00    +0.000 A 
ATOM     21  C   UNL     1       5.675   7.116  17.327  0.00  0.00    +0.000 A 
ATOM     22  C   UNL     1       7.027   6.756  17.291  0.00  0.00    +0.000 A 
ATOM     23  C   UNL     1       7.434   5.458  17.593  0.00  0.00    +0.000 A 
ATOM     24  C   UNL     1       6.499   4.485  17.957  0.00  0.00    +0.000 A 
ATOM     25  C   UNL     1       5.127   4.808  17.964  0.00  0.00    +0.000 A 
ATOM     26  C   UNL     1       3.933   4.089  18.291  0.00  0.00    +0.000 A 
ATOM     27  C   UNL     1       3.632   2.871  18.928  0.00  0.00    +0.000 A 
ATOM     28  C   UNL     1       2.295   2.452  18.993  0.00  0.00    +0.000 A 
ATOM     29  C   UNL     1       1.286   3.169  18.351  0.00  0.00    +0.000 A 
ATOM     30  C   UNL     1       1.552   4.400  17.754  0.00  0.00    +0.000 A 
ATOM     31  C   UNL     1       2.870   4.864  17.832  0.00  0.00    +0.000 A 
ENDBRANCH  18  19
ENDBRANCH  17  18
ENDBRANCH   1  17
TORSDOF 7
ENDMDL
MODEL 8
REMARK VINA RESULT:      -8.2      5.110      7.613
REMARK  Name = 
REMARK  7 active torsions:
REMARK  status: ('A' for Active; 'I' for Inactive)
REMARK    1  A    between atoms: C_1  and  C_9
REMARK    2  A    between atoms: C_2  and  C_3
REMARK    3  A    between atoms: C_9  and  N_10
REMARK    4  A    between atoms: N_13  and  C_14
REMARK    5  A    between atoms: C_14  and  C_15
REMARK    6  A    between atoms: C_15  and  C_16
REMARK    7  A    between atoms: C_16  and  N_17
REMARK                            x       y       z     vdW  Elec       q    Type
REMARK                         _______ _______ _______ _____ _____    ______ ____
ROOT
ATOM      1  C   UNL     1       1.473   9.178  18.877  0.00  0.00    +0.000 C 
ENDROOT
BRANCH   1   5
ATOM      2  N   UNL     1      -0.759  11.745  20.273  0.00  0.00    +0.000 NA
ATOM      3  C   UNL     1      -1.333  10.599  19.525  0.00  0.00    +0.000 C 
ATOM      4  C   UNL     1      -0.671  10.216  18.172  0.00  0.00    +0.000 C 
ATOM      5  N   UNL     1       0.806  10.252  18.126  0.00  0.00    +0.000 NA
ATOM      6  C   UNL     1       1.221  11.561  18.672  0.00  0.00    +0.000 C 
ATOM      7  C   UNL     1       0.708  11.815  20.109  0.00  0.00    +0.000 C 
BRANCH   2   8
ATOM      8  C   UNL     1      -1.363  13.032  19.928  0.00  0.00    +0.000 C 
BRANCH   8   9
ATOM      9  C   UNL     1      -0.451  13.964  19.181  0.00  0.00    +0.000 C 
ATOM     10  C   UNL     1      -0.444  15.287  19.415  0.00  0.00    +0.000 C 
BRANCH  10  11
ATOM     11  C   UNL     1       0.195  16.316  18.572  0.00  0.00    +0.000 A 
ATOM     12  C   UNL     1      -0.637  17.255  17.947  0.00  0.00    +0.000 A 
ATOM     13  C   UNL     1      -0.113  18.223  17.082  0.00  0.00    +0.000 A 
ATOM     14  C   UNL     1       1.259  18.271  16.852  0.00  0.00    +0.000 A 
ATOM     15  C   UNL     1       2.103  17.366  17.491  0.00  0.00    +0.000 A 
ATOM     16  C   UNL     1       1.576  16.394  18.346  0.00  0.00    +0.000 A 
ENDBRANCH  10  11
ENDBRANCH   8   9
ENDBRANCH   2   8
ENDBRANCH   1   5
BRANCH   1  17
ATOM     17  C   UNL     1       2.239   8.151  18.054  0.00  0.00    +0.000 C 
BRANCH  17  18
ATOM     18  C   UNL     1       2.750   6.936  18.842  0.00  0.00    +0.000 C 
BRANCH  18  19
ATOM     19  N   UNL     1       3.321   5.976  17.876  0.00  0.00    +0.000 N 
ATOM     20  C   UNL     1       4.672   5.939  17.568  0.00  0.00    +0.000 A 
ATOM     21  C   UNL     1       5.582   6.958  17.250  0.00  0.00    +0.000 A 
ATOM     22  C   UNL     1       6.924   6.599  17.080  0.00  0.00    +0.000 A 
ATOM     23  C   UNL     1       7.346   5.285  17.266  0.00  0.00    +0.000 A 
ATOM     24  C   UNL     1       6.437   4.292  17.646  0.00  0.00    +0.000 A 
ATOM     25  C   UNL     1       5.073   4.616  17.786  0.00  0.00    +0.000 A 
ATOM     26  C   UNL     1       3.905   3.880  18.166  0.00  0.00    +0.000 A 
ATOM     27  C   UNL     1       3.649   2.626  18.749  0.00  0.00    +0.000 A 
ATOM     28  C   UNL     1       2.319   2.205  18.898  0.00  0.00    +0.000 A 
ATOM     29  C   UNL     1       1.266   2.963  18.388  0.00  0.00    +0.000 A 
ATOM     30  C   UNL     1       1.490   4.228  17.848  0.00  0.00    +0.000 A 
ATOM     31  C   UNL     1       2.813   4.684  17.845  0.00  0.00    +0.000 A 
ENDBRANCH  18  19
ENDBRANCH  17  18
ENDBRANCH   1  17
TORSDOF 7
ENDMDL
MODEL 9
REMARK VINA RESULT:      -8.2      4.925      9.429
REMARK  Name = 
REMARK  7 active torsions:
REMARK  status: ('A' for Active; 'I' for Inactive)
REMARK    1  A    between atoms: C_1  and  C_9
REMARK    2  A    between atoms: C_2  and  C_3
REMARK    3  A    between atoms: C_9  and  N_10
REMARK    4  A    between atoms: N_13  and  C_14
REMARK    5  A    between atoms: C_14  and  C_15
REMARK    6  A    between atoms: C_15  and  C_16
REMARK    7  A    between atoms: C_16  and  N_17
REMARK                            x       y       z     vdW  Elec       q    Type
REMARK                         _______ _______ _______ _____ _____    ______ ____
ROOT
ATOM      1  C   UNL     1       1.723   9.468  18.703  0.00  0.00    +0.000 C 
ENDROOT
BRANCH   1   5
ATOM      2  N   UNL     1      -0.036  12.412  20.031  0.00  0.00    +0.000 NA
ATOM      3  C   UNL     1       1.012  11.751  20.847  0.00  0.00    +0.000 C 
ATOM      4  C   UNL     1       0.972  10.201  20.955  0.00  0.00    +0.000 C 
ATOM      5  N   UNL     1       0.656   9.460  19.715  0.00  0.00    +0.000 NA
ATOM      6  C   UNL     1      -0.562  10.075  19.147  0.00  0.00    +0.000 C 
ATOM      7  C   UNL     1      -0.409  11.587  18.862  0.00  0.00    +0.000 C 
BRANCH   2   8
ATOM      8  C   UNL     1      -1.233  12.770  20.791  0.00  0.00    +0.000 C 
BRANCH   8   9
ATOM      9  C   UNL     1      -2.468  12.953  19.954  0.00  0.00    +0.000 C 
ATOM     10  C   UNL     1      -3.696  12.714  20.442  0.00  0.00    +0.000 C 
BRANCH  10  11
ATOM     11  C   UNL     1      -4.937  12.596  19.654  0.00  0.00    +0.000 A 
ATOM     12  C   UNL     1      -4.892  11.837  18.476  0.00  0.00    +0.000 A 
ATOM     13  C   UNL     1      -6.010  11.729  17.642  0.00  0.00    +0.000 A 
ATOM     14  C   UNL     1      -7.196  12.368  17.992  0.00  0.00    +0.000 A 
ATOM     15  C   UNL     1      -7.269  13.099  19.175  0.00  0.00    +0.000 A 
ATOM     16  C   UNL     1      -6.147  13.214  20.002  0.00  0.00    +0.000 A 
ENDBRANCH  10  11
ENDBRANCH   8   9
ENDBRANCH   2   8
ENDBRANCH   1   5
BRANCH   1  17
ATOM     17  C   UNL     1       1.971   8.156  17.971  0.00  0.00    +0.000 C 
BRANCH  17  18
ATOM     18  C   UNL     1       2.612   7.049  18.822  0.00  0.00    +0.000 C 
BRANCH  18  19
ATOM     19  N   UNL     1       3.267   6.093  17.905  0.00  0.00    +0.000 N 
ATOM     20  C   UNL     1       4.631   6.106  17.661  0.00  0.00    +0.000 A 
ATOM     21  C   UNL     1       5.513   7.154  17.364  0.00  0.00    +0.000 A 
ATOM     22  C   UNL     1       6.876   6.847  17.264  0.00  0.00    +0.000 A 
ATOM     23  C   UNL     1       7.340   5.554  17.499  0.00  0.00    +0.000 A 
ATOM     24  C   UNL     1       6.454   4.533  17.859  0.00  0.00    +0.000 A 
ATOM     25  C   UNL     1       5.073   4.804  17.928  0.00  0.00    +0.000 A 
ATOM     26  C   UNL     1       3.919   4.029  18.269  0.00  0.00    +0.000 A 
ATOM     27  C   UNL     1       3.685   2.778  18.867  0.00  0.00    +0.000 A 
ATOM     28  C   UNL     1       2.368   2.307  18.964  0.00  0.00    +0.000 A 
ATOM     29  C   UNL     1       1.310   3.010  18.388  0.00  0.00    +0.000 A 
ATOM     30  C   UNL     1       1.510   4.272  17.831  0.00  0.00    +0.000 A 
ATOM     31  C   UNL     1       2.812   4.781  17.880  0.00  0.00    +0.000 A 
ENDBRANCH  18  19
ENDBRANCH  17  18
ENDBRANCH   1  17
TORSDOF 7
ENDMDL
