MODEL 1
REMARK VINA RESULT:      -7.7      0.000      0.000
REMARK  Name = 
REMARK  4 active torsions:
REMARK  status: ('A' for Active; 'I' for Inactive)
REMARK    1  A    between atoms: C_2  and  C_18
REMARK    2  A    between atoms: N_3  and  C_4
REMARK    3  A    between atoms: C_7  and  N_8
REMARK    4  A    between atoms: N_9  and  C_10
REMARK                            x       y       z     vdW  Elec       q    Type
REMARK                         _______ _______ _______ _____ _____    ______ ____
ROOT
ATOM      1  C   UNL     1       7.824   8.393  17.795  0.00  0.00    +0.000 A 
ATOM      2  C   UNL     1       6.561   8.253  17.219  0.00  0.00    +0.000 A 
ATOM      3  C   UNL     1       5.819   7.081  17.398  0.00  0.00    +0.000 A 
ATOM      4  C   UNL     1       6.322   6.015  18.145  0.00  0.00    +0.000 A 
ATOM      5  C   UNL     1       7.591   6.156  18.724  0.00  0.00    +0.000 A 
ATOM      6  C   UNL     1       8.342   7.328  18.538  0.00  0.00    +0.000 A 
ENDROOT
BRANCH   1   9
ATOM      7  O   UNL     1       9.002  10.074  19.898  0.00  0.00    +0.000 OA
ATOM      8  C   UNL     1       9.103  10.324  18.702  0.00  0.00    +0.000 C 
ATOM      9  N   UNL     1       8.611   9.560  17.656  0.00  0.00    +0.000 N 
ATOM     10  H   UNL     1       8.935   9.776  16.722  0.00  0.00    +0.000 HD
BRANCH   8  11
ATOM     11  C   UNL     1       9.886  11.532  18.326  0.00  0.00    +0.000 A 
ATOM     12  C   UNL     1      11.234  11.462  17.948  0.00  0.00    +0.000 A 
ATOM     13  C   UNL     1      11.899  12.624  17.544  0.00  0.00    +0.000 A 
ATOM     14  C   UNL     1      11.224  13.845  17.514  0.00  0.00    +0.000 A 
ATOM     15  C   UNL     1       9.881  13.907  17.886  0.00  0.00    +0.000 A 
ATOM     16 CL   UNL     1       9.046  15.409  17.834  0.00  0.00    +0.000 Cl
ATOM     17  C   UNL     1       9.209  12.758  18.287  0.00  0.00    +0.000 A 
ENDBRANCH   8  11
ENDBRANCH   1   9
BRANCH   4  18
ATOM     18  N   UNL     1       5.505   4.874  18.271  0.00  0.00    +0.000 NA
ATOM     19  N   UNL     1       4.448   4.964  17.619  0.00  0.00    +0.000 NA
BRANCH  19  20
ATOM     20  C   UNL     1       3.533   3.932  17.923  0.00  0.00    +0.000 A 
ATOM     21  C   UNL     1       2.212   4.306  18.194  0.00  0.00    +0.000 A 
ATOM     22  C   UNL     1       1.245   3.355  18.528  0.00  0.00    +0.000 A 
ATOM     23  C   UNL     1       1.589   2.008  18.586  0.00  0.00    +0.000 A 
ATOM     24  C   UNL     1       2.894   1.611  18.301  0.00  0.00    +0.000 A 
ATOM     25  C   UNL     1       3.859   2.567  17.963  0.00  0.00    +0.000 A 
ENDBRANCH  19  20
ENDBRANCH   4  18
TORSDOF 4
ENDMDL
MODEL 2
REMARK VINA RESULT:      -7.5      7.658      9.311
REMARK  Name = 
REMARK  4 active torsions:
REMARK  status: ('A' for Active; 'I' for Inactive)
REMARK    1  A    between atoms: C_2  and  C_18
REMARK    2  A    between atoms: N_3  and  C_4
REMARK    3  A    between atoms: C_7  and  N_8
REMARK    4  A    between atoms: N_9  and  C_10
REMARK                            x       y       z     vdW  Elec       q    Type
REMARK                         _______ _______ _______ _____ _____    ______ ____
ROOT
ATOM      1  C   UNL     1       0.125  10.061  20.428  0.00  0.00    +0.000 A 
ATOM      2  C   UNL     1       0.857   8.964  20.885  0.00  0.00    +0.000 A 
ATOM      3  C   UNL     1       1.690   8.249  20.019  0.00  0.00    +0.000 A 
ATOM      4  C   UNL     1       1.806   8.602  18.673  0.00  0.00    +0.000 A 
ATOM      5  C   UNL     1       1.071   9.704  18.215  0.00  0.00    +0.000 A 
ATOM      6  C   UNL     1       0.226  10.418  19.080  0.00  0.00    +0.000 A 
ENDROOT
BRANCH   1   9
ATOM      7  O   UNL     1       0.675  12.632  21.741  0.00  0.00    +0.000 OA
ATOM      8  C   UNL     1      -0.377  12.018  21.879  0.00  0.00    +0.000 C 
ATOM      9  N   UNL     1      -0.723  10.825  21.264  0.00  0.00    +0.000 N 
ATOM     10  H   UNL     1      -1.690  10.534  21.310  0.00  0.00    +0.000 HD
BRANCH   8  11
ATOM     11  C   UNL     1      -1.418  12.641  22.741  0.00  0.00    +0.000 A 
ATOM     12  C   UNL     1      -2.613  11.985  23.063  0.00  0.00    +0.000 A 
ATOM     13  C   UNL     1      -3.525  12.597  23.930  0.00  0.00    +0.000 A 
ATOM     14  C   UNL     1      -3.244  13.853  24.472  0.00  0.00    +0.000 A 
ATOM     15  C   UNL     1      -2.050  14.498  24.151  0.00  0.00    +0.000 A 
ATOM     16 CL   UNL     1      -1.698  16.037  24.832  0.00  0.00    +0.000 Cl
ATOM     17  C   UNL     1      -1.135  13.898  23.293  0.00  0.00    +0.000 A 
ENDBRANCH   8  11
ENDBRANCH   1   9
BRANCH   4  18
ATOM     18  N   UNL     1       2.669   7.825  17.875  0.00  0.00    +0.000 NA
ATOM     19  N   UNL     1       2.637   6.615  18.168  0.00  0.00    +0.000 NA
BRANCH  19  20
ATOM     20  C   UNL     1       3.658   5.875  17.533  0.00  0.00    +0.000 A 
ATOM     21  C   UNL     1       3.578   4.480  17.605  0.00  0.00    +0.000 A 
ATOM     22  C   UNL     1       4.558   3.669  17.026  0.00  0.00    +0.000 A 
ATOM     23  C   UNL     1       5.631   4.249  16.356  0.00  0.00    +0.000 A 
ATOM     24  C   UNL     1       5.719   5.636  16.255  0.00  0.00    +0.000 A 
ATOM     25  C   UNL     1       4.734   6.445  16.833  0.00  0.00    +0.000 A 
ENDBRANCH  19  20
ENDBRANCH   4  18
TORSDOF 4
ENDMDL
MODEL 3
REMARK VINA RESULT:      -7.5      1.012      1.016
REMARK  Name = 
REMARK  4 active torsions:
REMARK  status: ('A' for Active; 'I' for Inactive)
REMARK    1  A    between atoms: C_2  and  C_18
REMARK    2  A    between atoms: N_3  and  C_4
REMARK    3  A    between atoms: C_7  and  N_8
REMARK    4  A    between atoms: N_9  and  C_10
REMARK                            x       y       z     vdW  Elec       q    Type
REMARK                         _______ _______ _______ _____ _____    ______ ____
ROOT
ATOM      1  C   UNL     1       8.067   8.398  17.964  0.00  0.00    +0.000 A 
ATOM      2  C   UNL     1       6.890   8.324  17.216  0.00  0.00    +0.000 A 
ATOM      3  C   UNL     1       6.092   7.177  17.251  0.00  0.00    +0.000 A 
ATOM      4  C   UNL     1       6.450   6.070  18.022  0.00  0.00    +0.000 A 
ATOM      5  C   UNL     1       7.632   6.145  18.773  0.00  0.00    +0.000 A 
ATOM      6  C   UNL     1       8.441   7.292  18.733  0.00  0.00    +0.000 A 
ENDROOT
BRANCH   1   9
ATOM      7  O   UNL     1       8.915  10.031  20.256  0.00  0.00    +0.000 OA
ATOM      8  C   UNL     1       9.231  10.281  19.098  0.00  0.00    +0.000 C 
ATOM      9  N   UNL     1       8.904   9.538  17.975  0.00  0.00    +0.000 N 
ATOM     10  H   UNL     1       9.393   9.745  17.114  0.00  0.00    +0.000 HD
BRANCH   8  11
ATOM     11  C   UNL     1      10.109  11.462  18.875  0.00  0.00    +0.000 A 
ATOM     12  C   UNL     1      10.840  11.638  17.693  0.00  0.00    +0.000 A 
ATOM     13  C   UNL     1      11.598  12.800  17.516  0.00  0.00    +0.000 A 
ATOM     14  C   UNL     1      11.622  13.781  18.510  0.00  0.00    +0.000 A 
ATOM     15  C   UNL     1      10.887  13.602  19.682  0.00  0.00    +0.000 A 
ATOM     16 CL   UNL     1      10.906  14.816  20.899  0.00  0.00    +0.000 Cl
ATOM     17  C   UNL     1      10.129  12.451  19.868  0.00  0.00    +0.000 A 
ENDBRANCH   8  11
ENDBRANCH   1   9
BRANCH   4  18
ATOM     18  N   UNL     1       5.586   4.958  17.995  0.00  0.00    +0.000 NA
ATOM     19  N   UNL     1       4.384   5.283  17.948  0.00  0.00    +0.000 NA
BRANCH  19  20
ATOM     20  C   UNL     1       3.517   4.188  18.152  0.00  0.00    +0.000 A 
ATOM     21  C   UNL     1       2.142   4.439  18.088  0.00  0.00    +0.000 A 
ATOM     22  C   UNL     1       1.210   3.420  18.301  0.00  0.00    +0.000 A 
ATOM     23  C   UNL     1       1.648   2.126  18.573  0.00  0.00    +0.000 A 
ATOM     24  C   UNL     1       3.012   1.850  18.620  0.00  0.00    +0.000 A 
ATOM     25  C   UNL     1       3.942   2.873  18.403  0.00  0.00    +0.000 A 
ENDBRANCH  19  20
ENDBRANCH   4  18
TORSDOF 4
ENDMDL
MODEL 4
REMARK VINA RESULT:      -7.5      6.963      8.678
REMARK  Name = 
REMARK  4 active torsions:
REMARK  status: ('A' for Active; 'I' for Inactive)
REMARK    1  A    between atoms: C_2  and  C_18
REMARK    2  A    between atoms: N_3  and  C_4
REMARK    3  A    between atoms: C_7  and  N_8
REMARK    4  A    between atoms: N_9  and  C_10
REMARK                            x       y       z     vdW  Elec       q    Type
REMARK                         _______ _______ _______ _____ _____    ______ ____
ROOT
ATOM      1  C   UNL     1       0.760   9.446  20.047  0.00  0.00    +0.000 A 
ATOM      2  C   UNL     1       1.057   9.677  18.702  0.00  0.00    +0.000 A 
ATOM      3  C   UNL     1       1.879   8.799  17.990  0.00  0.00    +0.000 A 
ATOM      4  C   UNL     1       2.436   7.675  18.602  0.00  0.00    +0.000 A 
ATOM      5  C   UNL     1       2.138   7.443  19.952  0.00  0.00    +0.000 A 
ATOM      6  C   UNL     1       1.320   8.329  20.672  0.00  0.00    +0.000 A 
ENDROOT
BRANCH   1   9
ATOM      7  O   UNL     1       1.393  12.059  21.236  0.00  0.00    +0.000 OA
ATOM      8  C   UNL     1       0.308  11.504  21.370  0.00  0.00    +0.000 C 
ATOM      9  N   UNL     1      -0.076  10.296  20.809  0.00  0.00    +0.000 N 
ATOM     10  H   UNL     1      -1.057  10.054  20.837  0.00  0.00    +0.000 HD
BRANCH   8  11
ATOM     11  C   UNL     1      -0.729  12.223  22.160  0.00  0.00    +0.000 A 
ATOM     12  C   UNL     1      -1.887  11.588  22.626  0.00  0.00    +0.000 A 
ATOM     13  C   UNL     1      -2.795  12.301  23.417  0.00  0.00    +0.000 A 
ATOM     14  C   UNL     1      -2.545  13.636  23.742  0.00  0.00    +0.000 A 
ATOM     15  C   UNL     1      -1.386  14.260  23.279  0.00  0.00    +0.000 A 
ATOM     16 CL   UNL     1      -1.072  15.899  23.693  0.00  0.00    +0.000 Cl
ATOM     17  C   UNL     1      -0.477  13.560  22.494  0.00  0.00    +0.000 A 
ENDBRANCH   8  11
ENDBRANCH   1   9
BRANCH   4  18
ATOM     18  N   UNL     1       3.253   6.847  17.807  0.00  0.00    +0.000 NA
ATOM     19  N   UNL     1       4.096   6.219  18.475  0.00  0.00    +0.000 NA
BRANCH  19  20
ATOM     20  C   UNL     1       5.056   5.571  17.667  0.00  0.00    +0.000 A 
ATOM     21  C   UNL     1       6.316   5.337  18.231  0.00  0.00    +0.000 A 
ATOM     22  C   UNL     1       7.334   4.724  17.497  0.00  0.00    +0.000 A 
ATOM     23  C   UNL     1       7.099   4.327  16.183  0.00  0.00    +0.000 A 
ATOM     24  C   UNL     1       5.846   4.532  15.609  0.00  0.00    +0.000 A 
ATOM     25  C   UNL     1       4.828   5.144  16.349  0.00  0.00    +0.000 A 
ENDBRANCH  19  20
ENDBRANCH   4  18
TORSDOF 4
ENDMDL
MODEL 5
REMARK VINA RESULT:      -7.5      8.141      9.609
REMARK  Name = 
REMARK  4 active torsions:
REMARK  status: ('A' for Active; 'I' for Inactive)
REMARK    1  A    between atoms: C_2  and  C_18
REMARK    2  A    between atoms: N_3  and  C_4
REMARK    3  A    between atoms: C_7  and  N_8
REMARK    4  A    between atoms: N_9  and  C_10
REMARK                            x       y       z     vdW  Elec       q    Type
REMARK                         _______ _______ _______ _____ _____    ______ ____
ROOT
ATOM      1  C   UNL     1      -0.015  10.360  20.691  0.00  0.00    +0.000 A 
ATOM      2  C   UNL     1       0.702   9.240  21.112  0.00  0.00    +0.000 A 
ATOM      3  C   UNL     1       1.441   8.479  20.201  0.00  0.00    +0.000 A 
ATOM      4  C   UNL     1       1.474   8.809  18.845  0.00  0.00    +0.000 A 
ATOM      5  C   UNL     1       0.754   9.935  18.423  0.00  0.00    +0.000 A 
ATOM      6  C   UNL     1       0.003  10.695  19.334  0.00  0.00    +0.000 A 
ENDROOT
BRANCH   1   9
ATOM      7  O   UNL     1       0.636  13.027  21.742  0.00  0.00    +0.000 OA
ATOM      8  C   UNL     1      -0.376  12.410  22.055  0.00  0.00    +0.000 C 
ATOM      9  N   UNL     1      -0.768  11.171  21.573  0.00  0.00    +0.000 N 
ATOM     10  H   UNL     1      -1.715  10.870  21.762  0.00  0.00    +0.000 HD
BRANCH   8  11
ATOM     11  C   UNL     1      -1.314  13.078  22.997  0.00  0.00    +0.000 A 
ATOM     12  C   UNL     1      -1.075  14.362  23.504  0.00  0.00    +0.000 A 
ATOM     13  C   UNL     1      -2.025  14.963  24.337  0.00  0.00    +0.000 A 
ATOM     14  C   UNL     1      -3.206  14.290  24.656  0.00  0.00    +0.000 A 
ATOM     15  C   UNL     1      -3.440  13.014  24.142  0.00  0.00    +0.000 A 
ATOM     16 CL   UNL     1      -4.900  12.191  24.523  0.00  0.00    +0.000 Cl
ATOM     17  C   UNL     1      -2.503  12.407  23.312  0.00  0.00    +0.000 A 
ENDBRANCH   8  11
ENDBRANCH   1   9
BRANCH   4  18
ATOM     18  N   UNL     1       2.244   7.986  18.000  0.00  0.00    +0.000 NA
ATOM     19  N   UNL     1       2.477   6.868  18.498  0.00  0.00    +0.000 NA
BRANCH  19  20
ATOM     20  C   UNL     1       3.431   6.134  17.760  0.00  0.00    +0.000 A 
ATOM     21  C   UNL     1       4.464   6.855  17.151  0.00  0.00    +0.000 A 
ATOM     22  C   UNL     1       5.438   6.214  16.382  0.00  0.00    +0.000 A 
ATOM     23  C   UNL     1       5.394   4.832  16.220  0.00  0.00    +0.000 A 
ATOM     24  C   UNL     1       4.387   4.092  16.833  0.00  0.00    +0.000 A 
ATOM     25  C   UNL     1       3.414   4.738  17.606  0.00  0.00    +0.000 A 
ENDBRANCH  19  20
ENDBRANCH   4  18
TORSDOF 4
ENDMDL
MODEL 6
REMARK VINA RESULT:      -7.5      7.453      9.065
REMARK  Name = 
REMARK  4 active torsions:
REMARK  status: ('A' for Active; 'I' for Inactive)
REMARK    1  A    between atoms: C_2  and  C_18
REMARK    2  A    between atoms: N_3  and  C_4
REMARK    3  A    between atoms: C_7  and  N_8
REMARK    4  A    between atoms: N_9  and  C_10
REMARK                            x       y       z     vdW  Elec       q    Type
REMARK                         _______ _______ _______ _____ _____    ______ ____
ROOT
ATOM      1  C   UNL     1       0.447   9.652  20.063  0.00  0.00    +0.000 A 
ATOM      2  C   UNL     1       0.916   9.679  18.749  0.00  0.00    +0.000 A 
ATOM      3  C   UNL     1       1.776   8.683  18.276  0.00  0.00    +0.000 A 
ATOM      4  C   UNL     1       2.201   7.643  19.104  0.00  0.00    +0.000 A 
ATOM      5  C   UNL     1       1.729   7.616  20.423  0.00  0.00    +0.000 A 
ATOM      6  C   UNL     1       0.872   8.619  20.904  0.00  0.00    +0.000 A 
ENDROOT
BRANCH   1   9
ATOM      7  O   UNL     1       1.089  12.056  21.627  0.00  0.00    +0.000 OA
ATOM      8  C   UNL     1      -0.057  11.720  21.351  0.00  0.00    +0.000 C 
ATOM      9  N   UNL     1      -0.434  10.626  20.588  0.00  0.00    +0.000 N 
ATOM     10  H   UNL     1      -1.395  10.579  20.274  0.00  0.00    +0.000 HD
BRANCH   8  11
ATOM     11  C   UNL     1      -1.156  12.605  21.824  0.00  0.00    +0.000 A 
ATOM     12  C   UNL     1      -1.436  13.838  21.221  0.00  0.00    +0.000 A 
ATOM     13  C   UNL     1      -2.522  14.596  21.670  0.00  0.00    +0.000 A 
ATOM     14  C   UNL     1      -3.325  14.125  22.711  0.00  0.00    +0.000 A 
ATOM     15  C   UNL     1      -3.044  12.894  23.303  0.00  0.00    +0.000 A 
ATOM     16 CL   UNL     1      -4.042  12.307  24.574  0.00  0.00    +0.000 Cl
ATOM     17  C   UNL     1      -1.968  12.130  22.863  0.00  0.00    +0.000 A 
ENDBRANCH   8  11
ENDBRANCH   1   9
BRANCH   4  18
ATOM     18  N   UNL     1       3.068   6.685  18.542  0.00  0.00    +0.000 NA
ATOM     19  N   UNL     1       3.748   7.143  17.604  0.00  0.00    +0.000 NA
BRANCH  19  20
ATOM     20  C   UNL     1       4.443   6.137  16.897  0.00  0.00    +0.000 A 
ATOM     21  C   UNL     1       4.291   4.819  17.342  0.00  0.00    +0.000 A 
ATOM     22  C   UNL     1       4.960   3.763  16.718  0.00  0.00    +0.000 A 
ATOM     23  C   UNL     1       5.787   4.015  15.628  0.00  0.00    +0.000 A 
ATOM     24  C   UNL     1       5.937   5.317  15.155  0.00  0.00    +0.000 A 
ATOM     25  C   UNL     1       5.263   6.371  15.781  0.00  0.00    +0.000 A 
ENDBRANCH  19  20
ENDBRANCH   4  18
TORSDOF 4
ENDMDL
MODEL 7
REMARK VINA RESULT:      -7.5      8.140     10.458
REMARK  Name = 
REMARK  4 active torsions:
REMARK  status: ('A' for Active; 'I' for Inactive)
REMARK    1  A    between atoms: C_2  and  C_18
REMARK    2  A    between atoms: N_3  and  C_4
REMARK    3  A    between atoms: C_7  and  N_8
REMARK    4  A    between atoms: N_9  and  C_10
REMARK                            x       y       z     vdW  Elec       q    Type
REMARK                         _______ _______ _______ _____ _____    ______ ____
ROOT
ATOM      1  C   UNL     1       1.462   8.385  20.247  0.00  0.00    +0.000 A 
ATOM      2  C   UNL     1       0.865   9.460  19.588  0.00  0.00    +0.000 A 
ATOM      3  C   UNL     1       0.280  10.506  20.309  0.00  0.00    +0.000 A 
ATOM      4  C   UNL     1       0.265  10.501  21.704  0.00  0.00    +0.000 A 
ATOM      5  C   UNL     1       0.866   9.421  22.366  0.00  0.00    +0.000 A 
ATOM      6  C   UNL     1       1.445   8.365  21.645  0.00  0.00    +0.000 A 
ENDROOT
BRANCH   1   9
ATOM      7  O   UNL     1       2.893   8.413  17.680  0.00  0.00    +0.000 OA
ATOM      8  C   UNL     1       2.707   7.393  18.335  0.00  0.00    +0.000 C 
ATOM      9  N   UNL     1       2.078   7.308  19.567  0.00  0.00    +0.000 N 
ATOM     10  H   UNL     1       2.168   6.443  20.083  0.00  0.00    +0.000 HD
BRANCH   8  11
ATOM     11  C   UNL     1       3.264   6.126  17.790  0.00  0.00    +0.000 A 
ATOM     12  C   UNL     1       4.504   6.073  17.141  0.00  0.00    +0.000 A 
ATOM     13  C   UNL     1       5.004   4.841  16.706  0.00  0.00    +0.000 A 
ATOM     14  C   UNL     1       4.273   3.671  16.921  0.00  0.00    +0.000 A 
ATOM     15  C   UNL     1       3.041   3.731  17.572  0.00  0.00    +0.000 A 
ATOM     16 CL   UNL     1       2.148   2.288  17.850  0.00  0.00    +0.000 Cl
ATOM     17  C   UNL     1       2.535   4.950  18.011  0.00  0.00    +0.000 A 
ENDBRANCH   8  11
ENDBRANCH   1   9
BRANCH   4  18
ATOM     18  N   UNL     1      -0.346  11.596  22.346  0.00  0.00    +0.000 NA
ATOM     19  N   UNL     1      -1.391  11.280  22.947  0.00  0.00    +0.000 NA
BRANCH  19  20
ATOM     20  C   UNL     1      -2.121  12.403  23.393  0.00  0.00    +0.000 A 
ATOM     21  C   UNL     1      -1.442  13.625  23.455  0.00  0.00    +0.000 A 
ATOM     22  C   UNL     1      -2.078  14.783  23.908  0.00  0.00    +0.000 A 
ATOM     23  C   UNL     1      -3.414  14.733  24.297  0.00  0.00    +0.000 A 
ATOM     24  C   UNL     1      -4.115  13.532  24.224  0.00  0.00    +0.000 A 
ATOM     25  C   UNL     1      -3.474  12.374  23.767  0.00  0.00    +0.000 A 
ENDBRANCH  19  20
ENDBRANCH   4  18
TORSDOF 4
ENDMDL
MODEL 8
REMARK VINA RESULT:      -7.5      0.305      1.024
REMARK  Name = 
REMARK  4 active torsions:
REMARK  status: ('A' for Active; 'I' for Inactive)
REMARK    1  A    between atoms: C_2  and  C_18
REMARK    2  A    between atoms: N_3  and  C_4
REMARK    3  A    between atoms: C_7  and  N_8
REMARK    4  A    between atoms: N_9  and  C_10
REMARK                            x       y       z     vdW  Elec       q    Type
REMARK                         _______ _______ _______ _____ _____    ______ ____
ROOT
ATOM      1  C   UNL     1       7.948   8.412  17.850  0.00  0.00    +0.000 A 
ATOM      2  C   UNL     1       8.337   7.289  18.582  0.00  0.00    +0.000 A 
ATOM      3  C   UNL     1       7.516   6.160  18.650  0.00  0.00    +0.000 A 
ATOM      4  C   UNL     1       6.281   6.125  18.001  0.00  0.00    +0.000 A 
ATOM      5  C   UNL     1       5.890   7.253  17.265  0.00  0.00    +0.000 A 
ATOM      6  C   UNL     1       6.709   8.392  17.203  0.00  0.00    +0.000 A 
ENDROOT
BRANCH   1   9
ATOM      7  O   UNL     1       8.960  10.157  19.988  0.00  0.00    +0.000 OA
ATOM      8  C   UNL     1       9.156  10.370  18.797  0.00  0.00    +0.000 C 
ATOM      9  N   UNL     1       8.746   9.575  17.738  0.00  0.00    +0.000 N 
ATOM     10  H   UNL     1       9.144   9.762  16.827  0.00  0.00    +0.000 HD
BRANCH   8  11
ATOM     11  C   UNL     1       9.970  11.565  18.447  0.00  0.00    +0.000 A 
ATOM     12  C   UNL     1      11.315  11.470  18.068  0.00  0.00    +0.000 A 
ATOM     13  C   UNL     1      12.011  12.623  17.690  0.00  0.00    +0.000 A 
ATOM     14  C   UNL     1      11.366  13.862  17.686  0.00  0.00    +0.000 A 
ATOM     15  C   UNL     1      10.025  13.949  18.059  0.00  0.00    +0.000 A 
ATOM     16 CL   UNL     1       9.228  15.473  18.039  0.00  0.00    +0.000 Cl
ATOM     17  C   UNL     1       9.323  12.809  18.435  0.00  0.00    +0.000 A 
ENDBRANCH   8  11
ENDBRANCH   1   9
BRANCH   4  18
ATOM     18  N   UNL     1       5.520   4.946  18.125  0.00  0.00    +0.000 NA
ATOM     19  N   UNL     1       4.316   5.118  17.853  0.00  0.00    +0.000 NA
BRANCH  19  20
ATOM     20  C   UNL     1       3.517   4.006  18.195  0.00  0.00    +0.000 A 
ATOM     21  C   UNL     1       2.135   4.131  18.018  0.00  0.00    +0.000 A 
ATOM     22  C   UNL     1       1.266   3.090  18.353  0.00  0.00    +0.000 A 
ATOM     23  C   UNL     1       1.775   1.899  18.864  0.00  0.00    +0.000 A 
ATOM     24  C   UNL     1       3.150   1.746  19.029  0.00  0.00    +0.000 A 
ATOM     25  C   UNL     1       4.017   2.790  18.689  0.00  0.00    +0.000 A 
ENDBRANCH  19  20
ENDBRANCH   4  18
TORSDOF 4
ENDMDL
MODEL 9
REMARK VINA RESULT:      -7.4      7.509      9.280
REMARK  Name = 
REMARK  4 active torsions:
REMARK  status: ('A' for Active; 'I' for Inactive)
REMARK    1  A    between atoms: C_2  and  C_18
REMARK    2  A    between atoms: N_3  and  C_4
REMARK    3  A    between atoms: C_7  and  N_8
REMARK    4  A    between atoms: N_9  and  C_10
REMARK                            x       y       z     vdW  Elec       q    Type
REMARK                         _______ _______ _______ _____ _____    ______ ____
ROOT
ATOM      1  C   UNL     1       0.302   9.629  20.066  0.00  0.00    +0.000 A 
ATOM      2  C   UNL     1       0.851   9.674  18.783  0.00  0.00    +0.000 A 
ATOM      3  C   UNL     1       1.790   8.723  18.374  0.00  0.00    +0.000 A 
ATOM      4  C   UNL     1       2.216   7.711  19.235  0.00  0.00    +0.000 A 
ATOM      5  C   UNL     1       1.664   7.666  20.523  0.00  0.00    +0.000 A 
ATOM      6  C   UNL     1       0.728   8.625  20.941  0.00  0.00    +0.000 A 
ENDROOT
BRANCH   1   9
ATOM      7  O   UNL     1       0.700  11.993  21.768  0.00  0.00    +0.000 OA
ATOM      8  C   UNL     1      -0.400  11.634  21.361  0.00  0.00    +0.000 C 
ATOM      9  N   UNL     1      -0.660  10.558  20.527  0.00  0.00    +0.000 N 
ATOM     10  H   UNL     1      -1.580  10.496  20.112  0.00  0.00    +0.000 HD
BRANCH   8  11
ATOM     11  C   UNL     1      -1.570  12.469  21.744  0.00  0.00    +0.000 A 
ATOM     12  C   UNL     1      -2.018  13.537  20.955  0.00  0.00    +0.000 A 
ATOM     13  C   UNL     1      -3.162  14.246  21.336  0.00  0.00    +0.000 A 
ATOM     14  C   UNL     1      -3.856  13.889  22.494  0.00  0.00    +0.000 A 
ATOM     15  C   UNL     1      -3.408  12.822  23.272  0.00  0.00    +0.000 A 
ATOM     16 CL   UNL     1      -4.271  12.374  24.690  0.00  0.00    +0.000 Cl
ATOM     17  C   UNL     1      -2.272  12.109  22.902  0.00  0.00    +0.000 A 
ENDBRANCH   8  11
ENDBRANCH   1   9
BRANCH   4  18
ATOM     18  N   UNL     1       3.166   6.797  18.737  0.00  0.00    +0.000 NA
ATOM     19  N   UNL     1       3.613   7.127  17.621  0.00  0.00    +0.000 NA
BRANCH  19  20
ATOM     20  C   UNL     1       4.384   6.107  17.023  0.00  0.00    +0.000 A 
ATOM     21  C   UNL     1       5.088   6.436  15.858  0.00  0.00    +0.000 A 
ATOM     22  C   UNL     1       5.857   5.484  15.185  0.00  0.00    +0.000 A 
ATOM     23  C   UNL     1       5.939   4.185  15.679  0.00  0.00    +0.000 A 
ATOM     24  C   UNL     1       5.263   3.841  16.847  0.00  0.00    +0.000 A 
ATOM     25  C   UNL     1       4.496   4.799  17.520  0.00  0.00    +0.000 A 
ENDBRANCH  19  20
ENDBRANCH   4  18
TORSDOF 4
ENDMDL
