MODEL 1
REMARK VINA RESULT:      -7.7      0.000      0.000
REMARK  Name = 
REMARK  7 active torsions:
REMARK  status: ('A' for Active; 'I' for Inactive)
REMARK    1  A    between atoms: C_1  and  N_2
REMARK    2  A    between atoms: N_2  and  S_3
REMARK    3  A    between atoms: S_3  and  C_6
REMARK    4  A    between atoms: C_6  and  C_7
REMARK    5  A    between atoms: C_10  and  N_11
REMARK    6  A    between atoms: N_11  and  C_12
REMARK    7  A    between atoms: N_11  and  C_13
REMARK                            x       y       z     vdW  Elec       q    Type
REMARK                         _______ _______ _______ _____ _____    ______ ____
ROOT
ATOM      1  C   UNL     1       1.816   8.032  20.054  0.00  0.00    +0.000 C 
ATOM      2  C   UNL     1       1.413   6.650  20.585  0.00  0.00    +0.000 C 
ATOM      3  C   UNL     1       2.422   5.562  20.226  0.00  0.00    +0.000 C 
ATOM      4  C   UNL     1       2.669   5.484  18.714  0.00  0.00    +0.000 C 
ATOM      5  C   UNL     1       3.098   6.861  18.181  0.00  0.00    +0.000 C 
ATOM      6  C   UNL     1       2.088   7.955  18.539  0.00  0.00    +0.000 C 
ENDROOT
BRANCH   4   7
ATOM      7  N   UNL     1       3.633   4.386  18.408  0.00  0.00    +0.000 N 
ATOM      8  C   UNL     1       3.059   3.124  17.922  0.00  0.00    +0.000 C 
BRANCH   7   9
ATOM      9  C   UNL     1       4.978   4.708  18.143  0.00  0.00    +0.000 A 
ATOM     10  N   UNL     1       5.786   5.160  19.171  0.00  0.00    +0.000 N 
ATOM     11  C   UNL     1       7.113   5.441  18.998  0.00  0.00    +0.000 A 
ATOM     12  N   UNL     1       7.768   5.381  17.887  0.00  0.00    +0.000 NA
ATOM     13  C   UNL     1       7.021   4.988  16.814  0.00  0.00    +0.000 A 
ATOM     14  N   UNL     1       7.459   4.869  15.589  0.00  0.00    +0.000 NA
ATOM     15  C   UNL     1       6.341   4.457  14.876  0.00  0.00    +0.000 A 
ATOM     16  C   UNL     1       5.215   4.309  15.600  0.00  0.00    +0.000 A 
ATOM     17  C   UNL     1       5.583   4.635  16.944  0.00  0.00    +0.000 A 
ATOM     18  H   UNL     1       5.390   5.094  20.097  0.00  0.00    +0.000 HD
ENDBRANCH   7   9
ENDBRANCH   4   7
BRANCH   1  19
ATOM     19  C   UNL     1       0.742   9.102  20.332  0.00  0.00    +0.000 C 
BRANCH  19  20
ATOM     20  S   UNL     1       0.608   9.550  22.064  0.00  0.00    +0.000 S 
ATOM     21  O   UNL     1       1.891   9.345  22.696  0.00  0.00    +0.000 OA
ATOM     22  O   UNL     1      -0.617   9.013  22.617  0.00  0.00    +0.000 OA
BRANCH  20  24
ATOM     23  C   UNL     1      -0.964  11.679  22.319  0.00  0.00    +0.000 C 
ATOM     24  N   UNL     1       0.398  11.231  21.958  0.00  0.00    +0.000 NA
ATOM     25  H   UNL     1       1.098  11.726  22.511  0.00  0.00    +0.000 HD
ENDBRANCH  20  24
ENDBRANCH  19  20
ENDBRANCH   1  19
TORSDOF 5
ENDMDL
MODEL 2
REMARK VINA RESULT:      -7.4      0.783      1.853
REMARK  Name = 
REMARK  7 active torsions:
REMARK  status: ('A' for Active; 'I' for Inactive)
REMARK    1  A    between atoms: C_1  and  N_2
REMARK    2  A    between atoms: N_2  and  S_3
REMARK    3  A    between atoms: S_3  and  C_6
REMARK    4  A    between atoms: C_6  and  C_7
REMARK    5  A    between atoms: C_10  and  N_11
REMARK    6  A    between atoms: N_11  and  C_12
REMARK    7  A    between atoms: N_11  and  C_13
REMARK                            x       y       z     vdW  Elec       q    Type
REMARK                         _______ _______ _______ _____ _____    ______ ____
ROOT
ATOM      1  C   UNL     1       1.865   7.989  20.115  0.00  0.00    +0.000 C 
ATOM      2  C   UNL     1       1.327   6.658  20.657  0.00  0.00    +0.000 C 
ATOM      3  C   UNL     1       2.244   5.479  20.345  0.00  0.00    +0.000 C 
ATOM      4  C   UNL     1       2.524   5.350  18.843  0.00  0.00    +0.000 C 
ATOM      5  C   UNL     1       3.089   6.673  18.299  0.00  0.00    +0.000 C 
ATOM      6  C   UNL     1       2.170   7.859  18.609  0.00  0.00    +0.000 C 
ENDROOT
BRANCH   4   7
ATOM      7  N   UNL     1       3.395   4.165  18.582  0.00  0.00    +0.000 N 
ATOM      8  C   UNL     1       2.781   2.844  18.772  0.00  0.00    +0.000 C 
BRANCH   7   9
ATOM      9  C   UNL     1       4.530   4.315  17.762  0.00  0.00    +0.000 A 
ATOM     10  N   UNL     1       4.473   3.916  16.439  0.00  0.00    +0.000 N 
ATOM     11  C   UNL     1       5.517   4.080  15.573  0.00  0.00    +0.000 A 
ATOM     12  N   UNL     1       6.680   4.562  15.861  0.00  0.00    +0.000 NA
ATOM     13  C   UNL     1       6.827   4.935  17.165  0.00  0.00    +0.000 A 
ATOM     14  N   UNL     1       7.913   5.432  17.693  0.00  0.00    +0.000 NA
ATOM     15  C   UNL     1       7.572   5.637  19.023  0.00  0.00    +0.000 A 
ATOM     16  C   UNL     1       6.314   5.292  19.357  0.00  0.00    +0.000 A 
ATOM     17  C   UNL     1       5.718   4.814  18.147  0.00  0.00    +0.000 A 
ATOM     18  H   UNL     1       3.556   3.665  16.099  0.00  0.00    +0.000 HD
ENDBRANCH   7   9
ENDBRANCH   4   7
BRANCH   1  19
ATOM     19  C   UNL     1       0.884   9.155  20.343  0.00  0.00    +0.000 C 
BRANCH  19  20
ATOM     20  S   UNL     1       0.610   9.531  22.076  0.00  0.00    +0.000 S 
ATOM     21  O   UNL     1       1.866   9.411  22.780  0.00  0.00    +0.000 OA
ATOM     22  O   UNL     1      -0.597   8.878  22.536  0.00  0.00    +0.000 OA
BRANCH  20  24
ATOM     23  C   UNL     1      -0.917  11.515  21.181  0.00  0.00    +0.000 C 
ATOM     24  N   UNL     1       0.267  11.192  22.005  0.00  0.00    +0.000 NA
ATOM     25  H   UNL     1       0.174  11.590  22.940  0.00  0.00    +0.000 HD
ENDBRANCH  20  24
ENDBRANCH  19  20
ENDBRANCH   1  19
TORSDOF 5
ENDMDL
MODEL 3
REMARK VINA RESULT:      -7.2      2.428      3.329
REMARK  Name = 
REMARK  7 active torsions:
REMARK  status: ('A' for Active; 'I' for Inactive)
REMARK    1  A    between atoms: C_1  and  N_2
REMARK    2  A    between atoms: N_2  and  S_3
REMARK    3  A    between atoms: S_3  and  C_6
REMARK    4  A    between atoms: C_6  and  C_7
REMARK    5  A    between atoms: C_10  and  N_11
REMARK    6  A    between atoms: N_11  and  C_12
REMARK    7  A    between atoms: N_11  and  C_13
REMARK                            x       y       z     vdW  Elec       q    Type
REMARK                         _______ _______ _______ _____ _____    ______ ____
ROOT
ATOM      1  C   UNL     1       0.952   9.311  18.818  0.00  0.00    +0.000 C 
ATOM      2  C   UNL     1       2.115   8.890  17.909  0.00  0.00    +0.000 C 
ATOM      3  C   UNL     1       2.493   7.421  18.076  0.00  0.00    +0.000 C 
ATOM      4  C   UNL     1       2.824   7.075  19.533  0.00  0.00    +0.000 C 
ATOM      5  C   UNL     1       1.651   7.470  20.446  0.00  0.00    +0.000 C 
ATOM      6  C   UNL     1       1.268   8.945  20.282  0.00  0.00    +0.000 C 
ENDROOT
BRANCH   4   7
ATOM      7  N   UNL     1       3.222   5.639  19.642  0.00  0.00    +0.000 N 
ATOM      8  C   UNL     1       2.399   4.795  20.518  0.00  0.00    +0.000 C 
BRANCH   7   9
ATOM      9  C   UNL     1       4.001   5.064  18.621  0.00  0.00    +0.000 A 
ATOM     10  N   UNL     1       3.382   4.353  17.608  0.00  0.00    +0.000 N 
ATOM     11  C   UNL     1       4.070   3.813  16.558  0.00  0.00    +0.000 A 
ATOM     12  N   UNL     1       5.350   3.840  16.389  0.00  0.00    +0.000 NA
ATOM     13  C   UNL     1       6.035   4.485  17.377  0.00  0.00    +0.000 A 
ATOM     14  N   UNL     1       7.332   4.626  17.432  0.00  0.00    +0.000 NA
ATOM     15  C   UNL     1       7.540   5.335  18.608  0.00  0.00    +0.000 A 
ATOM     16  C   UNL     1       6.427   5.649  19.297  0.00  0.00    +0.000 A 
ATOM     17  C   UNL     1       5.342   5.123  18.526  0.00  0.00    +0.000 A 
ATOM     18  H   UNL     1       2.375   4.411  17.589  0.00  0.00    +0.000 HD
ENDBRANCH   7   9
ENDBRANCH   4   7
BRANCH   1  19
ATOM     19  C   UNL     1       0.646  10.818  18.719  0.00  0.00    +0.000 C 
BRANCH  19  20
ATOM     20  S   UNL     1      -1.085  11.178  18.414  0.00  0.00    +0.000 S 
ATOM     21  O   UNL     1      -1.742  11.399  19.681  0.00  0.00    +0.000 OA
ATOM     22  O   UNL     1      -1.610  10.264  17.423  0.00  0.00    +0.000 OA
BRANCH  20  24
ATOM     23  C   UNL     1      -0.323  13.724  18.504  0.00  0.00    +0.000 C 
ATOM     24  N   UNL     1      -0.981  12.699  17.666  0.00  0.00    +0.000 NA
ATOM     25  H   UNL     1      -0.525  12.632  16.755  0.00  0.00    +0.000 HD
ENDBRANCH  20  24
ENDBRANCH  19  20
ENDBRANCH   1  19
TORSDOF 5
ENDMDL
MODEL 4
REMARK VINA RESULT:      -7.1      0.987      1.131
REMARK  Name = 
REMARK  7 active torsions:
REMARK  status: ('A' for Active; 'I' for Inactive)
REMARK    1  A    between atoms: C_1  and  N_2
REMARK    2  A    between atoms: N_2  and  S_3
REMARK    3  A    between atoms: S_3  and  C_6
REMARK    4  A    between atoms: C_6  and  C_7
REMARK    5  A    between atoms: C_10  and  N_11
REMARK    6  A    between atoms: N_11  and  C_12
REMARK    7  A    between atoms: N_11  and  C_13
REMARK                            x       y       z     vdW  Elec       q    Type
REMARK                         _______ _______ _______ _____ _____    ______ ____
ROOT
ATOM      1  C   UNL     1       1.738   7.024  20.637  0.00  0.00    +0.000 C 
ATOM      2  C   UNL     1       1.484   5.535  20.908  0.00  0.00    +0.000 C 
ATOM      3  C   UNL     1       2.643   4.647  20.464  0.00  0.00    +0.000 C 
ATOM      4  C   UNL     1       2.988   4.851  18.984  0.00  0.00    +0.000 C 
ATOM      5  C   UNL     1       3.270   6.338  18.711  0.00  0.00    +0.000 C 
ATOM      6  C   UNL     1       2.108   7.233  19.155  0.00  0.00    +0.000 C 
ENDROOT
BRANCH   4   7
ATOM      7  N   UNL     1       4.102   3.939  18.586  0.00  0.00    +0.000 N 
ATOM      8  C   UNL     1       3.724   2.578  18.183  0.00  0.00    +0.000 C 
BRANCH   7   9
ATOM      9  C   UNL     1       5.327   4.494  18.171  0.00  0.00    +0.000 A 
ATOM     10  N   UNL     1       6.215   4.974  19.117  0.00  0.00    +0.000 N 
ATOM     11  C   UNL     1       7.442   5.477  18.790  0.00  0.00    +0.000 A 
ATOM     12  N   UNL     1       7.916   5.622  17.597  0.00  0.00    +0.000 NA
ATOM     13  C   UNL     1       7.074   5.212  16.604  0.00  0.00    +0.000 A 
ATOM     14  N   UNL     1       7.325   5.274  15.324  0.00  0.00    +0.000 NA
ATOM     15  C   UNL     1       6.180   4.755  14.735  0.00  0.00    +0.000 A 
ATOM     16  C   UNL     1       5.216   4.365  15.591  0.00  0.00    +0.000 A 
ATOM     17  C   UNL     1       5.740   4.624  16.897  0.00  0.00    +0.000 A 
ATOM     18  H   UNL     1       5.983   4.765  20.077  0.00  0.00    +0.000 HD
ENDBRANCH   7   9
ENDBRANCH   4   7
BRANCH   1  19
ATOM     19  C   UNL     1       0.522   7.901  20.993  0.00  0.00    +0.000 C 
BRANCH  19  20
ATOM     20  S   UNL     1       0.948   9.607  21.345  0.00  0.00    +0.000 S 
ATOM     21  O   UNL     1       1.350  10.248  20.114  0.00  0.00    +0.000 OA
ATOM     22  O   UNL     1       1.752   9.675  22.547  0.00  0.00    +0.000 OA
BRANCH  20  24
ATOM     23  C   UNL     1      -0.871  10.218  23.186  0.00  0.00    +0.000 C 
ATOM     24  N   UNL     1      -0.571  10.255  21.738  0.00  0.00    +0.000 NA
ATOM     25  H   UNL     1      -0.674  11.203  21.374  0.00  0.00    +0.000 HD
ENDBRANCH  20  24
ENDBRANCH  19  20
ENDBRANCH   1  19
TORSDOF 5
ENDMDL
MODEL 5
REMARK VINA RESULT:      -7.1      2.391      3.271
REMARK  Name = 
REMARK  7 active torsions:
REMARK  status: ('A' for Active; 'I' for Inactive)
REMARK    1  A    between atoms: C_1  and  N_2
REMARK    2  A    between atoms: N_2  and  S_3
REMARK    3  A    between atoms: S_3  and  C_6
REMARK    4  A    between atoms: C_6  and  C_7
REMARK    5  A    between atoms: C_10  and  N_11
REMARK    6  A    between atoms: N_11  and  C_12
REMARK    7  A    between atoms: N_11  and  C_13
REMARK                            x       y       z     vdW  Elec       q    Type
REMARK                         _______ _______ _______ _____ _____    ______ ____
ROOT
ATOM      1  C   UNL     1       1.245   9.213  18.896  0.00  0.00    +0.000 C 
ATOM      2  C   UNL     1       2.351   8.862  17.892  0.00  0.00    +0.000 C 
ATOM      3  C   UNL     1       2.629   7.363  17.821  0.00  0.00    +0.000 C 
ATOM      4  C   UNL     1       2.973   6.776  19.196  0.00  0.00    +0.000 C 
ATOM      5  C   UNL     1       1.854   7.103  20.200  0.00  0.00    +0.000 C 
ATOM      6  C   UNL     1       1.572   8.607  20.275  0.00  0.00    +0.000 C 
ENDROOT
BRANCH   4   7
ATOM      7  N   UNL     1       3.271   5.318  19.073  0.00  0.00    +0.000 N 
ATOM      8  C   UNL     1       2.220   4.393  19.515  0.00  0.00    +0.000 C 
BRANCH   7   9
ATOM      9  C   UNL     1       4.261   4.895  18.164  0.00  0.00    +0.000 A 
ATOM     10  N   UNL     1       3.887   4.243  17.003  0.00  0.00    +0.000 N 
ATOM     11  C   UNL     1       4.788   3.852  16.053  0.00  0.00    +0.000 A 
ATOM     12  N   UNL     1       6.072   3.980  16.119  0.00  0.00    +0.000 NA
ATOM     13  C   UNL     1       6.520   4.573  17.263  0.00  0.00    +0.000 A 
ATOM     14  N   UNL     1       7.772   4.795  17.561  0.00  0.00    +0.000 NA
ATOM     15  C   UNL     1       7.714   5.402  18.809  0.00  0.00    +0.000 A 
ATOM     16  C   UNL     1       6.476   5.575  19.311  0.00  0.00    +0.000 A 
ATOM     17  C   UNL     1       5.588   5.053  18.318  0.00  0.00    +0.000 A 
ATOM     18  H   UNL     1       2.897   4.235  16.808  0.00  0.00    +0.000 HD
ENDBRANCH   7   9
ENDBRANCH   4   7
BRANCH   1  19
ATOM     19  C   UNL     1       1.042  10.735  19.037  0.00  0.00    +0.000 C 
BRANCH  19  20
ATOM     20  S   UNL     1      -0.640  11.267  18.711  0.00  0.00    +0.000 S 
ATOM     21  O   UNL     1      -0.605  12.599  18.152  0.00  0.00    +0.000 OA
ATOM     22  O   UNL     1      -1.489  10.923  19.831  0.00  0.00    +0.000 OA
BRANCH  20  24
ATOM     23  C   UNL     1      -2.345  10.608  16.780  0.00  0.00    +0.000 C 
ATOM     24  N   UNL     1      -1.074  10.233  17.436  0.00  0.00    +0.000 NA
ATOM     25  H   UNL     1      -0.323  10.159  16.749  0.00  0.00    +0.000 HD
ENDBRANCH  20  24
ENDBRANCH  19  20
ENDBRANCH   1  19
TORSDOF 5
ENDMDL
MODEL 6
REMARK VINA RESULT:      -7.1      1.069      2.083
REMARK  Name = 
REMARK  7 active torsions:
REMARK  status: ('A' for Active; 'I' for Inactive)
REMARK    1  A    between atoms: C_1  and  N_2
REMARK    2  A    between atoms: N_2  and  S_3
REMARK    3  A    between atoms: S_3  and  C_6
REMARK    4  A    between atoms: C_6  and  C_7
REMARK    5  A    between atoms: C_10  and  N_11
REMARK    6  A    between atoms: N_11  and  C_12
REMARK    7  A    between atoms: N_11  and  C_13
REMARK                            x       y       z     vdW  Elec       q    Type
REMARK                         _______ _______ _______ _____ _____    ______ ____
ROOT
ATOM      1  C   UNL     1       1.780   8.184  19.858  0.00  0.00    +0.000 C 
ATOM      2  C   UNL     1       1.407   6.783  20.360  0.00  0.00    +0.000 C 
ATOM      3  C   UNL     1       2.411   5.716  19.934  0.00  0.00    +0.000 C 
ATOM      4  C   UNL     1       2.606   5.685  18.413  0.00  0.00    +0.000 C 
ATOM      5  C   UNL     1       3.006   7.082  17.907  0.00  0.00    +0.000 C 
ATOM      6  C   UNL     1       2.000   8.156  18.333  0.00  0.00    +0.000 C 
ENDROOT
BRANCH   4   7
ATOM      7  N   UNL     1       3.569   4.606  18.040  0.00  0.00    +0.000 N 
ATOM      8  C   UNL     1       3.013   3.255  17.885  0.00  0.00    +0.000 C 
BRANCH   7   9
ATOM      9  C   UNL     1       4.784   4.954  17.420  0.00  0.00    +0.000 A 
ATOM     10  N   UNL     1       4.878   4.926  16.039  0.00  0.00    +0.000 N 
ATOM     11  C   UNL     1       6.008   5.302  15.369  0.00  0.00    +0.000 A 
ATOM     12  N   UNL     1       7.125   5.673  15.902  0.00  0.00    +0.000 NA
ATOM     13  C   UNL     1       7.123   5.679  17.266  0.00  0.00    +0.000 A 
ATOM     14  N   UNL     1       8.136   6.000  18.024  0.00  0.00    +0.000 NA
ATOM     15  C   UNL     1       7.649   5.846  19.315  0.00  0.00    +0.000 A 
ATOM     16  C   UNL     1       6.367   5.442  19.404  0.00  0.00    +0.000 A 
ATOM     17  C   UNL     1       5.915   5.315  18.052  0.00  0.00    +0.000 A 
ATOM     18  H   UNL     1       4.008   4.790  15.547  0.00  0.00    +0.000 HD
ENDBRANCH   7   9
ENDBRANCH   4   7
BRANCH   1  19
ATOM     19  C   UNL     1       0.708   9.236  20.205  0.00  0.00    +0.000 C 
BRANCH  19  20
ATOM     20  S   UNL     1       0.946   9.998  21.811  0.00  0.00    +0.000 S 
ATOM     21  O   UNL     1       1.013  11.431  21.639  0.00  0.00    +0.000 OA
ATOM     22  O   UNL     1       1.944   9.265  22.560  0.00  0.00    +0.000 OA
BRANCH  20  24
ATOM     23  C   UNL     1      -1.194  10.888  23.115  0.00  0.00    +0.000 C 
ATOM     24  N   UNL     1      -0.548   9.682  22.553  0.00  0.00    +0.000 NA
ATOM     25  H   UNL     1      -1.182   9.200  21.916  0.00  0.00    +0.000 HD
ENDBRANCH  20  24
ENDBRANCH  19  20
ENDBRANCH   1  19
TORSDOF 5
ENDMDL
MODEL 7
REMARK VINA RESULT:      -7.1      2.197      2.631
REMARK  Name = 
REMARK  7 active torsions:
REMARK  status: ('A' for Active; 'I' for Inactive)
REMARK    1  A    between atoms: C_1  and  N_2
REMARK    2  A    between atoms: N_2  and  S_3
REMARK    3  A    between atoms: S_3  and  C_6
REMARK    4  A    between atoms: C_6  and  C_7
REMARK    5  A    between atoms: C_10  and  N_11
REMARK    6  A    between atoms: N_11  and  C_12
REMARK    7  A    between atoms: N_11  and  C_13
REMARK                            x       y       z     vdW  Elec       q    Type
REMARK                         _______ _______ _______ _____ _____    ______ ____
ROOT
ATOM      1  C   UNL     1       0.857   9.247  19.257  0.00  0.00    +0.000 C 
ATOM      2  C   UNL     1       1.854   9.264  18.091  0.00  0.00    +0.000 C 
ATOM      3  C   UNL     1       2.357   7.870  17.724  0.00  0.00    +0.000 C 
ATOM      4  C   UNL     1       2.979   7.149  18.926  0.00  0.00    +0.000 C 
ATOM      5  C   UNL     1       1.973   7.105  20.089  0.00  0.00    +0.000 C 
ATOM      6  C   UNL     1       1.466   8.502  20.461  0.00  0.00    +0.000 C 
ENDROOT
BRANCH   4   7
ATOM      7  N   UNL     1       3.487   5.807  18.513  0.00  0.00    +0.000 N 
ATOM      8  C   UNL     1       2.512   4.895  17.900  0.00  0.00    +0.000 C 
BRANCH   7   9
ATOM      9  C   UNL     1       4.866   5.636  18.287  0.00  0.00    +0.000 A 
ATOM     10  N   UNL     1       5.731   5.566  19.365  0.00  0.00    +0.000 N 
ATOM     11  C   UNL     1       7.073   5.349  19.221  0.00  0.00    +0.000 A 
ATOM     12  N   UNL     1       7.714   5.234  18.106  0.00  0.00    +0.000 NA
ATOM     13  C   UNL     1       6.931   5.342  16.994  0.00  0.00    +0.000 A 
ATOM     14  N   UNL     1       7.354   5.276  15.760  0.00  0.00    +0.000 NA
ATOM     15  C   UNL     1       6.202   5.446  15.004  0.00  0.00    +0.000 A 
ATOM     16  C   UNL     1       5.067   5.614  15.709  0.00  0.00    +0.000 A 
ATOM     17  C   UNL     1       5.461   5.543  17.083  0.00  0.00    +0.000 A 
ATOM     18  H   UNL     1       5.292   5.499  20.271  0.00  0.00    +0.000 HD
ENDBRANCH   7   9
ENDBRANCH   4   7
BRANCH   1  19
ATOM     19  C   UNL     1       0.434  10.665  19.688  0.00  0.00    +0.000 C 
BRANCH  19  20
ATOM     20  S   UNL     1      -1.083  11.227  18.912  0.00  0.00    +0.000 S 
ATOM     21  O   UNL     1      -1.922  11.834  19.920  0.00  0.00    +0.000 OA
ATOM     22  O   UNL     1      -1.578  10.211  18.008  0.00  0.00    +0.000 OA
BRANCH  20  24
ATOM     23  C   UNL     1       0.643  13.214  18.535  0.00  0.00    +0.000 C 
ATOM     24  N   UNL     1      -0.511  12.500  17.947  0.00  0.00    +0.000 NA
ATOM     25  H   UNL     1      -0.291  12.179  17.003  0.00  0.00    +0.000 HD
ENDBRANCH  20  24
ENDBRANCH  19  20
ENDBRANCH   1  19
TORSDOF 5
ENDMDL
MODEL 8
REMARK VINA RESULT:      -7.1      2.159      2.587
REMARK  Name = 
REMARK  7 active torsions:
REMARK  status: ('A' for Active; 'I' for Inactive)
REMARK    1  A    between atoms: C_1  and  N_2
REMARK    2  A    between atoms: N_2  and  S_3
REMARK    3  A    between atoms: S_3  and  C_6
REMARK    4  A    between atoms: C_6  and  C_7
REMARK    5  A    between atoms: C_10  and  N_11
REMARK    6  A    between atoms: N_11  and  C_12
REMARK    7  A    between atoms: N_11  and  C_13
REMARK                            x       y       z     vdW  Elec       q    Type
REMARK                         _______ _______ _______ _____ _____    ______ ____
ROOT
ATOM      1  C   UNL     1       1.607   8.828  18.686  0.00  0.00    +0.000 C 
ATOM      2  C   UNL     1       2.837   8.711  17.776  0.00  0.00    +0.000 C 
ATOM      3  C   UNL     1       3.263   7.264  17.541  0.00  0.00    +0.000 C 
ATOM      4  C   UNL     1       3.522   6.521  18.858  0.00  0.00    +0.000 C 
ATOM      5  C   UNL     1       2.282   6.612  19.764  0.00  0.00    +0.000 C 
ATOM      6  C   UNL     1       1.851   8.063  20.002  0.00  0.00    +0.000 C 
ENDROOT
BRANCH   4   7
ATOM      7  N   UNL     1       3.969   5.124  18.580  0.00  0.00    +0.000 N 
ATOM      8  C   UNL     1       2.914   4.112  18.441  0.00  0.00    +0.000 C 
BRANCH   7   9
ATOM      9  C   UNL     1       5.243   4.910  18.019  0.00  0.00    +0.000 A 
ATOM     10  N   UNL     1       6.362   4.951  18.832  0.00  0.00    +0.000 N 
ATOM     11  C   UNL     1       7.622   4.702  18.365  0.00  0.00    +0.000 A 
ATOM     12  N   UNL     1       7.949   4.454  17.141  0.00  0.00    +0.000 NA
ATOM     13  C   UNL     1       6.899   4.445  16.269  0.00  0.00    +0.000 A 
ATOM     14  N   UNL     1       6.984   4.235  14.983  0.00  0.00    +0.000 NA
ATOM     15  C   UNL     1       5.670   4.333  14.543  0.00  0.00    +0.000 A 
ATOM     16  C   UNL     1       4.758   4.595  15.499  0.00  0.00    +0.000 A 
ATOM     17  C   UNL     1       5.501   4.674  16.720  0.00  0.00    +0.000 A 
ATOM     18  H   UNL     1       6.178   4.994  19.823  0.00  0.00    +0.000 HD
ENDBRANCH   7   9
ENDBRANCH   4   7
BRANCH   1  19
ATOM     19  C   UNL     1       1.247  10.293  19.000  0.00  0.00    +0.000 C 
BRANCH  19  20
ATOM     20  S   UNL     1      -0.508  10.642  18.874  0.00  0.00    +0.000 S 
ATOM     21  O   UNL     1      -0.689  12.070  18.753  0.00  0.00    +0.000 OA
ATOM     22  O   UNL     1      -1.237   9.853  19.844  0.00  0.00    +0.000 OA
BRANCH  20  24
ATOM     23  C   UNL     1      -2.318   9.877  17.083  0.00  0.00    +0.000 C 
ATOM     24  N   UNL     1      -0.868   9.991  17.348  0.00  0.00    +0.000 NA
ATOM     25  H   UNL     1      -0.406  10.515  16.605  0.00  0.00    +0.000 HD
ENDBRANCH  20  24
ENDBRANCH  19  20
ENDBRANCH   1  19
TORSDOF 5
ENDMDL
MODEL 9
REMARK VINA RESULT:      -7.0      2.246      3.381
REMARK  Name = 
REMARK  7 active torsions:
REMARK  status: ('A' for Active; 'I' for Inactive)
REMARK    1  A    between atoms: C_1  and  N_2
REMARK    2  A    between atoms: N_2  and  S_3
REMARK    3  A    between atoms: S_3  and  C_6
REMARK    4  A    between atoms: C_6  and  C_7
REMARK    5  A    between atoms: C_10  and  N_11
REMARK    6  A    between atoms: N_11  and  C_12
REMARK    7  A    between atoms: N_11  and  C_13
REMARK                            x       y       z     vdW  Elec       q    Type
REMARK                         _______ _______ _______ _____ _____    ______ ____
ROOT
ATOM      1  C   UNL     1       1.091   9.528  19.731  0.00  0.00    +0.000 C 
ATOM      2  C   UNL     1       1.172   8.144  20.389  0.00  0.00    +0.000 C 
ATOM      3  C   UNL     1       2.331   7.305  19.858  0.00  0.00    +0.000 C 
ATOM      4  C   UNL     1       2.276   7.149  18.333  0.00  0.00    +0.000 C 
ATOM      5  C   UNL     1       2.221   8.535  17.666  0.00  0.00    +0.000 C 
ATOM      6  C   UNL     1       1.059   9.380  18.197  0.00  0.00    +0.000 C 
ENDROOT
BRANCH   4   7
ATOM      7  N   UNL     1       3.406   6.294  17.863  0.00  0.00    +0.000 N 
ATOM      8  C   UNL     1       4.525   6.984  17.209  0.00  0.00    +0.000 C 
BRANCH   7   9
ATOM      9  C   UNL     1       3.589   5.022  18.440  0.00  0.00    +0.000 A 
ATOM     10  N   UNL     1       4.830   4.674  18.944  0.00  0.00    +0.000 N 
ATOM     11  C   UNL     1       5.065   3.479  19.564  0.00  0.00    +0.000 A 
ATOM     12  N   UNL     1       4.217   2.517  19.718  0.00  0.00    +0.000 NA
ATOM     13  C   UNL     1       2.980   2.770  19.200  0.00  0.00    +0.000 A 
ATOM     14  N   UNL     1       1.967   1.946  19.221  0.00  0.00    +0.000 NA
ATOM     15  C   UNL     1       0.956   2.646  18.576  0.00  0.00    +0.000 A 
ATOM     16  C   UNL     1       1.288   3.881  18.151  0.00  0.00    +0.000 A 
ATOM     17  C   UNL     1       2.651   4.064  18.546  0.00  0.00    +0.000 A 
ATOM     18  H   UNL     1       5.504   5.423  18.995  0.00  0.00    +0.000 HD
ENDBRANCH   7   9
ENDBRANCH   4   7
BRANCH   1  19
ATOM     19  C   UNL     1      -0.141  10.328  20.197  0.00  0.00    +0.000 C 
BRANCH  19  20
ATOM     20  S   UNL     1       0.190  11.400  21.598  0.00  0.00    +0.000 S 
ATOM     21  O   UNL     1       1.396  12.150  21.333  0.00  0.00    +0.000 OA
ATOM     22  O   UNL     1      -0.009  10.671  22.832  0.00  0.00    +0.000 OA
BRANCH  20  24
ATOM     23  C   UNL     1      -2.016  12.220  20.360  0.00  0.00    +0.000 C 
ATOM     24  N   UNL     1      -1.090  12.508  21.477  0.00  0.00    +0.000 NA
ATOM     25  H   UNL     1      -1.600  12.581  22.357  0.00  0.00    +0.000 HD
ENDBRANCH  20  24
ENDBRANCH  19  20
ENDBRANCH   1  19
TORSDOF 5
ENDMDL
