MODEL 1
REMARK VINA RESULT:      -7.8      0.000      0.000
REMARK  Name = 
REMARK  11 active torsions:
REMARK  status: ('A' for Active; 'I' for Inactive)
REMARK    1  A    between atoms: C_1  and  C_2
REMARK    2  A    between atoms: C_2  and  C_3
REMARK    3  A    between atoms: C_3  and  C_4
REMARK    4  A    between atoms: C_4  and  C_5
REMARK    5  A    between atoms: C_5  and  O_7
REMARK    6  A    between atoms: O_7  and  C_8
REMARK    7  A    between atoms: C_10  and  N_11
REMARK    8  A    between atoms: N_11  and  C_12
REMARK    9  A    between atoms: N_11  and  C_13
REMARK   10  A    between atoms: C_26  and  O_27
REMARK   11  A    between atoms: O_27  and  C_28
REMARK                            x       y       z     vdW  Elec       q    Type
REMARK                         _______ _______ _______ _____ _____    ______ ____
ROOT
ATOM      1  C   UNL     1       2.712   6.569  19.405  0.00  0.00    +0.000 A 
ATOM      2  C   UNL     1       1.867   7.488  20.090  0.00  0.00    +0.000 A 
ATOM      3  C   UNL     1       1.438   8.760  19.547  0.00  0.00    +0.000 A 
ATOM      4  C   UNL     1       1.948   9.076  18.290  0.00  0.00    +0.000 A 
ATOM      5  C   UNL     1       2.789   8.152  17.600  0.00  0.00    +0.000 A 
ATOM      6  C   UNL     1       3.154   6.894  18.123  0.00  0.00    +0.000 A 
ENDROOT
BRANCH   3   7
ATOM      7  N   UNL     1       0.306   9.470  20.143  0.00  0.00    +0.000 N 
ATOM      8  C   UNL     1       0.145   8.837  21.497  0.00  0.00    +0.000 C 
BRANCH   7   9
ATOM      9  C   UNL     1      -0.712  10.396  19.694  0.00  0.00    +0.000 A 
ATOM     10  C   UNL     1      -0.815  11.601  20.305  0.00  0.00    +0.000 A 
ATOM     11  C   UNL     1      -1.642  12.690  19.807  0.00  0.00    +0.000 A 
ATOM     12  O   UNL     1      -1.268  13.852  19.758  0.00  0.00    +0.000 OA
ATOM     13  O   UNL     1      -2.910  12.252  19.602  0.00  0.00    +0.000 OA
ATOM     14  C   UNL     1      -2.781  11.327  18.560  0.00  0.00    +0.000 A 
ATOM     15  C   UNL     1      -3.737  11.564  17.550  0.00  0.00    +0.000 A 
ATOM     16  C   UNL     1      -3.572  10.896  16.344  0.00  0.00    +0.000 A 
ATOM     17  C   UNL     1      -2.501  10.008  16.210  0.00  0.00    +0.000 A 
ATOM     18  C   UNL     1      -1.584   9.733  17.276  0.00  0.00    +0.000 A 
ATOM     19  C   UNL     1      -1.691  10.386  18.510  0.00  0.00    +0.000 A 
ENDBRANCH   7   9
ENDBRANCH   3   7
BRANCH   6  20
ATOM     20  O   UNL     1       3.945   6.157  17.288  0.00  0.00    +0.000 OA
ATOM     21  C   UNL     1       5.163   6.689  16.787  0.00  0.00    +0.000 C 
ENDBRANCH   6  20
BRANCH   1  22
ATOM     22  O   UNL     1       3.075   5.288  19.949  0.00  0.00    +0.000 OA
BRANCH  22  23
ATOM     23  C   UNL     1       2.232   4.466  20.708  0.00  0.00    +0.000 C 
ATOM     24  O   UNL     1       2.368   4.237  21.905  0.00  0.00    +0.000 OA
BRANCH  23  25
ATOM     25  C   UNL     1       1.032   3.941  19.929  0.00  0.00    +0.000 C 
BRANCH  25  26
ATOM     26  C   UNL     1       1.064   2.517  19.375  0.00  0.00    +0.000 C 
BRANCH  26  28
ATOM     27  C   UNL     1       2.397   3.097  17.261  0.00  0.00    +0.000 C 
ATOM     28  C   UNL     1       2.244   2.178  18.463  0.00  0.00    +0.000 C 
ENDBRANCH  26  28
ENDBRANCH  25  26
ENDBRANCH  23  25
ENDBRANCH  22  23
ENDBRANCH   1  22
TORSDOF 8
ENDMDL
MODEL 2
REMARK VINA RESULT:      -7.6      4.563      7.826
REMARK  Name = 
REMARK  11 active torsions:
REMARK  status: ('A' for Active; 'I' for Inactive)
REMARK    1  A    between atoms: C_1  and  C_2
REMARK    2  A    between atoms: C_2  and  C_3
REMARK    3  A    between atoms: C_3  and  C_4
REMARK    4  A    between atoms: C_4  and  C_5
REMARK    5  A    between atoms: C_5  and  O_7
REMARK    6  A    between atoms: O_7  and  C_8
REMARK    7  A    between atoms: C_10  and  N_11
REMARK    8  A    between atoms: N_11  and  C_12
REMARK    9  A    between atoms: N_11  and  C_13
REMARK   10  A    between atoms: C_26  and  O_27
REMARK   11  A    between atoms: O_27  and  C_28
REMARK                            x       y       z     vdW  Elec       q    Type
REMARK                         _______ _______ _______ _____ _____    ______ ____
ROOT
ATOM      1  C   UNL     1       6.341   5.947  16.301  0.00  0.00    +0.000 A 
ATOM      2  C   UNL     1       5.288   5.394  17.084  0.00  0.00    +0.000 A 
ATOM      3  C   UNL     1       4.714   4.082  16.865  0.00  0.00    +0.000 A 
ATOM      4  C   UNL     1       5.231   3.376  15.782  0.00  0.00    +0.000 A 
ATOM      5  C   UNL     1       6.292   3.928  15.002  0.00  0.00    +0.000 A 
ATOM      6  C   UNL     1       6.874   5.186  15.261  0.00  0.00    +0.000 A 
ENDROOT
BRANCH   3   7
ATOM      7  N   UNL     1       3.906   3.451  17.908  0.00  0.00    +0.000 N 
ATOM      8  C   UNL     1       3.857   2.001  17.514  0.00  0.00    +0.000 C 
BRANCH   7   9
ATOM      9  C   UNL     1       3.062   3.893  18.999  0.00  0.00    +0.000 A 
ATOM     10  C   UNL     1       2.767   3.020  19.992  0.00  0.00    +0.000 A 
ATOM     11  C   UNL     1       2.118   3.403  21.238  0.00  0.00    +0.000 A 
ATOM     12  O   UNL     1       2.478   3.005  22.335  0.00  0.00    +0.000 OA
ATOM     13  O   UNL     1       0.975   4.087  20.973  0.00  0.00    +0.000 OA
ATOM     14  C   UNL     1       1.423   5.264  20.364  0.00  0.00    +0.000 A 
ATOM     15  C   UNL     1       0.814   6.397  20.945  0.00  0.00    +0.000 A 
ATOM     16  C   UNL     1       1.342   7.641  20.626  0.00  0.00    +0.000 A 
ATOM     17  C   UNL     1       2.413   7.705  19.729  0.00  0.00    +0.000 A 
ATOM     18  C   UNL     1       2.968   6.544  19.100  0.00  0.00    +0.000 A 
ATOM     19  C   UNL     1       2.486   5.262  19.392  0.00  0.00    +0.000 A 
ENDBRANCH   7   9
ENDBRANCH   3   7
BRANCH   6  20
ATOM     20  O   UNL     1       7.891   5.510  14.410  0.00  0.00    +0.000 OA
ATOM     21  C   UNL     1       7.814   5.180  13.030  0.00  0.00    +0.000 C 
ENDBRANCH   6  20
BRANCH   1  22
ATOM     22  O   UNL     1       6.928   7.231  16.579  0.00  0.00    +0.000 OA
BRANCH  22  23
ATOM     23  C   UNL     1       7.673   7.547  17.721  0.00  0.00    +0.000 C 
ATOM     24  O   UNL     1       8.061   6.734  18.553  0.00  0.00    +0.000 OA
BRANCH  23  25
ATOM     25  C   UNL     1       8.065   9.018  17.804  0.00  0.00    +0.000 C 
BRANCH  25  26
ATOM     26  C   UNL     1       8.991   9.484  18.926  0.00  0.00    +0.000 C 
BRANCH  26  28
ATOM     27  C   UNL     1      10.282  11.422  17.849  0.00  0.00    +0.000 C 
ATOM     28  C   UNL     1       9.325  10.976  18.943  0.00  0.00    +0.000 C 
ENDBRANCH  26  28
ENDBRANCH  25  26
ENDBRANCH  23  25
ENDBRANCH  22  23
ENDBRANCH   1  22
TORSDOF 8
ENDMDL
MODEL 3
REMARK VINA RESULT:      -7.6      2.329      3.671
REMARK  Name = 
REMARK  11 active torsions:
REMARK  status: ('A' for Active; 'I' for Inactive)
REMARK    1  A    between atoms: C_1  and  C_2
REMARK    2  A    between atoms: C_2  and  C_3
REMARK    3  A    between atoms: C_3  and  C_4
REMARK    4  A    between atoms: C_4  and  C_5
REMARK    5  A    between atoms: C_5  and  O_7
REMARK    6  A    between atoms: O_7  and  C_8
REMARK    7  A    between atoms: C_10  and  N_11
REMARK    8  A    between atoms: N_11  and  C_12
REMARK    9  A    between atoms: N_11  and  C_13
REMARK   10  A    between atoms: C_26  and  O_27
REMARK   11  A    between atoms: O_27  and  C_28
REMARK                            x       y       z     vdW  Elec       q    Type
REMARK                         _______ _______ _______ _____ _____    ______ ____
ROOT
ATOM      1  C   UNL     1       4.831   4.697  18.945  0.00  0.00    +0.000 A 
ATOM      2  C   UNL     1       3.919   5.483  19.703  0.00  0.00    +0.000 A 
ATOM      3  C   UNL     1       3.338   6.728  19.242  0.00  0.00    +0.000 A 
ATOM      4  C   UNL     1       3.767   7.160  17.991  0.00  0.00    +0.000 A 
ATOM      5  C   UNL     1       4.677   6.368  17.227  0.00  0.00    +0.000 A 
ATOM      6  C   UNL     1       5.192   5.132  17.670  0.00  0.00    +0.000 A 
ENDROOT
BRANCH   3   7
ATOM      7  N   UNL     1       2.159   7.280  19.910  0.00  0.00    +0.000 N 
ATOM      8  C   UNL     1       1.541   6.100  20.605  0.00  0.00    +0.000 C 
BRANCH   7   9
ATOM      9  C   UNL     1       1.420   8.525  19.883  0.00  0.00    +0.000 A 
ATOM     10  C   UNL     1       1.068   9.051  18.684  0.00  0.00    +0.000 A 
ATOM     11  C   UNL     1       0.147  10.166  18.531  0.00  0.00    +0.000 A 
ATOM     12  O   UNL     1      -0.742  10.196  17.695  0.00  0.00    +0.000 OA
ATOM     13  O   UNL     1       0.547  11.207  19.307  0.00  0.00    +0.000 OA
ATOM     14  C   UNL     1       0.398  10.729  20.613  0.00  0.00    +0.000 A 
ATOM     15  C   UNL     1      -0.292  11.660  21.417  0.00  0.00    +0.000 A 
ATOM     16  C   UNL     1      -0.738  11.226  22.659  0.00  0.00    +0.000 A 
ATOM     17  C   UNL     1      -0.452   9.915  23.053  0.00  0.00    +0.000 A 
ATOM     18  C   UNL     1       0.311   9.011  22.245  0.00  0.00    +0.000 A 
ATOM     19  C   UNL     1       0.776   9.388  20.980  0.00  0.00    +0.000 A 
ENDBRANCH   7   9
ENDBRANCH   3   7
BRANCH   6  20
ATOM     20  O   UNL     1       6.026   4.528  16.773  0.00  0.00    +0.000 OA
ATOM     21  C   UNL     1       5.512   3.941  15.586  0.00  0.00    +0.000 C 
ENDBRANCH   6  20
BRANCH   1  22
ATOM     22  O   UNL     1       5.347   3.436  19.407  0.00  0.00    +0.000 OA
BRANCH  22  23
ATOM     23  C   UNL     1       4.569   2.372  19.880  0.00  0.00    +0.000 C 
ATOM     24  O   UNL     1       4.403   2.095  21.063  0.00  0.00    +0.000 OA
BRANCH  23  25
ATOM     25  C   UNL     1       3.837   1.617  18.776  0.00  0.00    +0.000 C 
BRANCH  25  26
ATOM     26  C   UNL     1       2.411   2.023  18.409  0.00  0.00    +0.000 C 
BRANCH  26  28
ATOM     27  C   UNL     1       1.346   4.194  17.552  0.00  0.00    +0.000 C 
ATOM     28  C   UNL     1       2.273   3.025  17.262  0.00  0.00    +0.000 C 
ENDBRANCH  26  28
ENDBRANCH  25  26
ENDBRANCH  23  25
ENDBRANCH  22  23
ENDBRANCH   1  22
TORSDOF 8
ENDMDL
MODEL 4
REMARK VINA RESULT:      -7.5      2.174      3.357
REMARK  Name = 
REMARK  11 active torsions:
REMARK  status: ('A' for Active; 'I' for Inactive)
REMARK    1  A    between atoms: C_1  and  C_2
REMARK    2  A    between atoms: C_2  and  C_3
REMARK    3  A    between atoms: C_3  and  C_4
REMARK    4  A    between atoms: C_4  and  C_5
REMARK    5  A    between atoms: C_5  and  O_7
REMARK    6  A    between atoms: O_7  and  C_8
REMARK    7  A    between atoms: C_10  and  N_11
REMARK    8  A    between atoms: N_11  and  C_12
REMARK    9  A    between atoms: N_11  and  C_13
REMARK   10  A    between atoms: C_26  and  O_27
REMARK   11  A    between atoms: O_27  and  C_28
REMARK                            x       y       z     vdW  Elec       q    Type
REMARK                         _______ _______ _______ _____ _____    ______ ____
ROOT
ATOM      1  C   UNL     1       2.934   6.184  19.586  0.00  0.00    +0.000 A 
ATOM      2  C   UNL     1       2.142   7.283  20.025  0.00  0.00    +0.000 A 
ATOM      3  C   UNL     1       1.850   8.449  19.217  0.00  0.00    +0.000 A 
ATOM      4  C   UNL     1       2.441   8.468  17.957  0.00  0.00    +0.000 A 
ATOM      5  C   UNL     1       3.230   7.363  17.514  0.00  0.00    +0.000 A 
ATOM      6  C   UNL     1       3.461   6.211  18.294  0.00  0.00    +0.000 A 
ENDROOT
BRANCH   3   7
ATOM      7  N   UNL     1       0.758   9.348  19.592  0.00  0.00    +0.000 N 
ATOM      8  C   UNL     1       0.218   9.842  18.280  0.00  0.00    +0.000 C 
BRANCH   7   9
ATOM      9  C   UNL     1       0.270   9.961  20.810  0.00  0.00    +0.000 A 
ATOM     10  C   UNL     1       0.159   9.200  21.926  0.00  0.00    +0.000 A 
ATOM     11  C   UNL     1      -0.106   9.744  23.250  0.00  0.00    +0.000 A 
ATOM     12  O   UNL     1       0.484   9.385  24.256  0.00  0.00    +0.000 OA
ATOM     13  O   UNL     1      -1.208  10.537  23.212  0.00  0.00    +0.000 OA
ATOM     14  C   UNL     1      -0.822  11.608  22.399  0.00  0.00    +0.000 A 
ATOM     15  C   UNL     1      -1.149  12.843  23.000  0.00  0.00    +0.000 A 
ATOM     16  C   UNL     1      -0.604  13.991  22.439  0.00  0.00    +0.000 A 
ATOM     17  C   UNL     1       0.200  13.865  21.302  0.00  0.00    +0.000 A 
ATOM     18  C   UNL     1       0.460  12.605  20.671  0.00  0.00    +0.000 A 
ATOM     19  C   UNL     1      -0.051  11.413  21.198  0.00  0.00    +0.000 A 
ENDBRANCH   7   9
ENDBRANCH   3   7
BRANCH   6  20
ATOM     20  O   UNL     1       4.221   5.264  17.670  0.00  0.00    +0.000 OA
ATOM     21  C   UNL     1       5.618   5.456  17.495  0.00  0.00    +0.000 C 
ENDBRANCH   6  20
BRANCH   1  22
ATOM     22  O   UNL     1       3.160   5.014  20.391  0.00  0.00    +0.000 OA
BRANCH  22  23
ATOM     23  C   UNL     1       2.158   4.172  20.889  0.00  0.00    +0.000 C 
ATOM     24  O   UNL     1       2.148   3.680  22.012  0.00  0.00    +0.000 OA
BRANCH  23  25
ATOM     25  C   UNL     1       0.987   3.989  19.930  0.00  0.00    +0.000 C 
BRANCH  25  26
ATOM     26  C   UNL     1       1.201   3.226  18.624  0.00  0.00    +0.000 C 
BRANCH  26  28
ATOM     27  C   UNL     1       3.345   1.865  18.259  0.00  0.00    +0.000 C 
ATOM     28  C   UNL     1       1.905   1.874  18.744  0.00  0.00    +0.000 C 
ENDBRANCH  26  28
ENDBRANCH  25  26
ENDBRANCH  23  25
ENDBRANCH  22  23
ENDBRANCH   1  22
TORSDOF 8
ENDMDL
MODEL 5
REMARK VINA RESULT:      -7.4      2.193      4.853
REMARK  Name = 
REMARK  11 active torsions:
REMARK  status: ('A' for Active; 'I' for Inactive)
REMARK    1  A    between atoms: C_1  and  C_2
REMARK    2  A    between atoms: C_2  and  C_3
REMARK    3  A    between atoms: C_3  and  C_4
REMARK    4  A    between atoms: C_4  and  C_5
REMARK    5  A    between atoms: C_5  and  O_7
REMARK    6  A    between atoms: O_7  and  C_8
REMARK    7  A    between atoms: C_10  and  N_11
REMARK    8  A    between atoms: N_11  and  C_12
REMARK    9  A    between atoms: N_11  and  C_13
REMARK   10  A    between atoms: C_26  and  O_27
REMARK   11  A    between atoms: O_27  and  C_28
REMARK                            x       y       z     vdW  Elec       q    Type
REMARK                         _______ _______ _______ _____ _____    ______ ____
ROOT
ATOM      1  C   UNL     1       3.654   4.440  18.580  0.00  0.00    +0.000 A 
ATOM      2  C   UNL     1       3.148   5.704  18.164  0.00  0.00    +0.000 A 
ATOM      3  C   UNL     1       2.274   6.535  18.967  0.00  0.00    +0.000 A 
ATOM      4  C   UNL     1       1.902   5.997  20.196  0.00  0.00    +0.000 A 
ATOM      5  C   UNL     1       2.415   4.733  20.616  0.00  0.00    +0.000 A 
ATOM      6  C   UNL     1       3.307   3.961  19.843  0.00  0.00    +0.000 A 
ENDROOT
BRANCH   3   7
ATOM      7  N   UNL     1       2.093   7.947  18.633  0.00  0.00    +0.000 N 
ATOM      8  C   UNL     1       3.240   8.261  17.714  0.00  0.00    +0.000 C 
BRANCH   7   9
ATOM      9  C   UNL     1       1.269   9.043  19.100  0.00  0.00    +0.000 A 
ATOM     10  C   UNL     1       0.667   9.843  18.187  0.00  0.00    +0.000 A 
ATOM     11  C   UNL     1      -0.348  10.830  18.523  0.00  0.00    +0.000 A 
ATOM     12  O   UNL     1      -1.374  10.988  17.879  0.00  0.00    +0.000 OA
ATOM     13  O   UNL     1       0.107  11.645  19.510  0.00  0.00    +0.000 OA
ATOM     14  C   UNL     1       0.234  10.795  20.614  0.00  0.00    +0.000 A 
ATOM     15  C   UNL     1      -0.367  11.359  21.759  0.00  0.00    +0.000 A 
ATOM     16  C   UNL     1      -0.546  10.532  22.860  0.00  0.00    +0.000 A 
ATOM     17  C   UNL     1      -0.095   9.211  22.787  0.00  0.00    +0.000 A 
ATOM     18  C   UNL     1       0.575   8.683  21.636  0.00  0.00    +0.000 A 
ATOM     19  C   UNL     1       0.772   9.464  20.491  0.00  0.00    +0.000 A 
ENDBRANCH   7   9
ENDBRANCH   3   7
BRANCH   6  20
ATOM     20  O   UNL     1       3.693   2.797  20.443  0.00  0.00    +0.000 OA
ATOM     21  C   UNL     1       2.942   2.252  21.519  0.00  0.00    +0.000 C 
ENDBRANCH   6  20
BRANCH   1  22
ATOM     22  O   UNL     1       4.565   3.663  17.782  0.00  0.00    +0.000 OA
BRANCH  22  23
ATOM     23  C   UNL     1       5.302   4.151  16.695  0.00  0.00    +0.000 C 
ATOM     24  O   UNL     1       4.863   4.301  15.560  0.00  0.00    +0.000 OA
BRANCH  23  25
ATOM     25  C   UNL     1       6.713   4.592  17.067  0.00  0.00    +0.000 C 
BRANCH  25  26
ATOM     26  C   UNL     1       7.099   6.064  16.927  0.00  0.00    +0.000 C 
BRANCH  26  28
ATOM     27  C   UNL     1       7.878   5.800  19.357  0.00  0.00    +0.000 C 
ATOM     28  C   UNL     1       7.619   6.744  18.194  0.00  0.00    +0.000 C 
ENDBRANCH  26  28
ENDBRANCH  25  26
ENDBRANCH  23  25
ENDBRANCH  22  23
ENDBRANCH   1  22
TORSDOF 8
ENDMDL
MODEL 6
REMARK VINA RESULT:      -7.4      2.333      4.697
REMARK  Name = 
REMARK  11 active torsions:
REMARK  status: ('A' for Active; 'I' for Inactive)
REMARK    1  A    between atoms: C_1  and  C_2
REMARK    2  A    between atoms: C_2  and  C_3
REMARK    3  A    between atoms: C_3  and  C_4
REMARK    4  A    between atoms: C_4  and  C_5
REMARK    5  A    between atoms: C_5  and  O_7
REMARK    6  A    between atoms: O_7  and  C_8
REMARK    7  A    between atoms: C_10  and  N_11
REMARK    8  A    between atoms: N_11  and  C_12
REMARK    9  A    between atoms: N_11  and  C_13
REMARK   10  A    between atoms: C_26  and  O_27
REMARK   11  A    between atoms: O_27  and  C_28
REMARK                            x       y       z     vdW  Elec       q    Type
REMARK                         _______ _______ _______ _____ _____    ______ ____
ROOT
ATOM      1  C   UNL     1       4.348   4.566  18.906  0.00  0.00    +0.000 A 
ATOM      2  C   UNL     1       4.057   5.888  18.465  0.00  0.00    +0.000 A 
ATOM      3  C   UNL     1       2.721   6.380  18.196  0.00  0.00    +0.000 A 
ATOM      4  C   UNL     1       1.698   5.449  18.351  0.00  0.00    +0.000 A 
ATOM      5  C   UNL     1       1.990   4.126  18.800  0.00  0.00    +0.000 A 
ATOM      6  C   UNL     1       3.291   3.679  19.108  0.00  0.00    +0.000 A 
ENDROOT
BRANCH   3   7
ATOM      7  N   UNL     1       2.474   7.819  18.099  0.00  0.00    +0.000 N 
ATOM      8  C   UNL     1       3.692   8.358  17.403  0.00  0.00    +0.000 C 
BRANCH   7   9
ATOM      9  C   UNL     1       1.524   8.764  18.647  0.00  0.00    +0.000 A 
ATOM     10  C   UNL     1       0.706   9.434  17.800  0.00  0.00    +0.000 A 
ATOM     11  C   UNL     1      -0.427  10.237  18.237  0.00  0.00    +0.000 A 
ATOM     12  O   UNL     1      -1.523  10.205  17.699  0.00  0.00    +0.000 OA
ATOM     13  O   UNL     1      -0.024  11.133  19.174  0.00  0.00    +0.000 OA
ATOM     14  C   UNL     1       0.356  10.336  20.259  0.00  0.00    +0.000 A 
ATOM     15  C   UNL     1      -0.217  10.807  21.460  0.00  0.00    +0.000 A 
ATOM     16  C   UNL     1      -0.142   9.979  22.572  0.00  0.00    +0.000 A 
ATOM     17  C   UNL     1       0.522   8.754  22.452  0.00  0.00    +0.000 A 
ATOM     18  C   UNL     1       1.156   8.330  21.240  0.00  0.00    +0.000 A 
ATOM     19  C   UNL     1       1.101   9.116  20.082  0.00  0.00    +0.000 A 
ENDBRANCH   7   9
ENDBRANCH   3   7
BRANCH   6  20
ATOM     20  O   UNL     1       3.343   2.386  19.544  0.00  0.00    +0.000 OA
ATOM     21  C   UNL     1       3.527   1.318  18.624  0.00  0.00    +0.000 C 
ENDBRANCH   6  20
BRANCH   1  22
ATOM     22  O   UNL     1       5.681   4.124  19.218  0.00  0.00    +0.000 OA
BRANCH  22  23
ATOM     23  C   UNL     1       6.847   4.875  19.022  0.00  0.00    +0.000 C 
ATOM     24  O   UNL     1       7.342   5.632  19.850  0.00  0.00    +0.000 OA
BRANCH  23  25
ATOM     25  C   UNL     1       7.533   4.594  17.689  0.00  0.00    +0.000 C 
BRANCH  25  26
ATOM     26  C   UNL     1       6.923   5.146  16.402  0.00  0.00    +0.000 C 
BRANCH  26  28
ATOM     27  C   UNL     1       6.296   4.069  14.159  0.00  0.00    +0.000 C 
ATOM     28  C   UNL     1       5.991   4.201  15.643  0.00  0.00    +0.000 C 
ENDBRANCH  26  28
ENDBRANCH  25  26
ENDBRANCH  23  25
ENDBRANCH  22  23
ENDBRANCH   1  22
TORSDOF 8
ENDMDL
MODEL 7
REMARK VINA RESULT:      -7.3      2.652      5.026
REMARK  Name = 
REMARK  11 active torsions:
REMARK  status: ('A' for Active; 'I' for Inactive)
REMARK    1  A    between atoms: C_1  and  C_2
REMARK    2  A    between atoms: C_2  and  C_3
REMARK    3  A    between atoms: C_3  and  C_4
REMARK    4  A    between atoms: C_4  and  C_5
REMARK    5  A    between atoms: C_5  and  O_7
REMARK    6  A    between atoms: O_7  and  C_8
REMARK    7  A    between atoms: C_10  and  N_11
REMARK    8  A    between atoms: N_11  and  C_12
REMARK    9  A    between atoms: N_11  and  C_13
REMARK   10  A    between atoms: C_26  and  O_27
REMARK   11  A    between atoms: O_27  and  C_28
REMARK                            x       y       z     vdW  Elec       q    Type
REMARK                         _______ _______ _______ _____ _____    ______ ____
ROOT
ATOM      1  C   UNL     1       4.568   5.332  18.090  0.00  0.00    +0.000 A 
ATOM      2  C   UNL     1       3.741   6.486  17.987  0.00  0.00    +0.000 A 
ATOM      3  C   UNL     1       2.601   6.749  18.843  0.00  0.00    +0.000 A 
ATOM      4  C   UNL     1       2.315   5.759  19.778  0.00  0.00    +0.000 A 
ATOM      5  C   UNL     1       3.149   4.605  19.886  0.00  0.00    +0.000 A 
ATOM      6  C   UNL     1       4.285   4.390  19.080  0.00  0.00    +0.000 A 
ENDROOT
BRANCH   3   7
ATOM      7  N   UNL     1       2.032   8.095  18.914  0.00  0.00    +0.000 N 
ATOM      8  C   UNL     1       2.623   8.810  17.732  0.00  0.00    +0.000 C 
BRANCH   7   9
ATOM      9  C   UNL     1       1.277   8.869  19.877  0.00  0.00    +0.000 A 
ATOM     10  C   UNL     1       1.330   8.517  21.184  0.00  0.00    +0.000 A 
ATOM     11  C   UNL     1       0.799   9.337  22.263  0.00  0.00    +0.000 A 
ATOM     12  O   UNL     1       1.391   9.538  23.311  0.00  0.00    +0.000 OA
ATOM     13  O   UNL     1      -0.494   9.664  22.003  0.00  0.00    +0.000 OA
ATOM     14  C   UNL     1      -0.411  10.480  20.870  0.00  0.00    +0.000 A 
ATOM     15  C   UNL     1      -1.167  11.660  21.040  0.00  0.00    +0.000 A 
ATOM     16  C   UNL     1      -0.979  12.678  20.114  0.00  0.00    +0.000 A 
ATOM     17  C   UNL     1      -0.090  12.467  19.056  0.00  0.00    +0.000 A 
ATOM     18  C   UNL     1       0.612  11.233  18.868  0.00  0.00    +0.000 A 
ATOM     19  C   UNL     1       0.475  10.176  19.775  0.00  0.00    +0.000 A 
ENDBRANCH   7   9
ENDBRANCH   3   7
BRANCH   6  20
ATOM     20  O   UNL     1       4.955   3.235  19.365  0.00  0.00    +0.000 OA
ATOM     21  C   UNL     1       4.377   2.252  20.213  0.00  0.00    +0.000 C 
ENDBRANCH   6  20
BRANCH   1  22
ATOM     22  O   UNL     1       5.727   5.126  17.262  0.00  0.00    +0.000 OA
BRANCH  22  23
ATOM     23  C   UNL     1       7.052   5.136  17.714  0.00  0.00    +0.000 C 
ATOM     24  O   UNL     1       7.939   4.395  17.304  0.00  0.00    +0.000 OA
BRANCH  23  25
ATOM     25  C   UNL     1       7.344   6.247  18.717  0.00  0.00    +0.000 C 
BRANCH  25  26
ATOM     26  C   UNL     1       8.369   7.324  18.365  0.00  0.00    +0.000 C 
BRANCH  26  28
ATOM     27  C   UNL     1       8.607   9.875  18.229  0.00  0.00    +0.000 C 
ATOM     28  C   UNL     1       7.802   8.644  17.843  0.00  0.00    +0.000 C 
ENDBRANCH  26  28
ENDBRANCH  25  26
ENDBRANCH  23  25
ENDBRANCH  22  23
ENDBRANCH   1  22
TORSDOF 8
ENDMDL
MODEL 8
REMARK VINA RESULT:      -7.3      3.209      8.369
REMARK  Name = 
REMARK  11 active torsions:
REMARK  status: ('A' for Active; 'I' for Inactive)
REMARK    1  A    between atoms: C_1  and  C_2
REMARK    2  A    between atoms: C_2  and  C_3
REMARK    3  A    between atoms: C_3  and  C_4
REMARK    4  A    between atoms: C_4  and  C_5
REMARK    5  A    between atoms: C_5  and  O_7
REMARK    6  A    between atoms: O_7  and  C_8
REMARK    7  A    between atoms: C_10  and  N_11
REMARK    8  A    between atoms: N_11  and  C_12
REMARK    9  A    between atoms: N_11  and  C_13
REMARK   10  A    between atoms: C_26  and  O_27
REMARK   11  A    between atoms: O_27  and  C_28
REMARK                            x       y       z     vdW  Elec       q    Type
REMARK                         _______ _______ _______ _____ _____    ______ ____
ROOT
ATOM      1  C   UNL     1       1.438   8.778  20.219  0.00  0.00    +0.000 A 
ATOM      2  C   UNL     1       2.133   7.547  20.052  0.00  0.00    +0.000 A 
ATOM      3  C   UNL     1       2.607   7.047  18.777  0.00  0.00    +0.000 A 
ATOM      4  C   UNL     1       2.299   7.837  17.673  0.00  0.00    +0.000 A 
ATOM      5  C   UNL     1       1.609   9.075  17.842  0.00  0.00    +0.000 A 
ATOM      6  C   UNL     1       1.200   9.572  19.097  0.00  0.00    +0.000 A 
ENDROOT
BRANCH   3   7
ATOM      7  N   UNL     1       3.606   5.979  18.733  0.00  0.00    +0.000 N 
ATOM      8  C   UNL     1       3.154   5.006  19.785  0.00  0.00    +0.000 C 
BRANCH   7   9
ATOM      9  C   UNL     1       4.902   5.773  18.120  0.00  0.00    +0.000 A 
ATOM     10  C   UNL     1       6.013   5.886  18.886  0.00  0.00    +0.000 A 
ATOM     11  C   UNL     1       7.343   5.492  18.444  0.00  0.00    +0.000 A 
ATOM     12  O   UNL     1       8.125   4.862  19.138  0.00  0.00    +0.000 OA
ATOM     13  O   UNL     1       7.630   6.087  17.257  0.00  0.00    +0.000 OA
ATOM     14  C   UNL     1       6.716   5.516  16.366  0.00  0.00    +0.000 A 
ATOM     15  C   UNL     1       7.362   5.074  15.191  0.00  0.00    +0.000 A 
ATOM     16  C   UNL     1       6.636   4.262  14.329  0.00  0.00    +0.000 A 
ATOM     17  C   UNL     1       5.309   3.960  14.651  0.00  0.00    +0.000 A 
ATOM     18  C   UNL     1       4.656   4.478  15.816  0.00  0.00    +0.000 A 
ATOM     19  C   UNL     1       5.340   5.291  16.728  0.00  0.00    +0.000 A 
ENDBRANCH   7   9
ENDBRANCH   3   7
BRANCH   6  20
ATOM     20  O   UNL     1       0.578  10.786  19.035  0.00  0.00    +0.000 OA
ATOM     21  C   UNL     1       1.309  11.986  19.238  0.00  0.00    +0.000 C 
ENDBRANCH   6  20
BRANCH   1  22
ATOM     22  O   UNL     1       1.029   9.275  21.506  0.00  0.00    +0.000 OA
BRANCH  22  23
ATOM     23  C   UNL     1      -0.227   9.064  22.089  0.00  0.00    +0.000 C 
ATOM     24  O   UNL     1      -0.923   8.069  21.917  0.00  0.00    +0.000 OA
BRANCH  23  25
ATOM     25  C   UNL     1      -0.634  10.160  23.067  0.00  0.00    +0.000 C 
BRANCH  25  26
ATOM     26  C   UNL     1      -1.424  11.365  22.557  0.00  0.00    +0.000 C 
BRANCH  26  28
ATOM     27  C   UNL     1      -1.308  13.720  21.547  0.00  0.00    +0.000 C 
ATOM     28  C   UNL     1      -0.642  12.672  22.424  0.00  0.00    +0.000 C 
ENDBRANCH  26  28
ENDBRANCH  25  26
ENDBRANCH  23  25
ENDBRANCH  22  23
ENDBRANCH   1  22
TORSDOF 8
ENDMDL
MODEL 9
REMARK VINA RESULT:      -7.3      2.581      3.656
REMARK  Name = 
REMARK  11 active torsions:
REMARK  status: ('A' for Active; 'I' for Inactive)
REMARK    1  A    between atoms: C_1  and  C_2
REMARK    2  A    between atoms: C_2  and  C_3
REMARK    3  A    between atoms: C_3  and  C_4
REMARK    4  A    between atoms: C_4  and  C_5
REMARK    5  A    between atoms: C_5  and  O_7
REMARK    6  A    between atoms: O_7  and  C_8
REMARK    7  A    between atoms: C_10  and  N_11
REMARK    8  A    between atoms: N_11  and  C_12
REMARK    9  A    between atoms: N_11  and  C_13
REMARK   10  A    between atoms: C_26  and  O_27
REMARK   11  A    between atoms: O_27  and  C_28
REMARK                            x       y       z     vdW  Elec       q    Type
REMARK                         _______ _______ _______ _____ _____    ______ ____
ROOT
ATOM      1  C   UNL     1       2.838   4.764  17.563  0.00  0.00    +0.000 A 
ATOM      2  C   UNL     1       2.134   5.852  18.152  0.00  0.00    +0.000 A 
ATOM      3  C   UNL     1       2.730   7.138  18.455  0.00  0.00    +0.000 A 
ATOM      4  C   UNL     1       4.089   7.248  18.174  0.00  0.00    +0.000 A 
ATOM      5  C   UNL     1       4.793   6.159  17.577  0.00  0.00    +0.000 A 
ATOM      6  C   UNL     1       4.184   4.932  17.240  0.00  0.00    +0.000 A 
ENDROOT
BRANCH   3   7
ATOM      7  N   UNL     1       1.879   8.299  18.716  0.00  0.00    +0.000 N 
ATOM      8  C   UNL     1       1.912   9.078  17.432  0.00  0.00    +0.000 C 
BRANCH   7   9
ATOM      9  C   UNL     1       1.251   8.905  19.871  0.00  0.00    +0.000 A 
ATOM     10  C   UNL     1       1.602   8.475  21.108  0.00  0.00    +0.000 A 
ATOM     11  C   UNL     1       1.211   9.147  22.338  0.00  0.00    +0.000 A 
ATOM     12  O   UNL     1       1.976   9.350  23.267  0.00  0.00    +0.000 OA
ATOM     13  O   UNL     1      -0.135   9.326  22.359  0.00  0.00    +0.000 OA
ATOM     14  C   UNL     1      -0.372  10.220  21.310  0.00  0.00    +0.000 A 
ATOM     15  C   UNL     1      -1.203  11.282  21.727  0.00  0.00    +0.000 A 
ATOM     16  C   UNL     1      -1.317  12.376  20.879  0.00  0.00    +0.000 A 
ATOM     17  C   UNL     1      -0.640  12.350  19.656  0.00  0.00    +0.000 A 
ATOM     18  C   UNL     1       0.142  11.229  19.226  0.00  0.00    +0.000 A 
ATOM     19  C   UNL     1       0.306  10.104  20.044  0.00  0.00    +0.000 A 
ENDBRANCH   7   9
ENDBRANCH   3   7
BRANCH   6  20
ATOM     20  O   UNL     1       5.033   4.036  16.656  0.00  0.00    +0.000 OA
ATOM     21  C   UNL     1       5.476   4.223  15.319  0.00  0.00    +0.000 C 
ENDBRANCH   6  20
BRANCH   1  22
ATOM     22  O   UNL     1       2.204   3.518  17.222  0.00  0.00    +0.000 OA
BRANCH  22  23
ATOM     23  C   UNL     1       2.139   2.393  18.053  0.00  0.00    +0.000 C 
ATOM     24  O   UNL     1       3.064   1.613  18.253  0.00  0.00    +0.000 OA
BRANCH  23  25
ATOM     25  C   UNL     1       0.815   2.262  18.797  0.00  0.00    +0.000 C 
BRANCH  25  26
ATOM     26  C   UNL     1       0.577   3.097  20.055  0.00  0.00    +0.000 C 
BRANCH  26  28
ATOM     27  C   UNL     1       2.390   4.376  21.342  0.00  0.00    +0.000 C 
ATOM     28  C   UNL     1       1.683   3.051  21.110  0.00  0.00    +0.000 C 
ENDBRANCH  26  28
ENDBRANCH  25  26
ENDBRANCH  23  25
ENDBRANCH  22  23
ENDBRANCH   1  22
TORSDOF 8
ENDMDL
