MODEL 1
REMARK VINA RESULT:      -8.7      0.000      0.000
REMARK  Name = 
REMARK  13 active torsions:
REMARK  status: ('A' for Active; 'I' for Inactive)
REMARK    1  A    between atoms: C_1  and  C_2
REMARK    2  A    between atoms: C_2  and  C_3
REMARK    3  A    between atoms: C_2  and  C_4
REMARK    4  A    between atoms: C_2  and  C_5
REMARK    5  A    between atoms: C_8  and  C_9
REMARK    6  A    between atoms: C_9  and  N_10
REMARK    7  A    between atoms: C_12  and  C_13
REMARK    8  A    between atoms: C_20  and  C_21
REMARK    9  A    between atoms: N_23  and  N_24
REMARK   10  A    between atoms: N_24  and  C_25
REMARK   11  A    between atoms: C_28  and  O_29
REMARK   12  A    between atoms: C_30  and  O_31
REMARK   13  A    between atoms: C_32  and  O_33
REMARK                            x       y       z     vdW  Elec       q    Type
REMARK                         _______ _______ _______ _____ _____    ______ ____
ROOT
ATOM      1  N   UNL     1       5.778   7.269  17.406  0.00  0.00    +0.000 N 
ATOM      2  N   UNL     1       6.185   8.552  17.549  0.00  0.00    +0.000 NA
ATOM      3  C   UNL     1       7.460   8.472  17.941  0.00  0.00    +0.000 A 
ATOM      4  C   UNL     1       7.854   7.116  18.066  0.00  0.00    +0.000 A 
ATOM      5  C   UNL     1       6.752   6.348  17.724  0.00  0.00    +0.000 A 
ENDROOT
BRANCH   3   6
ATOM      6  C   UNL     1       8.269   9.668  18.153  0.00  0.00    +0.000 A 
ATOM      7  C   UNL     1       9.299   9.675  19.106  0.00  0.00    +0.000 A 
ATOM      8  C   UNL     1      10.045  10.834  19.334  0.00  0.00    +0.000 A 
ATOM      9  C   UNL     1       9.766  11.996  18.618  0.00  0.00    +0.000 A 
ATOM     10  C   UNL     1       8.750  11.999  17.663  0.00  0.00    +0.000 A 
ATOM     11  C   UNL     1       8.008  10.840  17.428  0.00  0.00    +0.000 A 
ENDBRANCH   3   6
BRANCH   5  12
ATOM     12  C   UNL     1       6.587   4.913  17.666  0.00  0.00    +0.000 C 
ATOM     13  O   UNL     1       7.466   4.111  17.981  0.00  0.00    +0.000 OA
ATOM     14  N   UNL     1       5.329   4.469  17.269  0.00  0.00    +0.000 N 
ATOM     15  H   UNL     1       4.588   5.105  16.990  0.00  0.00    +0.000 HD
BRANCH  14  16
ATOM     16  N   UNL     1       5.029   3.080  17.311  0.00  0.00    +0.000 NA
ATOM     17  H   UNL     1       5.814   2.629  17.809  0.00  0.00    +0.000 HD
BRANCH  16  18
ATOM     18  C   UNL     1       3.807   2.812  18.083  0.00  0.00    +0.000 C 
ATOM     19  O   UNL     1       2.799   3.775  17.759  0.00  0.00    +0.000 OA
ATOM     20  C   UNL     1       1.548   3.469  18.372  0.00  0.00    +0.000 C 
ATOM     21  C   UNL     1       1.661   3.527  19.893  0.00  0.00    +0.000 C 
ATOM     22  C   UNL     1       2.744   2.545  20.369  0.00  0.00    +0.000 C 
ATOM     23  C   UNL     1       4.067   2.771  19.613  0.00  0.00    +0.000 C 
BRANCH  21  24
ATOM     24  O   UNL     1       0.389   3.247  20.480  0.00  0.00    +0.000 OA
ATOM     25  H   UNL     1      -0.207   4.000  20.318  0.00  0.00    +0.000 HD
ENDBRANCH  21  24
BRANCH  22  26
ATOM     26  O   UNL     1       2.934   2.663  21.785  0.00  0.00    +0.000 OA
ATOM     27  H   UNL     1       3.857   2.432  21.998  0.00  0.00    +0.000 HD
ENDBRANCH  22  26
BRANCH  23  28
ATOM     28  O   UNL     1       5.026   1.757  19.944  0.00  0.00    +0.000 OA
ATOM     29  H   UNL     1       5.890   2.001  19.573  0.00  0.00    +0.000 HD
ENDBRANCH  23  28
ENDBRANCH  16  18
ENDBRANCH  14  16
ENDBRANCH   5  12
BRANCH   1  30
ATOM     30  C   UNL     1       4.419   7.036  16.910  0.00  0.00    +0.000 C 
BRANCH  30  34
ATOM     31  C   UNL     1       1.387   8.760  19.539  0.00  0.00    +0.000 A 
ATOM     32  C   UNL     1       2.065   7.585  19.884  0.00  0.00    +0.000 A 
ATOM     33  C   UNL     1       3.028   7.018  19.043  0.00  0.00    +0.000 A 
ATOM     34  C   UNL     1       3.338   7.595  17.808  0.00  0.00    +0.000 A 
ATOM     35  C   UNL     1       2.688   8.786  17.461  0.00  0.00    +0.000 A 
ATOM     36  C   UNL     1       1.725   9.354  18.307  0.00  0.00    +0.000 A 
BRANCH  31  38
ATOM     37  C   UNL     1       0.927  10.500  21.381  0.00  0.00    +0.000 C 
ATOM     38  C   UNL     1       0.340   9.399  20.465  0.00  0.00    +0.000 C 
ATOM     39  C   UNL     1      -0.281   8.327  21.385  0.00  0.00    +0.000 C 
ATOM     40  C   UNL     1      -0.774  10.050  19.619  0.00  0.00    +0.000 C 
ENDBRANCH  31  38
ENDBRANCH  30  34
ENDBRANCH   1  30
TORSDOF 10
ENDMDL
MODEL 2
REMARK VINA RESULT:      -8.6      0.081      1.112
REMARK  Name = 
REMARK  13 active torsions:
REMARK  status: ('A' for Active; 'I' for Inactive)
REMARK    1  A    between atoms: C_1  and  C_2
REMARK    2  A    between atoms: C_2  and  C_3
REMARK    3  A    between atoms: C_2  and  C_4
REMARK    4  A    between atoms: C_2  and  C_5
REMARK    5  A    between atoms: C_8  and  C_9
REMARK    6  A    between atoms: C_9  and  N_10
REMARK    7  A    between atoms: C_12  and  C_13
REMARK    8  A    between atoms: C_20  and  C_21
REMARK    9  A    between atoms: N_23  and  N_24
REMARK   10  A    between atoms: N_24  and  C_25
REMARK   11  A    between atoms: C_28  and  O_29
REMARK   12  A    between atoms: C_30  and  O_31
REMARK   13  A    between atoms: C_32  and  O_33
REMARK                            x       y       z     vdW  Elec       q    Type
REMARK                         _______ _______ _______ _____ _____    ______ ____
ROOT
ATOM      1  N   UNL     1       5.780   7.290  17.423  0.00  0.00    +0.000 N 
ATOM      2  N   UNL     1       6.185   8.575  17.565  0.00  0.00    +0.000 NA
ATOM      3  C   UNL     1       7.457   8.498  17.965  0.00  0.00    +0.000 A 
ATOM      4  C   UNL     1       7.852   7.143  18.099  0.00  0.00    +0.000 A 
ATOM      5  C   UNL     1       6.754   6.372  17.751  0.00  0.00    +0.000 A 
ENDROOT
BRANCH   3   6
ATOM      6  C   UNL     1       8.262   9.697  18.179  0.00  0.00    +0.000 A 
ATOM      7  C   UNL     1       8.004  10.870  17.454  0.00  0.00    +0.000 A 
ATOM      8  C   UNL     1       8.803  12.003  17.633  0.00  0.00    +0.000 A 
ATOM      9  C   UNL     1       9.867  11.972  18.531  0.00  0.00    +0.000 A 
ATOM     10  C   UNL     1      10.128  10.814  19.262  0.00  0.00    +0.000 A 
ATOM     11  C   UNL     1       9.327   9.683  19.091  0.00  0.00    +0.000 A 
ENDBRANCH   3   6
BRANCH   5  12
ATOM     12  C   UNL     1       6.592   4.937  17.698  0.00  0.00    +0.000 C 
ATOM     13  O   UNL     1       7.460   4.138  18.049  0.00  0.00    +0.000 OA
ATOM     14  N   UNL     1       5.349   4.489  17.261  0.00  0.00    +0.000 N 
ATOM     15  H   UNL     1       4.617   5.122  16.952  0.00  0.00    +0.000 HD
BRANCH  14  16
ATOM     16  N   UNL     1       5.048   3.100  17.301  0.00  0.00    +0.000 NA
ATOM     17  H   UNL     1       5.831   2.649  17.802  0.00  0.00    +0.000 HD
BRANCH  16  18
ATOM     18  C   UNL     1       3.823   2.832  18.071  0.00  0.00    +0.000 C 
ATOM     19  O   UNL     1       2.822   3.803  17.753  0.00  0.00    +0.000 OA
ATOM     20  C   UNL     1       1.568   3.499  18.363  0.00  0.00    +0.000 C 
ATOM     21  C   UNL     1       1.680   3.544  19.884  0.00  0.00    +0.000 C 
ATOM     22  C   UNL     1       2.757   2.553  20.353  0.00  0.00    +0.000 C 
ATOM     23  C   UNL     1       4.082   2.778  19.601  0.00  0.00    +0.000 C 
BRANCH  21  24
ATOM     24  O   UNL     1       0.405   3.267  20.468  0.00  0.00    +0.000 OA
ATOM     25  H   UNL     1      -0.145   4.068  20.422  0.00  0.00    +0.000 HD
ENDBRANCH  21  24
BRANCH  22  26
ATOM     26  O   UNL     1       2.946   2.659  21.770  0.00  0.00    +0.000 OA
ATOM     27  H   UNL     1       3.370   3.516  21.966  0.00  0.00    +0.000 HD
ENDBRANCH  22  26
BRANCH  23  28
ATOM     28  O   UNL     1       5.036   1.757  19.924  0.00  0.00    +0.000 OA
ATOM     29  H   UNL     1       4.584   0.898  19.963  0.00  0.00    +0.000 HD
ENDBRANCH  23  28
ENDBRANCH  16  18
ENDBRANCH  14  16
ENDBRANCH   5  12
BRANCH   1  30
ATOM     30  C   UNL     1       4.425   7.053  16.920  0.00  0.00    +0.000 C 
BRANCH  30  34
ATOM     31  C   UNL     1       1.377   8.836  19.490  0.00  0.00    +0.000 A 
ATOM     32  C   UNL     1       2.021   7.644  19.845  0.00  0.00    +0.000 A 
ATOM     33  C   UNL     1       2.989   7.059  19.022  0.00  0.00    +0.000 A 
ATOM     34  C   UNL     1       3.338   7.633  17.796  0.00  0.00    +0.000 A 
ATOM     35  C   UNL     1       2.722   8.840  17.440  0.00  0.00    +0.000 A 
ATOM     36  C   UNL     1       1.754   9.427  18.268  0.00  0.00    +0.000 A 
BRANCH  31  38
ATOM     37  C   UNL     1      -0.896  10.038  19.617  0.00  0.00    +0.000 C 
ATOM     38  C   UNL     1       0.325   9.494  20.396  0.00  0.00    +0.000 C 
ATOM     39  C   UNL     1       0.946  10.684  21.155  0.00  0.00    +0.000 C 
ATOM     40  C   UNL     1      -0.203   8.462  21.415  0.00  0.00    +0.000 C 
ENDBRANCH  31  38
ENDBRANCH  30  34
ENDBRANCH   1  30
TORSDOF 10
ENDMDL
MODEL 3
REMARK VINA RESULT:      -8.6      0.127      1.079
REMARK  Name = 
REMARK  13 active torsions:
REMARK  status: ('A' for Active; 'I' for Inactive)
REMARK    1  A    between atoms: C_1  and  C_2
REMARK    2  A    between atoms: C_2  and  C_3
REMARK    3  A    between atoms: C_2  and  C_4
REMARK    4  A    between atoms: C_2  and  C_5
REMARK    5  A    between atoms: C_8  and  C_9
REMARK    6  A    between atoms: C_9  and  N_10
REMARK    7  A    between atoms: C_12  and  C_13
REMARK    8  A    between atoms: C_20  and  C_21
REMARK    9  A    between atoms: N_23  and  N_24
REMARK   10  A    between atoms: N_24  and  C_25
REMARK   11  A    between atoms: C_28  and  O_29
REMARK   12  A    between atoms: C_30  and  O_31
REMARK   13  A    between atoms: C_32  and  O_33
REMARK                            x       y       z     vdW  Elec       q    Type
REMARK                         _______ _______ _______ _____ _____    ______ ____
ROOT
ATOM      1  N   UNL     1       5.724   7.268  17.464  0.00  0.00    +0.000 N 
ATOM      2  N   UNL     1       6.138   8.549  17.614  0.00  0.00    +0.000 NA
ATOM      3  C   UNL     1       7.433   8.462  17.930  0.00  0.00    +0.000 A 
ATOM      4  C   UNL     1       7.834   7.105  18.002  0.00  0.00    +0.000 A 
ATOM      5  C   UNL     1       6.716   6.342  17.705  0.00  0.00    +0.000 A 
ENDROOT
BRANCH   3   6
ATOM      6  C   UNL     1       8.251   9.656  18.123  0.00  0.00    +0.000 A 
ATOM      7  C   UNL     1       9.310   9.655  19.043  0.00  0.00    +0.000 A 
ATOM      8  C   UNL     1      10.066  10.812  19.253  0.00  0.00    +0.000 A 
ATOM      9  C   UNL     1       9.768  11.978  18.552  0.00  0.00    +0.000 A 
ATOM     10  C   UNL     1       8.722  11.988  17.630  0.00  0.00    +0.000 A 
ATOM     11  C   UNL     1       7.970  10.832  17.412  0.00  0.00    +0.000 A 
ENDBRANCH   3   6
BRANCH   5  12
ATOM     12  C   UNL     1       6.550   4.909  17.625  0.00  0.00    +0.000 C 
ATOM     13  O   UNL     1       7.435   4.101  17.908  0.00  0.00    +0.000 OA
ATOM     14  N   UNL     1       5.285   4.472  17.244  0.00  0.00    +0.000 N 
ATOM     15  H   UNL     1       4.538   5.112  16.992  0.00  0.00    +0.000 HD
BRANCH  14  16
ATOM     16  N   UNL     1       4.986   3.082  17.266  0.00  0.00    +0.000 NA
ATOM     17  H   UNL     1       5.778   2.622  17.744  0.00  0.00    +0.000 HD
BRANCH  16  18
ATOM     18  C   UNL     1       3.775   2.800  18.052  0.00  0.00    +0.000 C 
ATOM     19  O   UNL     1       2.740   3.727  17.711  0.00  0.00    +0.000 OA
ATOM     20  C   UNL     1       1.501   3.403  18.339  0.00  0.00    +0.000 C 
ATOM     21  C   UNL     1       1.620   3.502  19.857  0.00  0.00    +0.000 C 
ATOM     22  C   UNL     1       2.733   2.561  20.351  0.00  0.00    +0.000 C 
ATOM     23  C   UNL     1       4.045   2.804  19.582  0.00  0.00    +0.000 C 
BRANCH  21  24
ATOM     24  O   UNL     1       0.359   3.202  20.459  0.00  0.00    +0.000 OA
ATOM     25  H   UNL     1       0.469   3.170  21.425  0.00  0.00    +0.000 HD
ENDBRANCH  21  24
BRANCH  22  26
ATOM     26  O   UNL     1       2.926   2.720  21.762  0.00  0.00    +0.000 OA
ATOM     27  H   UNL     1       3.507   3.488  21.914  0.00  0.00    +0.000 HD
ENDBRANCH  22  26
BRANCH  23  28
ATOM     28  O   UNL     1       5.033   1.825  19.931  0.00  0.00    +0.000 OA
ATOM     29  H   UNL     1       5.915   2.171  19.717  0.00  0.00    +0.000 HD
ENDBRANCH  23  28
ENDBRANCH  16  18
ENDBRANCH  14  16
ENDBRANCH   5  12
BRANCH   1  30
ATOM     30  C   UNL     1       4.339   7.042  17.042  0.00  0.00    +0.000 C 
BRANCH  30  34
ATOM     31  C   UNL     1       1.284   8.904  19.547  0.00  0.00    +0.000 A 
ATOM     32  C   UNL     1       1.664   9.469  18.323  0.00  0.00    +0.000 A 
ATOM     33  C   UNL     1       2.651   8.887  17.520  0.00  0.00    +0.000 A 
ATOM     34  C   UNL     1       3.315   7.724  17.921  0.00  0.00    +0.000 A 
ATOM     35  C   UNL     1       2.926   7.132  19.130  0.00  0.00    +0.000 A 
ATOM     36  C   UNL     1       1.934   7.715  19.932  0.00  0.00    +0.000 A 
BRANCH  31  38
ATOM     37  C   UNL     1      -0.377   8.547  21.481  0.00  0.00    +0.000 C 
ATOM     38  C   UNL     1       0.189   9.528  20.427  0.00  0.00    +0.000 C 
ATOM     39  C   UNL     1      -0.996   9.990  19.554  0.00  0.00    +0.000 C 
ATOM     40  C   UNL     1       0.763  10.741  21.189  0.00  0.00    +0.000 C 
ENDBRANCH  31  38
ENDBRANCH  30  34
ENDBRANCH   1  30
TORSDOF 10
ENDMDL
MODEL 4
REMARK VINA RESULT:      -8.4      0.195      1.166
REMARK  Name = 
REMARK  13 active torsions:
REMARK  status: ('A' for Active; 'I' for Inactive)
REMARK    1  A    between atoms: C_1  and  C_2
REMARK    2  A    between atoms: C_2  and  C_3
REMARK    3  A    between atoms: C_2  and  C_4
REMARK    4  A    between atoms: C_2  and  C_5
REMARK    5  A    between atoms: C_8  and  C_9
REMARK    6  A    between atoms: C_9  and  N_10
REMARK    7  A    between atoms: C_12  and  C_13
REMARK    8  A    between atoms: C_20  and  C_21
REMARK    9  A    between atoms: N_23  and  N_24
REMARK   10  A    between atoms: N_24  and  C_25
REMARK   11  A    between atoms: C_28  and  O_29
REMARK   12  A    between atoms: C_30  and  O_31
REMARK   13  A    between atoms: C_32  and  O_33
REMARK                            x       y       z     vdW  Elec       q    Type
REMARK                         _______ _______ _______ _____ _____    ______ ____
ROOT
ATOM      1  N   UNL     1       5.713   7.338  17.375  0.00  0.00    +0.000 N 
ATOM      2  N   UNL     1       6.122   8.610  17.597  0.00  0.00    +0.000 NA
ATOM      3  C   UNL     1       7.421   8.512  17.893  0.00  0.00    +0.000 A 
ATOM      4  C   UNL     1       7.830   7.155  17.879  0.00  0.00    +0.000 A 
ATOM      5  C   UNL     1       6.712   6.406  17.549  0.00  0.00    +0.000 A 
ENDROOT
BRANCH   3   6
ATOM      6  C   UNL     1       8.236   9.696  18.149  0.00  0.00    +0.000 A 
ATOM      7  C   UNL     1       8.004  10.889  17.447  0.00  0.00    +0.000 A 
ATOM      8  C   UNL     1       8.811  12.008  17.666  0.00  0.00    +0.000 A 
ATOM      9  C   UNL     1       9.859  11.944  18.581  0.00  0.00    +0.000 A 
ATOM     10  C   UNL     1      10.095  10.766  19.290  0.00  0.00    +0.000 A 
ATOM     11  C   UNL     1       9.285   9.649  19.079  0.00  0.00    +0.000 A 
ENDBRANCH   3   6
BRANCH   5  12
ATOM     12  C   UNL     1       6.551   4.979  17.385  0.00  0.00    +0.000 C 
ATOM     13  O   UNL     1       7.493   4.190  17.306  0.00  0.00    +0.000 OA
ATOM     14  N   UNL     1       5.237   4.521  17.366  0.00  0.00    +0.000 N 
ATOM     15  H   UNL     1       4.439   5.147  17.416  0.00  0.00    +0.000 HD
BRANCH  14  16
ATOM     16  N   UNL     1       4.981   3.122  17.343  0.00  0.00    +0.000 NA
ATOM     17  H   UNL     1       5.788   2.672  17.806  0.00  0.00    +0.000 HD
BRANCH  16  18
ATOM     18  C   UNL     1       3.781   2.777  18.120  0.00  0.00    +0.000 C 
ATOM     19  O   UNL     1       2.708   3.662  17.785  0.00  0.00    +0.000 OA
ATOM     20  C   UNL     1       1.482   3.277  18.404  0.00  0.00    +0.000 C 
ATOM     21  C   UNL     1       1.590   3.362  19.924  0.00  0.00    +0.000 C 
ATOM     22  C   UNL     1       2.741   2.465  20.411  0.00  0.00    +0.000 C 
ATOM     23  C   UNL     1       4.044   2.775  19.651  0.00  0.00    +0.000 C 
BRANCH  21  24
ATOM     24  O   UNL     1       0.341   3.000  20.516  0.00  0.00    +0.000 OA
ATOM     25  H   UNL     1      -0.076   3.797  20.888  0.00  0.00    +0.000 HD
ENDBRANCH  21  24
BRANCH  22  26
ATOM     26  O   UNL     1       2.922   2.615  21.825  0.00  0.00    +0.000 OA
ATOM     27  H   UNL     1       3.872   2.531  22.030  0.00  0.00    +0.000 HD
ENDBRANCH  22  26
BRANCH  23  28
ATOM     28  O   UNL     1       5.073   1.836  19.993  0.00  0.00    +0.000 OA
ATOM     29  H   UNL     1       5.857   2.319  20.303  0.00  0.00    +0.000 HD
ENDBRANCH  23  28
ENDBRANCH  16  18
ENDBRANCH  14  16
ENDBRANCH   5  12
BRANCH   1  30
ATOM     30  C   UNL     1       4.325   7.132  16.955  0.00  0.00    +0.000 C 
BRANCH  30  34
ATOM     31  C   UNL     1       1.293   8.929  19.535  0.00  0.00    +0.000 A 
ATOM     32  C   UNL     1       1.665   9.527  18.324  0.00  0.00    +0.000 A 
ATOM     33  C   UNL     1       2.644   8.966  17.498  0.00  0.00    +0.000 A 
ATOM     34  C   UNL     1       3.309   7.790  17.861  0.00  0.00    +0.000 A 
ATOM     35  C   UNL     1       2.928   7.165  19.056  0.00  0.00    +0.000 A 
ATOM     36  C   UNL     1       1.944   7.728  19.881  0.00  0.00    +0.000 A 
BRANCH  31  38
ATOM     37  C   UNL     1       0.709  10.727  21.283  0.00  0.00    +0.000 C 
ATOM     38  C   UNL     1       0.206   9.530  20.440  0.00  0.00    +0.000 C 
ATOM     39  C   UNL     1      -0.312   8.465  21.428  0.00  0.00    +0.000 C 
ATOM     40  C   UNL     1      -0.968  10.037  19.577  0.00  0.00    +0.000 C 
ENDBRANCH  31  38
ENDBRANCH  30  34
ENDBRANCH   1  30
TORSDOF 10
ENDMDL
MODEL 5
REMARK VINA RESULT:      -8.3      4.019      7.882
REMARK  Name = 
REMARK  13 active torsions:
REMARK  status: ('A' for Active; 'I' for Inactive)
REMARK    1  A    between atoms: C_1  and  C_2
REMARK    2  A    between atoms: C_2  and  C_3
REMARK    3  A    between atoms: C_2  and  C_4
REMARK    4  A    between atoms: C_2  and  C_5
REMARK    5  A    between atoms: C_8  and  C_9
REMARK    6  A    between atoms: C_9  and  N_10
REMARK    7  A    between atoms: C_12  and  C_13
REMARK    8  A    between atoms: C_20  and  C_21
REMARK    9  A    between atoms: N_23  and  N_24
REMARK   10  A    between atoms: N_24  and  C_25
REMARK   11  A    between atoms: C_28  and  O_29
REMARK   12  A    between atoms: C_30  and  O_31
REMARK   13  A    between atoms: C_32  and  O_33
REMARK                            x       y       z     vdW  Elec       q    Type
REMARK                         _______ _______ _______ _____ _____    ______ ____
ROOT
ATOM      1  N   UNL     1       5.824   6.563  16.736  0.00  0.00    +0.000 N 
ATOM      2  N   UNL     1       5.462   5.981  15.568  0.00  0.00    +0.000 NA
ATOM      3  C   UNL     1       6.594   5.493  15.055  0.00  0.00    +0.000 A 
ATOM      4  C   UNL     1       7.690   5.792  15.904  0.00  0.00    +0.000 A 
ATOM      5  C   UNL     1       7.177   6.491  16.985  0.00  0.00    +0.000 A 
ENDROOT
BRANCH   3   6
ATOM      6  C   UNL     1       6.602   4.739  13.805  0.00  0.00    +0.000 A 
ATOM      7  C   UNL     1       7.568   4.997  12.821  0.00  0.00    +0.000 A 
ATOM      8  C   UNL     1       7.548   4.301  11.609  0.00  0.00    +0.000 A 
ATOM      9  C   UNL     1       6.562   3.348  11.368  0.00  0.00    +0.000 A 
ATOM     10  C   UNL     1       5.601   3.078  12.342  0.00  0.00    +0.000 A 
ATOM     11  C   UNL     1       5.623   3.766  13.557  0.00  0.00    +0.000 A 
ENDBRANCH   3   6
BRANCH   5  12
ATOM     12  C   UNL     1       7.836   7.034  18.151  0.00  0.00    +0.000 C 
ATOM     13  O   UNL     1       8.103   6.373  19.155  0.00  0.00    +0.000 OA
ATOM     14  N   UNL     1       8.207   8.372  18.062  0.00  0.00    +0.000 N 
ATOM     15  H   UNL     1       7.990   8.947  17.255  0.00  0.00    +0.000 HD
BRANCH  14  16
ATOM     16  N   UNL     1       8.978   8.958  19.105  0.00  0.00    +0.000 NA
ATOM     17  H   UNL     1       9.964   8.725  18.902  0.00  0.00    +0.000 HD
BRANCH  16  18
ATOM     18  C   UNL     1       8.864  10.424  19.104  0.00  0.00    +0.000 C 
ATOM     19  O   UNL     1       9.240  10.947  17.827  0.00  0.00    +0.000 OA
ATOM     20  C   UNL     1       9.006  12.350  17.731  0.00  0.00    +0.000 C 
ATOM     21  C   UNL     1       9.871  13.114  18.729  0.00  0.00    +0.000 C 
ATOM     22  C   UNL     1       9.577  12.618  20.155  0.00  0.00    +0.000 C 
ATOM     23  C   UNL     1       9.690  11.085  20.242  0.00  0.00    +0.000 C 
BRANCH  21  24
ATOM     24  O   UNL     1       9.639  14.518  18.591  0.00  0.00    +0.000 OA
ATOM     25  H   UNL     1      10.098  14.838  17.795  0.00  0.00    +0.000 HD
ENDBRANCH  21  24
BRANCH  22  26
ATOM     26  O   UNL     1      10.456  13.253  21.092  0.00  0.00    +0.000 OA
ATOM     27  H   UNL     1      10.942  13.964  20.633  0.00  0.00    +0.000 HD
ENDBRANCH  22  26
BRANCH  23  28
ATOM     28  O   UNL     1       9.264  10.611  21.527  0.00  0.00    +0.000 OA
ATOM     29  H   UNL     1       8.342  10.310  21.467  0.00  0.00    +0.000 HD
ENDBRANCH  23  28
ENDBRANCH  16  18
ENDBRANCH  14  16
ENDBRANCH   5  12
BRANCH   1  30
ATOM     30  C   UNL     1       4.765   7.135  17.571  0.00  0.00    +0.000 C 
BRANCH  30  34
ATOM     31  C   UNL     1       2.400   4.042  19.548  0.00  0.00    +0.000 A 
ATOM     32  C   UNL     1       1.840   4.870  18.568  0.00  0.00    +0.000 A 
ATOM     33  C   UNL     1       2.585   5.871  17.938  0.00  0.00    +0.000 A 
ATOM     34  C   UNL     1       3.921   6.101  18.281  0.00  0.00    +0.000 A 
ATOM     35  C   UNL     1       4.504   5.262  19.241  0.00  0.00    +0.000 A 
ATOM     36  C   UNL     1       3.755   4.256  19.868  0.00  0.00    +0.000 A 
BRANCH  31  38
ATOM     37  C   UNL     1       1.758   2.911  21.771  0.00  0.00    +0.000 C 
ATOM     38  C   UNL     1       1.592   2.928  20.233  0.00  0.00    +0.000 C 
ATOM     39  C   UNL     1       2.043   1.547  19.713  0.00  0.00    +0.000 C 
ATOM     40  C   UNL     1       0.089   3.117  19.935  0.00  0.00    +0.000 C 
ENDBRANCH  31  38
ENDBRANCH  30  34
ENDBRANCH   1  30
TORSDOF 10
ENDMDL
MODEL 6
REMARK VINA RESULT:      -8.2      3.826      7.276
REMARK  Name = 
REMARK  13 active torsions:
REMARK  status: ('A' for Active; 'I' for Inactive)
REMARK    1  A    between atoms: C_1  and  C_2
REMARK    2  A    between atoms: C_2  and  C_3
REMARK    3  A    between atoms: C_2  and  C_4
REMARK    4  A    between atoms: C_2  and  C_5
REMARK    5  A    between atoms: C_8  and  C_9
REMARK    6  A    between atoms: C_9  and  N_10
REMARK    7  A    between atoms: C_12  and  C_13
REMARK    8  A    between atoms: C_20  and  C_21
REMARK    9  A    between atoms: N_23  and  N_24
REMARK   10  A    between atoms: N_24  and  C_25
REMARK   11  A    between atoms: C_28  and  O_29
REMARK   12  A    between atoms: C_30  and  O_31
REMARK   13  A    between atoms: C_32  and  O_33
REMARK                            x       y       z     vdW  Elec       q    Type
REMARK                         _______ _______ _______ _____ _____    ______ ____
ROOT
ATOM      1  N   UNL     1       5.756   5.394  17.427  0.00  0.00    +0.000 N 
ATOM      2  N   UNL     1       5.358   4.852  16.252  0.00  0.00    +0.000 NA
ATOM      3  C   UNL     1       6.389   5.026  15.420  0.00  0.00    +0.000 A 
ATOM      4  C   UNL     1       7.443   5.709  16.077  0.00  0.00    +0.000 A 
ATOM      5  C   UNL     1       7.017   5.947  17.374  0.00  0.00    +0.000 A 
ENDROOT
BRANCH   3   6
ATOM      6  C   UNL     1       6.358   4.520  14.051  0.00  0.00    +0.000 A 
ATOM      7  C   UNL     1       5.313   3.690  13.620  0.00  0.00    +0.000 A 
ATOM      8  C   UNL     1       5.307   3.176  12.320  0.00  0.00    +0.000 A 
ATOM      9  C   UNL     1       6.346   3.481  11.445  0.00  0.00    +0.000 A 
ATOM     10  C   UNL     1       7.387   4.311  11.860  0.00  0.00    +0.000 A 
ATOM     11  C   UNL     1       7.391   4.833  13.156  0.00  0.00    +0.000 A 
ENDBRANCH   3   6
BRANCH   5  12
ATOM     12  C   UNL     1       7.684   6.597  18.479  0.00  0.00    +0.000 C 
ATOM     13  O   UNL     1       7.891   6.057  19.566  0.00  0.00    +0.000 OA
ATOM     14  N   UNL     1       8.138   7.888  18.230  0.00  0.00    +0.000 N 
ATOM     15  H   UNL     1       7.972   8.366  17.350  0.00  0.00    +0.000 HD
BRANCH  14  16
ATOM     16  N   UNL     1       8.923   8.558  19.209  0.00  0.00    +0.000 NA
ATOM     17  H   UNL     1       9.909   8.351  18.982  0.00  0.00    +0.000 HD
BRANCH  16  18
ATOM     18  C   UNL     1       8.753  10.017  19.136  0.00  0.00    +0.000 C 
ATOM     19  O   UNL     1       9.076  10.484  17.823  0.00  0.00    +0.000 OA
ATOM     20  C   UNL     1       8.786  11.871  17.660  0.00  0.00    +0.000 C 
ATOM     21  C   UNL     1       9.646  12.719  18.593  0.00  0.00    +0.000 C 
ATOM     22  C   UNL     1       9.407  12.289  20.050  0.00  0.00    +0.000 C 
ATOM     23  C   UNL     1       9.581  10.768  20.214  0.00  0.00    +0.000 C 
BRANCH  21  24
ATOM     24  O   UNL     1       9.356  14.104  18.388  0.00  0.00    +0.000 OA
ATOM     25  H   UNL     1       9.238  14.265  17.436  0.00  0.00    +0.000 HD
ENDBRANCH  21  24
BRANCH  22  26
ATOM     26  O   UNL     1      10.284  13.005  20.928  0.00  0.00    +0.000 OA
ATOM     27  H   UNL     1      11.099  13.229  20.442  0.00  0.00    +0.000 HD
ENDBRANCH  22  26
BRANCH  23  28
ATOM     28  O   UNL     1       9.205  10.348  21.533  0.00  0.00    +0.000 OA
ATOM     29  H   UNL     1       9.961  10.465  22.133  0.00  0.00    +0.000 HD
ENDBRANCH  23  28
ENDBRANCH  16  18
ENDBRANCH  14  16
ENDBRANCH   5  12
BRANCH   1  30
ATOM     30  C   UNL     1       4.845   5.290  18.570  0.00  0.00    +0.000 C 
BRANCH  30  34
ATOM     31  C   UNL     1       1.926   8.534  18.742  0.00  0.00    +0.000 A 
ATOM     32  C   UNL     1       1.966   7.539  19.727  0.00  0.00    +0.000 A 
ATOM     33  C   UNL     1       2.889   6.490  19.673  0.00  0.00    +0.000 A 
ATOM     34  C   UNL     1       3.798   6.380  18.617  0.00  0.00    +0.000 A 
ATOM     35  C   UNL     1       3.788   7.383  17.639  0.00  0.00    +0.000 A 
ATOM     36  C   UNL     1       2.864   8.436  17.696  0.00  0.00    +0.000 A 
BRANCH  31  38
ATOM     37  C   UNL     1      -0.241   9.555  17.797  0.00  0.00    +0.000 C 
ATOM     38  C   UNL     1       0.926   9.700  18.803  0.00  0.00    +0.000 C 
ATOM     39  C   UNL     1       1.639  11.029  18.481  0.00  0.00    +0.000 C 
ATOM     40  C   UNL     1       0.309   9.783  20.215  0.00  0.00    +0.000 C 
ENDBRANCH  31  38
ENDBRANCH  30  34
ENDBRANCH   1  30
TORSDOF 10
ENDMDL
MODEL 7
REMARK VINA RESULT:      -8.2      4.021      7.909
REMARK  Name = 
REMARK  13 active torsions:
REMARK  status: ('A' for Active; 'I' for Inactive)
REMARK    1  A    between atoms: C_1  and  C_2
REMARK    2  A    between atoms: C_2  and  C_3
REMARK    3  A    between atoms: C_2  and  C_4
REMARK    4  A    between atoms: C_2  and  C_5
REMARK    5  A    between atoms: C_8  and  C_9
REMARK    6  A    between atoms: C_9  and  N_10
REMARK    7  A    between atoms: C_12  and  C_13
REMARK    8  A    between atoms: C_20  and  C_21
REMARK    9  A    between atoms: N_23  and  N_24
REMARK   10  A    between atoms: N_24  and  C_25
REMARK   11  A    between atoms: C_28  and  O_29
REMARK   12  A    between atoms: C_30  and  O_31
REMARK   13  A    between atoms: C_32  and  O_33
REMARK                            x       y       z     vdW  Elec       q    Type
REMARK                         _______ _______ _______ _____ _____    ______ ____
ROOT
ATOM      1  N   UNL     1       5.832   6.589  16.760  0.00  0.00    +0.000 N 
ATOM      2  N   UNL     1       5.452   6.013  15.594  0.00  0.00    +0.000 NA
ATOM      3  C   UNL     1       6.578   5.529  15.061  0.00  0.00    +0.000 A 
ATOM      4  C   UNL     1       7.686   5.825  15.894  0.00  0.00    +0.000 A 
ATOM      5  C   UNL     1       7.189   6.518  16.987  0.00  0.00    +0.000 A 
ENDROOT
BRANCH   3   6
ATOM      6  C   UNL     1       6.568   4.783  13.807  0.00  0.00    +0.000 A 
ATOM      7  C   UNL     1       5.588   3.808  13.563  0.00  0.00    +0.000 A 
ATOM      8  C   UNL     1       5.605   3.068  12.378  0.00  0.00    +0.000 A 
ATOM      9  C   UNL     1       6.602   3.290  11.431  0.00  0.00    +0.000 A 
ATOM     10  C   UNL     1       7.576   4.261  11.659  0.00  0.00    +0.000 A 
ATOM     11  C   UNL     1       7.557   5.008  12.839  0.00  0.00    +0.000 A 
ENDBRANCH   3   6
BRANCH   5  12
ATOM     12  C   UNL     1       7.864   7.055  18.146  0.00  0.00    +0.000 C 
ATOM     13  O   UNL     1       8.148   6.390  19.142  0.00  0.00    +0.000 OA
ATOM     14  N   UNL     1       8.233   8.395  18.058  0.00  0.00    +0.000 N 
ATOM     15  H   UNL     1       8.002   8.974  17.257  0.00  0.00    +0.000 HD
BRANCH  14  16
ATOM     16  N   UNL     1       9.019   8.976  19.092  0.00  0.00    +0.000 NA
ATOM     17  H   UNL     1      10.002   8.747  18.872  0.00  0.00    +0.000 HD
BRANCH  16  18
ATOM     18  C   UNL     1       8.902  10.442  19.102  0.00  0.00    +0.000 C 
ATOM     19  O   UNL     1       9.305  10.977  17.838  0.00  0.00    +0.000 OA
ATOM     20  C   UNL     1       9.070  12.381  17.749  0.00  0.00    +0.000 C 
ATOM     21  C   UNL     1       9.912  13.137  18.773  0.00  0.00    +0.000 C 
ATOM     22  C   UNL     1       9.587  12.628  20.187  0.00  0.00    +0.000 C 
ATOM     23  C   UNL     1       9.701  11.094  20.263  0.00  0.00    +0.000 C 
BRANCH  21  24
ATOM     24  O   UNL     1       9.680  14.541  18.642  0.00  0.00    +0.000 OA
ATOM     25  H   UNL     1       9.148  14.846  19.398  0.00  0.00    +0.000 HD
ENDBRANCH  21  24
BRANCH  22  26
ATOM     26  O   UNL     1      10.444  13.256  21.149  0.00  0.00    +0.000 OA
ATOM     27  H   UNL     1      11.371  13.126  20.875  0.00  0.00    +0.000 HD
ENDBRANCH  22  26
BRANCH  23  28
ATOM     28  O   UNL     1       9.247  10.609  21.534  0.00  0.00    +0.000 OA
ATOM     29  H   UNL     1       9.824  10.957  22.234  0.00  0.00    +0.000 HD
ENDBRANCH  23  28
ENDBRANCH  16  18
ENDBRANCH  14  16
ENDBRANCH   5  12
BRANCH   1  30
ATOM     30  C   UNL     1       4.785   7.154  17.614  0.00  0.00    +0.000 C 
BRANCH  30  34
ATOM     31  C   UNL     1       2.388   4.049  19.535  0.00  0.00    +0.000 A 
ATOM     32  C   UNL     1       1.790   5.067  18.782  0.00  0.00    +0.000 A 
ATOM     33  C   UNL     1       2.548   6.073  18.174  0.00  0.00    +0.000 A 
ATOM     34  C   UNL     1       3.939   6.114  18.313  0.00  0.00    +0.000 A 
ATOM     35  C   UNL     1       4.554   5.087  19.041  0.00  0.00    +0.000 A 
ATOM     36  C   UNL     1       3.792   4.078  19.647  0.00  0.00    +0.000 A 
BRANCH  31  38
ATOM     37  C   UNL     1       0.073   2.949  19.778  0.00  0.00    +0.000 C 
ATOM     38  C   UNL     1       1.564   2.931  20.193  0.00  0.00    +0.000 C 
ATOM     39  C   UNL     1       1.609   3.069  21.728  0.00  0.00    +0.000 C 
ATOM     40  C   UNL     1       2.137   1.556  19.788  0.00  0.00    +0.000 C 
ENDBRANCH  31  38
ENDBRANCH  30  34
ENDBRANCH   1  30
TORSDOF 10
ENDMDL
MODEL 8
REMARK VINA RESULT:      -8.1      5.331      8.771
REMARK  Name = 
REMARK  13 active torsions:
REMARK  status: ('A' for Active; 'I' for Inactive)
REMARK    1  A    between atoms: C_1  and  C_2
REMARK    2  A    between atoms: C_2  and  C_3
REMARK    3  A    between atoms: C_2  and  C_4
REMARK    4  A    between atoms: C_2  and  C_5
REMARK    5  A    between atoms: C_8  and  C_9
REMARK    6  A    between atoms: C_9  and  N_10
REMARK    7  A    between atoms: C_12  and  C_13
REMARK    8  A    between atoms: C_20  and  C_21
REMARK    9  A    between atoms: N_23  and  N_24
REMARK   10  A    between atoms: N_24  and  C_25
REMARK   11  A    between atoms: C_28  and  O_29
REMARK   12  A    between atoms: C_30  and  O_31
REMARK   13  A    between atoms: C_32  and  O_33
REMARK                            x       y       z     vdW  Elec       q    Type
REMARK                         _______ _______ _______ _____ _____    ______ ____
ROOT
ATOM      1  N   UNL     1       1.490   9.326  19.502  0.00  0.00    +0.000 N 
ATOM      2  N   UNL     1       1.973   8.517  18.529  0.00  0.00    +0.000 NA
ATOM      3  C   UNL     1       2.137   7.327  19.114  0.00  0.00    +0.000 A 
ATOM      4  C   UNL     1       1.773   7.394  20.482  0.00  0.00    +0.000 A 
ATOM      5  C   UNL     1       1.363   8.696  20.721  0.00  0.00    +0.000 A 
ENDROOT
BRANCH   3   6
ATOM      6  C   UNL     1       2.601   6.165  18.361  0.00  0.00    +0.000 A 
ATOM      7  C   UNL     1       1.833   4.992  18.312  0.00  0.00    +0.000 A 
ATOM      8  C   UNL     1       2.299   3.869  17.623  0.00  0.00    +0.000 A 
ATOM      9  C   UNL     1       3.536   3.906  16.983  0.00  0.00    +0.000 A 
ATOM     10  C   UNL     1       4.304   5.069  17.019  0.00  0.00    +0.000 A 
ATOM     11  C   UNL     1       3.838   6.195  17.700  0.00  0.00    +0.000 A 
ENDBRANCH   3   6
BRANCH   5  12
ATOM     12  C   UNL     1       0.880   9.322  21.931  0.00  0.00    +0.000 C 
ATOM     13  O   UNL     1       1.598   9.596  22.893  0.00  0.00    +0.000 OA
ATOM     14  N   UNL     1      -0.472   9.654  21.937  0.00  0.00    +0.000 N 
ATOM     15  H   UNL     1      -1.093   9.429  21.165  0.00  0.00    +0.000 HD
BRANCH  14  16
ATOM     16  N   UNL     1      -1.010  10.392  23.027  0.00  0.00    +0.000 NA
ATOM     17  H   UNL     1      -0.287  10.387  23.765  0.00  0.00    +0.000 HD
BRANCH  16  18
ATOM     18  C   UNL     1      -1.254  11.797  22.662  0.00  0.00    +0.000 C 
ATOM     19  O   UNL     1      -0.022  12.524  22.656  0.00  0.00    +0.000 OA
ATOM     20  C   UNL     1      -0.186  13.853  22.166  0.00  0.00    +0.000 C 
ATOM     21  C   UNL     1      -1.105  14.659  23.081  0.00  0.00    +0.000 C 
ATOM     22  C   UNL     1      -2.468  13.957  23.193  0.00  0.00    +0.000 C 
ATOM     23  C   UNL     1      -2.299  12.478  23.586  0.00  0.00    +0.000 C 
BRANCH  21  24
ATOM     24  O   UNL     1      -1.228  15.993  22.584  0.00  0.00    +0.000 OA
ATOM     25  H   UNL     1      -1.594  16.560  23.285  0.00  0.00    +0.000 HD
ENDBRANCH  21  24
BRANCH  22  26
ATOM     26  O   UNL     1      -3.306  14.646  24.129  0.00  0.00    +0.000 OA
ATOM     27  H   UNL     1      -2.766  15.305  24.606  0.00  0.00    +0.000 HD
ENDBRANCH  22  26
BRANCH  23  28
ATOM     28  O   UNL     1      -3.555  11.787  23.537  0.00  0.00    +0.000 OA
ATOM     29  H   UNL     1      -3.480  10.952  24.028  0.00  0.00    +0.000 HD
ENDBRANCH  23  28
ENDBRANCH  16  18
ENDBRANCH  14  16
ENDBRANCH   5  12
BRANCH   1  30
ATOM     30  C   UNL     1       1.141  10.700  19.136  0.00  0.00    +0.000 C 
BRANCH  30  34
ATOM     31  C   UNL     1      -3.122  11.235  18.354  0.00  0.00    +0.000 A 
ATOM     32  C   UNL     1      -2.442  10.089  17.925  0.00  0.00    +0.000 A 
ATOM     33  C   UNL     1      -1.075   9.914  18.159  0.00  0.00    +0.000 A 
ATOM     34  C   UNL     1      -0.324  10.894  18.816  0.00  0.00    +0.000 A 
ATOM     35  C   UNL     1      -0.996  12.034  19.276  0.00  0.00    +0.000 A 
ATOM     36  C   UNL     1      -2.368  12.205  19.043  0.00  0.00    +0.000 A 
BRANCH  31  38
ATOM     37  C   UNL     1      -4.961  11.913  16.685  0.00  0.00    +0.000 C 
ATOM     38  C   UNL     1      -4.628  11.427  18.115  0.00  0.00    +0.000 C 
ATOM     39  C   UNL     1      -5.193  12.476  19.094  0.00  0.00    +0.000 C 
ATOM     40  C   UNL     1      -5.363  10.086  18.328  0.00  0.00    +0.000 C 
ENDBRANCH  31  38
ENDBRANCH  30  34
ENDBRANCH   1  30
TORSDOF 10
ENDMDL
MODEL 9
REMARK VINA RESULT:      -8.1      6.549      9.715
REMARK  Name = 
REMARK  13 active torsions:
REMARK  status: ('A' for Active; 'I' for Inactive)
REMARK    1  A    between atoms: C_1  and  C_2
REMARK    2  A    between atoms: C_2  and  C_3
REMARK    3  A    between atoms: C_2  and  C_4
REMARK    4  A    between atoms: C_2  and  C_5
REMARK    5  A    between atoms: C_8  and  C_9
REMARK    6  A    between atoms: C_9  and  N_10
REMARK    7  A    between atoms: C_12  and  C_13
REMARK    8  A    between atoms: C_20  and  C_21
REMARK    9  A    between atoms: N_23  and  N_24
REMARK   10  A    between atoms: N_24  and  C_25
REMARK   11  A    between atoms: C_28  and  O_29
REMARK   12  A    between atoms: C_30  and  O_31
REMARK   13  A    between atoms: C_32  and  O_33
REMARK                            x       y       z     vdW  Elec       q    Type
REMARK                         _______ _______ _______ _____ _____    ______ ____
ROOT
ATOM      1  N   UNL     1      -0.031  11.816  19.646  0.00  0.00    +0.000 N 
ATOM      2  N   UNL     1       1.151  12.473  19.571  0.00  0.00    +0.000 NA
ATOM      3  C   UNL     1       0.900  13.558  18.833  0.00  0.00    +0.000 A 
ATOM      4  C   UNL     1      -0.455  13.571  18.418  0.00  0.00    +0.000 A 
ATOM      5  C   UNL     1      -1.044  12.434  18.946  0.00  0.00    +0.000 A 
ENDROOT
BRANCH   3   6
ATOM      6  C   UNL     1       1.933  14.555  18.569  0.00  0.00    +0.000 A 
ATOM      7  C   UNL     1       3.247  14.162  18.272  0.00  0.00    +0.000 A 
ATOM      8  C   UNL     1       4.242  15.120  18.059  0.00  0.00    +0.000 A 
ATOM      9  C   UNL     1       3.935  16.476  18.146  0.00  0.00    +0.000 A 
ATOM     10  C   UNL     1       2.631  16.879  18.433  0.00  0.00    +0.000 A 
ATOM     11  C   UNL     1       1.633  15.924  18.639  0.00  0.00    +0.000 A 
ENDBRANCH   3   6
BRANCH   5  12
ATOM     12  C   UNL     1      -2.402  11.947  18.851  0.00  0.00    +0.000 C 
ATOM     13  O   UNL     1      -2.716  10.906  18.274  0.00  0.00    +0.000 OA
ATOM     14  N   UNL     1      -3.362  12.715  19.505  0.00  0.00    +0.000 N 
ATOM     15  H   UNL     1      -3.137  13.585  19.978  0.00  0.00    +0.000 HD
BRANCH  14  16
ATOM     16  N   UNL     1      -4.703  12.247  19.581  0.00  0.00    +0.000 NA
ATOM     17  H   UNL     1      -4.646  11.237  19.791  0.00  0.00    +0.000 HD
BRANCH  16  18
ATOM     18  C   UNL     1      -5.438  12.885  20.684  0.00  0.00    +0.000 C 
ATOM     19  O   UNL     1      -4.524  13.531  21.575  0.00  0.00    +0.000 OA
ATOM     20  C   UNL     1      -5.197  14.287  22.579  0.00  0.00    +0.000 C 
ATOM     21  C   UNL     1      -6.031  13.377  23.476  0.00  0.00    +0.000 C 
ATOM     22  C   UNL     1      -7.045  12.597  22.622  0.00  0.00    +0.000 C 
ATOM     23  C   UNL     1      -6.349  11.886  21.447  0.00  0.00    +0.000 C 
BRANCH  21  24
ATOM     24  O   UNL     1      -6.670  14.155  24.490  0.00  0.00    +0.000 OA
ATOM     25  H   UNL     1      -6.007  14.424  25.149  0.00  0.00    +0.000 HD
ENDBRANCH  21  24
BRANCH  22  26
ATOM     26  O   UNL     1      -7.764  11.663  23.437  0.00  0.00    +0.000 OA
ATOM     27  H   UNL     1      -7.913  12.061  24.315  0.00  0.00    +0.000 HD
ENDBRANCH  22  26
BRANCH  23  28
ATOM     28  O   UNL     1      -7.310  11.291  20.565  0.00  0.00    +0.000 OA
ATOM     29  H   UNL     1      -8.129  11.814  20.584  0.00  0.00    +0.000 HD
ENDBRANCH  23  28
ENDBRANCH  16  18
ENDBRANCH  14  16
ENDBRANCH   5  12
BRANCH   1  30
ATOM     30  C   UNL     1      -0.086  10.602  20.464  0.00  0.00    +0.000 C 
BRANCH  30  34
ATOM     31  C   UNL     1       2.391   7.334  18.960  0.00  0.00    +0.000 A 
ATOM     32  C   UNL     1       2.012   7.398  20.306  0.00  0.00    +0.000 A 
ATOM     33  C   UNL     1       1.230   8.447  20.800  0.00  0.00    +0.000 A 
ATOM     34  C   UNL     1       0.812   9.490  19.968  0.00  0.00    +0.000 A 
ATOM     35  C   UNL     1       1.160   9.426  18.612  0.00  0.00    +0.000 A 
ATOM     36  C   UNL     1       1.941   8.371  18.119  0.00  0.00    +0.000 A 
BRANCH  31  38
ATOM     37  C   UNL     1       4.135   5.511  19.476  0.00  0.00    +0.000 C 
ATOM     38  C   UNL     1       3.236   6.176  18.406  0.00  0.00    +0.000 C 
ATOM     39  C   UNL     1       4.165   6.684  17.284  0.00  0.00    +0.000 C 
ATOM     40  C   UNL     1       2.308   5.079  17.840  0.00  0.00    +0.000 C 
ENDBRANCH  31  38
ENDBRANCH  30  34
ENDBRANCH   1  30
TORSDOF 10
ENDMDL
