MODEL 1
REMARK VINA RESULT:      -8.4      0.000      0.000
REMARK  Name = 
REMARK  4 active torsions:
REMARK  status: ('A' for Active; 'I' for Inactive)
REMARK    1  A    between atoms: C_1  and  C_2
REMARK    2  A    between atoms: C_5  and  C_6
REMARK    3  A    between atoms: C_9  and  C_10
REMARK    4  A    between atoms: C_14  and  C_15
REMARK                            x       y       z     vdW  Elec       q    Type
REMARK                         _______ _______ _______ _____ _____    ______ ____
ROOT
ATOM      1  C   UNL     1       2.577   6.768  18.563  0.00  0.00    +0.000 A 
ATOM      2  C   UNL     1       2.182   6.815  19.904  0.00  0.00    +0.000 A 
ATOM      3  C   UNL     1       1.527   7.928  20.447  0.00  0.00    +0.000 A 
ATOM      4  C   UNL     1       1.324   9.064  19.648  0.00  0.00    +0.000 A 
ATOM      5  C   UNL     1       0.762  10.361  19.805  0.00  0.00    +0.000 A 
ATOM      6  N   UNL     1       0.857  11.090  18.682  0.00  0.00    +0.000 NA
ATOM      7  N   UNL     1       1.459  10.257  17.815  0.00  0.00    +0.000 N 
ATOM      8  C   UNL     1       1.741   9.018  18.324  0.00  0.00    +0.000 A 
ATOM      9  C   UNL     1       2.322   7.881  17.741  0.00  0.00    +0.000 A 
ATOM     10  H   UNL     1       1.667  10.602  16.884  0.00  0.00    +0.000 HD
ENDROOT
BRANCH   1  16
ATOM     11  C   UNL     1       5.663   6.577  17.500  0.00  0.00    +0.000 C 
ATOM     12  C   UNL     1       4.579   5.562  17.585  0.00  0.00    +0.000 A 
ATOM     13  N   UNL     1       4.812   4.274  17.188  0.00  0.00    +0.000 N 
ATOM     14  N   UNL     1       3.780   3.448  17.371  0.00  0.00    +0.000 NA
ATOM     15  C   UNL     1       2.820   4.240  17.860  0.00  0.00    +0.000 A 
ATOM     16  C   UNL     1       3.260   5.589  18.029  0.00  0.00    +0.000 A 
ATOM     17  H   UNL     1       5.664   3.890  16.795  0.00  0.00    +0.000 HD
BRANCH  15  18
ATOM     18  C   UNL     1       1.426   3.703  18.184  0.00  0.00    +0.000 C 
ATOM     19  C   UNL     1       1.255   2.272  18.649  0.00  0.00    +0.000 C 
ATOM     20  C   UNL     1       1.120   3.379  19.636  0.00  0.00    +0.000 C 
ENDBRANCH  15  18
ENDBRANCH   1  16
BRANCH   5  21
ATOM     21  C   UNL     1       0.114  10.942  21.012  0.00  0.00    +0.000 A 
ATOM     22  C   UNL     1      -0.423  10.315  22.113  0.00  0.00    +0.000 A 
ATOM     23  C   UNL     1      -0.949  11.317  22.968  0.00  0.00    +0.000 A 
ATOM     24  C   UNL     1      -0.712  12.531  22.361  0.00  0.00    +0.000 A 
ATOM     25  N   UNL     1      -0.062  12.293  21.181  0.00  0.00    +0.000 N 
ATOM     26  H   UNL     1       0.243  12.983  20.507  0.00  0.00    +0.000 HD
ENDBRANCH   5  21
TORSDOF 3
ENDMDL
MODEL 2
REMARK VINA RESULT:      -8.2      1.571      2.276
REMARK  Name = 
REMARK  4 active torsions:
REMARK  status: ('A' for Active; 'I' for Inactive)
REMARK    1  A    between atoms: C_1  and  C_2
REMARK    2  A    between atoms: C_5  and  C_6
REMARK    3  A    between atoms: C_9  and  C_10
REMARK    4  A    between atoms: C_14  and  C_15
REMARK                            x       y       z     vdW  Elec       q    Type
REMARK                         _______ _______ _______ _____ _____    ______ ____
ROOT
ATOM      1  C   UNL     1       2.871   6.565  18.563  0.00  0.00    +0.000 A 
ATOM      2  C   UNL     1       2.755   7.562  17.589  0.00  0.00    +0.000 A 
ATOM      3  C   UNL     1       2.162   8.801  17.863  0.00  0.00    +0.000 A 
ATOM      4  C   UNL     1       1.599   9.031  19.127  0.00  0.00    +0.000 A 
ATOM      5  C   UNL     1       0.901  10.083  19.782  0.00  0.00    +0.000 A 
ATOM      6  N   UNL     1       0.549   9.750  21.033  0.00  0.00    +0.000 NA
ATOM      7  N   UNL     1       1.034   8.505  21.178  0.00  0.00    +0.000 N 
ATOM      8  C   UNL     1       1.698   8.026  20.081  0.00  0.00    +0.000 A 
ATOM      9  C   UNL     1       2.361   6.811  19.851  0.00  0.00    +0.000 A 
ATOM     10  H   UNL     1       0.864   8.023  22.054  0.00  0.00    +0.000 HD
ENDROOT
BRANCH   1  16
ATOM     11  C   UNL     1       6.046   5.980  18.042  0.00  0.00    +0.000 C 
ATOM     12  C   UNL     1       4.857   5.086  18.026  0.00  0.00    +0.000 A 
ATOM     13  N   UNL     1       5.007   3.750  17.773  0.00  0.00    +0.000 N 
ATOM     14  N   UNL     1       3.875   3.047  17.848  0.00  0.00    +0.000 NA
ATOM     15  C   UNL     1       2.943   3.970  18.108  0.00  0.00    +0.000 A 
ATOM     16  C   UNL     1       3.496   5.280  18.242  0.00  0.00    +0.000 A 
ATOM     17  H   UNL     1       5.863   3.251  17.558  0.00  0.00    +0.000 HD
BRANCH  15  18
ATOM     18  C   UNL     1       1.465   3.601  18.239  0.00  0.00    +0.000 C 
ATOM     19  C   UNL     1       1.068   2.241  18.773  0.00  0.00    +0.000 C 
ATOM     20  C   UNL     1       0.904   3.442  19.640  0.00  0.00    +0.000 C 
ENDBRANCH  15  18
ENDBRANCH   1  16
BRANCH   5  21
ATOM     21  C   UNL     1       0.556  11.429  19.248  0.00  0.00    +0.000 A 
ATOM     22  C   UNL     1       1.143  12.650  19.491  0.00  0.00    +0.000 A 
ATOM     23  C   UNL     1       0.417  13.630  18.765  0.00  0.00    +0.000 A 
ATOM     24  C   UNL     1      -0.592  12.971  18.096  0.00  0.00    +0.000 A 
ATOM     25  N   UNL     1      -0.494  11.639  18.390  0.00  0.00    +0.000 N 
ATOM     26  H   UNL     1      -1.096  10.899  18.055  0.00  0.00    +0.000 HD
ENDBRANCH   5  21
TORSDOF 3
ENDMDL
MODEL 3
REMARK VINA RESULT:      -8.2      4.160      8.009
REMARK  Name = 
REMARK  4 active torsions:
REMARK  status: ('A' for Active; 'I' for Inactive)
REMARK    1  A    between atoms: C_1  and  C_2
REMARK    2  A    between atoms: C_5  and  C_6
REMARK    3  A    between atoms: C_9  and  C_10
REMARK    4  A    between atoms: C_14  and  C_15
REMARK                            x       y       z     vdW  Elec       q    Type
REMARK                         _______ _______ _______ _____ _____    ______ ____
ROOT
ATOM      1  C   UNL     1       4.252   3.901  18.867  0.00  0.00    +0.000 A 
ATOM      2  C   UNL     1       3.961   3.355  17.612  0.00  0.00    +0.000 A 
ATOM      3  C   UNL     1       4.730   3.648  16.479  0.00  0.00    +0.000 A 
ATOM      4  C   UNL     1       5.779   4.575  16.579  0.00  0.00    +0.000 A 
ATOM      5  C   UNL     1       6.739   5.160  15.709  0.00  0.00    +0.000 A 
ATOM      6  N   UNL     1       7.519   6.047  16.344  0.00  0.00    +0.000 NA
ATOM      7  N   UNL     1       7.070   6.013  17.611  0.00  0.00    +0.000 N 
ATOM      8  C   UNL     1       6.046   5.131  17.824  0.00  0.00    +0.000 A 
ATOM      9  C   UNL     1       5.340   4.785  18.986  0.00  0.00    +0.000 A 
ATOM     10  H   UNL     1       7.499   6.634  18.288  0.00  0.00    +0.000 HD
ENDROOT
BRANCH   1  16
ATOM     11  C   UNL     1       4.689   1.441  20.976  0.00  0.00    +0.000 C 
ATOM     12  C   UNL     1       3.656   2.509  20.898  0.00  0.00    +0.000 A 
ATOM     13  N   UNL     1       2.669   2.578  21.842  0.00  0.00    +0.000 N 
ATOM     14  N   UNL     1       1.842   3.615  21.695  0.00  0.00    +0.000 NA
ATOM     15  C   UNL     1       2.277   4.216  20.583  0.00  0.00    +0.000 A 
ATOM     16  C   UNL     1       3.427   3.573  20.031  0.00  0.00    +0.000 A 
ATOM     17  H   UNL     1       2.513   1.953  22.625  0.00  0.00    +0.000 HD
BRANCH  15  18
ATOM     18  C   UNL     1       1.579   5.451  20.014  0.00  0.00    +0.000 C 
ATOM     19  C   UNL     1       1.444   6.701  20.859  0.00  0.00    +0.000 C 
ATOM     20  C   UNL     1       2.434   6.677  19.745  0.00  0.00    +0.000 C 
ENDBRANCH  15  18
ENDBRANCH   1  16
BRANCH   5  21
ATOM     21  C   UNL     1       6.951   4.892  14.259  0.00  0.00    +0.000 A 
ATOM     22  C   UNL     1       6.350   3.966  13.438  0.00  0.00    +0.000 A 
ATOM     23  C   UNL     1       6.928   4.093  12.148  0.00  0.00    +0.000 A 
ATOM     24  C   UNL     1       7.866   5.100  12.224  0.00  0.00    +0.000 A 
ATOM     25  N   UNL     1       7.865   5.582  13.504  0.00  0.00    +0.000 N 
ATOM     26  H   UNL     1       8.448   6.321  13.874  0.00  0.00    +0.000 HD
ENDBRANCH   5  21
TORSDOF 3
ENDMDL
MODEL 4
REMARK VINA RESULT:      -8.1      3.614      8.167
REMARK  Name = 
REMARK  4 active torsions:
REMARK  status: ('A' for Active; 'I' for Inactive)
REMARK    1  A    between atoms: C_1  and  C_2
REMARK    2  A    between atoms: C_5  and  C_6
REMARK    3  A    between atoms: C_9  and  C_10
REMARK    4  A    between atoms: C_14  and  C_15
REMARK                            x       y       z     vdW  Elec       q    Type
REMARK                         _______ _______ _______ _____ _____    ______ ____
ROOT
ATOM      1  C   UNL     1       3.513   4.128  18.388  0.00  0.00    +0.000 A 
ATOM      2  C   UNL     1       3.218   4.310  17.032  0.00  0.00    +0.000 A 
ATOM      3  C   UNL     1       4.222   4.415  16.062  0.00  0.00    +0.000 A 
ATOM      4  C   UNL     1       5.568   4.414  16.461  0.00  0.00    +0.000 A 
ATOM      5  C   UNL     1       6.840   4.530  15.836  0.00  0.00    +0.000 A 
ATOM      6  N   UNL     1       7.843   4.494  16.726  0.00  0.00    +0.000 NA
ATOM      7  N   UNL     1       7.214   4.340  17.905  0.00  0.00    +0.000 N 
ATOM      8  C   UNL     1       5.851   4.258  17.812  0.00  0.00    +0.000 A 
ATOM      9  C   UNL     1       4.861   4.067  18.787  0.00  0.00    +0.000 A 
ATOM     10  H   UNL     1       7.776   4.312  18.748  0.00  0.00    +0.000 HD
ENDROOT
BRANCH   1  16
ATOM     11  C   UNL     1       1.619   1.531  18.987  0.00  0.00    +0.000 C 
ATOM     12  C   UNL     1       1.657   2.891  19.589  0.00  0.00    +0.000 A 
ATOM     13  N   UNL     1       0.795   3.218  20.599  0.00  0.00    +0.000 N 
ATOM     14  N   UNL     1       0.971   4.445  21.095  0.00  0.00    +0.000 NA
ATOM     15  C   UNL     1       1.951   4.955  20.343  0.00  0.00    +0.000 A 
ATOM     16  C   UNL     1       2.438   4.023  19.376  0.00  0.00    +0.000 A 
ATOM     17  H   UNL     1       0.070   2.639  21.009  0.00  0.00    +0.000 HD
BRANCH  15  18
ATOM     18  C   UNL     1       2.454   6.384  20.545  0.00  0.00    +0.000 C 
ATOM     19  C   UNL     1       2.241   7.422  19.464  0.00  0.00    +0.000 C 
ATOM     20  C   UNL     1       1.412   7.478  20.701  0.00  0.00    +0.000 C 
ENDBRANCH  15  18
ENDBRANCH   1  16
BRANCH   5  21
ATOM     21  C   UNL     1       7.142   4.669  14.384  0.00  0.00    +0.000 A 
ATOM     22  C   UNL     1       6.628   3.983  13.308  0.00  0.00    +0.000 A 
ATOM     23  C   UNL     1       7.271   4.468  12.140  0.00  0.00    +0.000 A 
ATOM     24  C   UNL     1       8.158   5.443  12.543  0.00  0.00    +0.000 A 
ATOM     25  N   UNL     1       8.066   5.561  13.903  0.00  0.00    +0.000 N 
ATOM     26  H   UNL     1       8.595   6.189  14.493  0.00  0.00    +0.000 HD
ENDBRANCH   5  21
TORSDOF 3
ENDMDL
MODEL 5
REMARK VINA RESULT:      -8.1      3.416      8.071
REMARK  Name = 
REMARK  4 active torsions:
REMARK  status: ('A' for Active; 'I' for Inactive)
REMARK    1  A    between atoms: C_1  and  C_2
REMARK    2  A    between atoms: C_5  and  C_6
REMARK    3  A    between atoms: C_9  and  C_10
REMARK    4  A    between atoms: C_14  and  C_15
REMARK                            x       y       z     vdW  Elec       q    Type
REMARK                         _______ _______ _______ _____ _____    ______ ____
ROOT
ATOM      1  C   UNL     1       3.904   5.431  18.124  0.00  0.00    +0.000 A 
ATOM      2  C   UNL     1       3.447   4.652  17.055  0.00  0.00    +0.000 A 
ATOM      3  C   UNL     1       4.249   4.379  15.940  0.00  0.00    +0.000 A 
ATOM      4  C   UNL     1       5.522   4.961  15.848  0.00  0.00    +0.000 A 
ATOM      5  C   UNL     1       6.596   4.977  14.916  0.00  0.00    +0.000 A 
ATOM      6  N   UNL     1       7.610   5.753  15.329  0.00  0.00    +0.000 NA
ATOM      7  N   UNL     1       7.191   6.211  16.522  0.00  0.00    +0.000 N 
ATOM      8  C   UNL     1       5.959   5.753  16.903  0.00  0.00    +0.000 A 
ATOM      9  C   UNL     1       5.203   5.968  18.065  0.00  0.00    +0.000 A 
ATOM     10  H   UNL     1       7.792   6.853  17.026  0.00  0.00    +0.000 HD
ENDROOT
BRANCH   1  16
ATOM     11  C   UNL     1       2.328   8.210  18.818  0.00  0.00    +0.000 C 
ATOM     12  C   UNL     1       2.392   6.903  19.526  0.00  0.00    +0.000 A 
ATOM     13  N   UNL     1       1.687   6.714  20.682  0.00  0.00    +0.000 N 
ATOM     14  N   UNL     1       1.779   5.481  21.185  0.00  0.00    +0.000 NA
ATOM     15  C   UNL     1       2.619   4.859  20.352  0.00  0.00    +0.000 A 
ATOM     16  C   UNL     1       3.039   5.697  19.275  0.00  0.00    +0.000 A 
ATOM     17  H   UNL     1       1.107   7.386  21.173  0.00  0.00    +0.000 HD
BRANCH  15  18
ATOM     18  C   UNL     1       3.044   3.408  20.580  0.00  0.00    +0.000 C 
ATOM     19  C   UNL     1       2.229   2.514  21.490  0.00  0.00    +0.000 C 
ATOM     20  C   UNL     1       2.149   2.318  20.016  0.00  0.00    +0.000 C 
ENDBRANCH  15  18
ENDBRANCH   1  16
BRANCH   5  21
ATOM     21  C   UNL     1       6.697   4.256  13.617  0.00  0.00    +0.000 A 
ATOM     22  C   UNL     1       7.400   4.582  12.481  0.00  0.00    +0.000 A 
ATOM     23  C   UNL     1       7.137   3.584  11.507  0.00  0.00    +0.000 A 
ATOM     24  C   UNL     1       6.280   2.673  12.085  0.00  0.00    +0.000 A 
ATOM     25  N   UNL     1       6.026   3.086  13.365  0.00  0.00    +0.000 N 
ATOM     26  H   UNL     1       5.428   2.629  14.041  0.00  0.00    +0.000 HD
ENDBRANCH   5  21
TORSDOF 3
ENDMDL
MODEL 6
REMARK VINA RESULT:      -8.0      0.688      2.688
REMARK  Name = 
REMARK  4 active torsions:
REMARK  status: ('A' for Active; 'I' for Inactive)
REMARK    1  A    between atoms: C_1  and  C_2
REMARK    2  A    between atoms: C_5  and  C_6
REMARK    3  A    between atoms: C_9  and  C_10
REMARK    4  A    between atoms: C_14  and  C_15
REMARK                            x       y       z     vdW  Elec       q    Type
REMARK                         _______ _______ _______ _____ _____    ______ ____
ROOT
ATOM      1  C   UNL     1       2.731   6.648  18.690  0.00  0.00    +0.000 A 
ATOM      2  C   UNL     1       2.270   6.682  20.011  0.00  0.00    +0.000 A 
ATOM      3  C   UNL     1       1.586   7.789  20.529  0.00  0.00    +0.000 A 
ATOM      4  C   UNL     1       1.418   8.930  19.731  0.00  0.00    +0.000 A 
ATOM      5  C   UNL     1       0.843  10.224  19.869  0.00  0.00    +0.000 A 
ATOM      6  N   UNL     1       0.991  10.962  18.758  0.00  0.00    +0.000 NA
ATOM      7  N   UNL     1       1.638  10.138  17.915  0.00  0.00    +0.000 N 
ATOM      8  C   UNL     1       1.899   8.896  18.428  0.00  0.00    +0.000 A 
ATOM      9  C   UNL     1       2.512   7.766  17.866  0.00  0.00    +0.000 A 
ATOM     10  H   UNL     1       1.889  10.491  16.999  0.00  0.00    +0.000 HD
ENDROOT
BRANCH   1  16
ATOM     11  C   UNL     1       1.425   3.866  17.571  0.00  0.00    +0.000 C 
ATOM     12  C   UNL     1       2.838   4.310  17.718  0.00  0.00    +0.000 A 
ATOM     13  N   UNL     1       3.859   3.488  17.329  0.00  0.00    +0.000 N 
ATOM     14  N   UNL     1       5.074   4.026  17.454  0.00  0.00    +0.000 NA
ATOM     15  C   UNL     1       4.838   5.225  17.995  0.00  0.00    +0.000 A 
ATOM     16  C   UNL     1       3.444   5.474  18.181  0.00  0.00    +0.000 A 
ATOM     17  H   UNL     1       3.791   2.549  16.952  0.00  0.00    +0.000 HD
BRANCH  15  18
ATOM     18  C   UNL     1       5.976   6.182  18.351  0.00  0.00    +0.000 C 
ATOM     19  C   UNL     1       7.369   5.936  17.809  0.00  0.00    +0.000 C 
ATOM     20  C   UNL     1       6.547   7.039  17.235  0.00  0.00    +0.000 C 
ENDBRANCH  15  18
ENDBRANCH   1  16
BRANCH   5  21
ATOM     21  C   UNL     1       0.135  10.794  21.048  0.00  0.00    +0.000 A 
ATOM     22  C   UNL     1      -0.468  10.155  22.107  0.00  0.00    +0.000 A 
ATOM     23  C   UNL     1      -1.032  11.149  22.948  0.00  0.00    +0.000 A 
ATOM     24  C   UNL     1      -0.749  12.370  22.374  0.00  0.00    +0.000 A 
ATOM     25  N   UNL     1      -0.036  12.143  21.229  0.00  0.00    +0.000 N 
ATOM     26  H   UNL     1       0.313  12.840  20.584  0.00  0.00    +0.000 HD
ENDBRANCH   5  21
TORSDOF 3
ENDMDL
MODEL 7
REMARK VINA RESULT:      -7.8      1.610      2.129
REMARK  Name = 
REMARK  4 active torsions:
REMARK  status: ('A' for Active; 'I' for Inactive)
REMARK    1  A    between atoms: C_1  and  C_2
REMARK    2  A    between atoms: C_5  and  C_6
REMARK    3  A    between atoms: C_9  and  C_10
REMARK    4  A    between atoms: C_14  and  C_15
REMARK                            x       y       z     vdW  Elec       q    Type
REMARK                         _______ _______ _______ _____ _____    ______ ____
ROOT
ATOM      1  C   UNL     1       3.166   6.794  18.178  0.00  0.00    +0.000 A 
ATOM      2  C   UNL     1       2.698   7.863  17.406  0.00  0.00    +0.000 A 
ATOM      3  C   UNL     1       1.905   8.880  17.950  0.00  0.00    +0.000 A 
ATOM      4  C   UNL     1       1.501   8.795  19.291  0.00  0.00    +0.000 A 
ATOM      5  C   UNL     1       0.703   9.556  20.189  0.00  0.00    +0.000 A 
ATOM      6  N   UNL     1       0.619   8.981  21.399  0.00  0.00    +0.000 NA
ATOM      7  N   UNL     1       1.372   7.874  21.275  0.00  0.00    +0.000 N 
ATOM      8  C   UNL     1       1.951   7.718  20.045  0.00  0.00    +0.000 A 
ATOM      9  C   UNL     1       2.814   6.735  19.539  0.00  0.00    +0.000 A 
ATOM     10  H   UNL     1       1.440   7.250  22.071  0.00  0.00    +0.000 HD
ENDROOT
BRANCH   1  16
ATOM     11  C   UNL     1       6.300   7.017  17.273  0.00  0.00    +0.000 C 
ATOM     12  C   UNL     1       5.326   5.895  17.205  0.00  0.00    +0.000 A 
ATOM     13  N   UNL     1       5.711   4.682  16.704  0.00  0.00    +0.000 N 
ATOM     14  N   UNL     1       4.764   3.742  16.754  0.00  0.00    +0.000 NA
ATOM     15  C   UNL     1       3.706   4.383  17.260  0.00  0.00    +0.000 A 
ATOM     16  C   UNL     1       3.993   5.746  17.576  0.00  0.00    +0.000 A 
ATOM     17  H   UNL     1       6.616   4.425  16.326  0.00  0.00    +0.000 HD
BRANCH  15  18
ATOM     18  C   UNL     1       2.363   3.680  17.457  0.00  0.00    +0.000 C 
ATOM     19  C   UNL     1       2.323   2.209  17.813  0.00  0.00    +0.000 C 
ATOM     20  C   UNL     1       2.010   3.221  18.861  0.00  0.00    +0.000 C 
ENDBRANCH  15  18
ENDBRANCH   1  16
BRANCH   5  21
ATOM     21  C   UNL     1       0.006  10.846  19.933  0.00  0.00    +0.000 A 
ATOM     22  C   UNL     1       0.125  12.056  20.578  0.00  0.00    +0.000 A 
ATOM     23  C   UNL     1      -0.784  12.961  19.972  0.00  0.00    +0.000 A 
ATOM     24  C   UNL     1      -1.431  12.272  18.969  0.00  0.00    +0.000 A 
ATOM     25  N   UNL     1      -0.939  10.995  18.949  0.00  0.00    +0.000 N 
ATOM     26  H   UNL     1      -1.220  10.248  18.328  0.00  0.00    +0.000 HD
ENDBRANCH   5  21
TORSDOF 3
ENDMDL
MODEL 8
REMARK VINA RESULT:      -7.8      1.441      1.656
REMARK  Name = 
REMARK  4 active torsions:
REMARK  status: ('A' for Active; 'I' for Inactive)
REMARK    1  A    between atoms: C_1  and  C_2
REMARK    2  A    between atoms: C_5  and  C_6
REMARK    3  A    between atoms: C_9  and  C_10
REMARK    4  A    between atoms: C_14  and  C_15
REMARK                            x       y       z     vdW  Elec       q    Type
REMARK                         _______ _______ _______ _____ _____    ______ ____
ROOT
ATOM      1  C   UNL     1       2.955   5.795  19.538  0.00  0.00    +0.000 A 
ATOM      2  C   UNL     1       2.294   6.204  20.701  0.00  0.00    +0.000 A 
ATOM      3  C   UNL     1       1.590   7.412  20.770  0.00  0.00    +0.000 A 
ATOM      4  C   UNL     1       1.606   8.282  19.668  0.00  0.00    +0.000 A 
ATOM      5  C   UNL     1       1.080   9.562  19.344  0.00  0.00    +0.000 A 
ATOM      6  N   UNL     1       1.438   9.955  18.111  0.00  0.00    +0.000 NA
ATOM      7  N   UNL     1       2.169   8.925  17.651  0.00  0.00    +0.000 N 
ATOM      8  C   UNL     1       2.285   7.879  18.525  0.00  0.00    +0.000 A 
ATOM      9  C   UNL     1       2.925   6.635  18.410  0.00  0.00    +0.000 A 
ATOM     10  H   UNL     1       2.579   9.005  16.727  0.00  0.00    +0.000 HD
ENDROOT
BRANCH   1  16
ATOM     11  C   UNL     1       6.159   5.358  19.051  0.00  0.00    +0.000 C 
ATOM     12  C   UNL     1       5.051   4.394  19.286  0.00  0.00    +0.000 A 
ATOM     13  N   UNL     1       5.310   3.052  19.346  0.00  0.00    +0.000 N 
ATOM     14  N   UNL     1       4.243   2.299  19.623  0.00  0.00    +0.000 NA
ATOM     15  C   UNL     1       3.241   3.180  19.696  0.00  0.00    +0.000 A 
ATOM     16  C   UNL     1       3.682   4.525  19.501  0.00  0.00    +0.000 A 
ATOM     17  H   UNL     1       6.202   2.585  19.221  0.00  0.00    +0.000 HD
BRANCH  15  18
ATOM     18  C   UNL     1       1.803   2.737  19.962  0.00  0.00    +0.000 C 
ATOM     19  C   UNL     1       0.654   3.434  19.265  0.00  0.00    +0.000 C 
ATOM     20  C   UNL     1       1.053   2.069  18.823  0.00  0.00    +0.000 C 
ENDBRANCH  15  18
ENDBRANCH   1  16
BRANCH   5  21
ATOM     21  C   UNL     1       0.223  10.444  20.183  0.00  0.00    +0.000 A 
ATOM     22  C   UNL     1       0.268  10.688  21.536  0.00  0.00    +0.000 A 
ATOM     23  C   UNL     1      -0.790  11.579  21.851  0.00  0.00    +0.000 A 
ATOM     24  C   UNL     1      -1.449  11.854  20.672  0.00  0.00    +0.000 A 
ATOM     25  N   UNL     1      -0.823  11.168  19.668  0.00  0.00    +0.000 N 
ATOM     26  H   UNL     1      -1.076  11.161  18.689  0.00  0.00    +0.000 HD
ENDBRANCH   5  21
TORSDOF 3
ENDMDL
MODEL 9
REMARK VINA RESULT:      -7.8      1.606      3.461
REMARK  Name = 
REMARK  4 active torsions:
REMARK  status: ('A' for Active; 'I' for Inactive)
REMARK    1  A    between atoms: C_1  and  C_2
REMARK    2  A    between atoms: C_5  and  C_6
REMARK    3  A    between atoms: C_9  and  C_10
REMARK    4  A    between atoms: C_14  and  C_15
REMARK                            x       y       z     vdW  Elec       q    Type
REMARK                         _______ _______ _______ _____ _____    ______ ____
ROOT
ATOM      1  C   UNL     1       2.866   6.774  18.541  0.00  0.00    +0.000 A 
ATOM      2  C   UNL     1       2.745   7.826  17.626  0.00  0.00    +0.000 A 
ATOM      3  C   UNL     1       2.115   9.031  17.960  0.00  0.00    +0.000 A 
ATOM      4  C   UNL     1       1.518   9.170  19.223  0.00  0.00    +0.000 A 
ATOM      5  C   UNL     1       0.780  10.162  19.923  0.00  0.00    +0.000 A 
ATOM      6  N   UNL     1       0.408   9.746  21.143  0.00  0.00    +0.000 NA
ATOM      7  N   UNL     1       0.922   8.506  21.224  0.00  0.00    +0.000 N 
ATOM      8  C   UNL     1       1.622   8.111  20.116  0.00  0.00    +0.000 A 
ATOM      9  C   UNL     1       2.322   6.930  19.828  0.00  0.00    +0.000 A 
ATOM     10  H   UNL     1       0.746   7.968  22.065  0.00  0.00    +0.000 HD
ENDROOT
BRANCH   1  16
ATOM     11  C   UNL     1       1.449   3.975  17.621  0.00  0.00    +0.000 C 
ATOM     12  C   UNL     1       2.878   4.359  17.776  0.00  0.00    +0.000 A 
ATOM     13  N   UNL     1       3.865   3.456  17.492  0.00  0.00    +0.000 N 
ATOM     14  N   UNL     1       5.103   3.942  17.612  0.00  0.00    +0.000 NA
ATOM     15  C   UNL     1       4.914   5.194  18.040  0.00  0.00    +0.000 A 
ATOM     16  C   UNL     1       3.530   5.527  18.157  0.00  0.00    +0.000 A 
ATOM     17  H   UNL     1       3.759   2.493  17.195  0.00  0.00    +0.000 HD
BRANCH  15  18
ATOM     18  C   UNL     1       6.091   6.120  18.351  0.00  0.00    +0.000 C 
ATOM     19  C   UNL     1       7.444   5.862  17.722  0.00  0.00    +0.000 C 
ATOM     20  C   UNL     1       6.612   6.993  17.224  0.00  0.00    +0.000 C 
ENDBRANCH  15  18
ENDBRANCH   1  16
BRANCH   5  21
ATOM     21  C   UNL     1       0.411  11.530  19.463  0.00  0.00    +0.000 A 
ATOM     22  C   UNL     1       0.684  12.753  20.031  0.00  0.00    +0.000 A 
ATOM     23  C   UNL     1       0.081  13.750  19.221  0.00  0.00    +0.000 A 
ATOM     24  C   UNL     1      -0.539  13.099  18.176  0.00  0.00    +0.000 A 
ATOM     25  N   UNL     1      -0.327  11.757  18.329  0.00  0.00    +0.000 N 
ATOM     26  H   UNL     1      -0.662  11.018  17.726  0.00  0.00    +0.000 HD
ENDBRANCH   5  21
TORSDOF 3
ENDMDL
