MODEL 1
REMARK VINA RESULT:      -8.0      0.000      0.000
REMARK  Name = 
REMARK  7 active torsions:
REMARK  status: ('A' for Active; 'I' for Inactive)
REMARK    1  A    between atoms: C_1  and  N_2
REMARK    2  A    between atoms: C_6  and  O_7
REMARK    3  A    between atoms: O_7  and  C_8
REMARK    4  A    between atoms: C_8  and  C_10
REMARK    5  A    between atoms: C_10  and  C_11
REMARK    6  A    between atoms: C_10  and  C_12
REMARK    7  A    between atoms: C_10  and  C_18
REMARK                            x       y       z     vdW  Elec       q    Type
REMARK                         _______ _______ _______ _____ _____    ______ ____
ROOT
ATOM      1  C   UNL     1       5.580   5.395  15.796  0.00  0.00    +0.000 C 
ATOM      2  C   UNL     1       4.637   6.565  15.392  0.00  0.00    +0.000 C 
ENDROOT
BRANCH   1   3
ATOM      3  C   UNL     1       6.590   5.861  16.894  0.00  0.00    +0.000 A 
ATOM      4  C   UNL     1       7.122   4.941  17.821  0.00  0.00    +0.000 A 
ATOM      5  C   UNL     1       8.017   5.346  18.817  0.00  0.00    +0.000 A 
ATOM      6  C   UNL     1       8.381   6.684  18.928  0.00  0.00    +0.000 A 
ATOM      7  C   UNL     1       7.841   7.619  18.049  0.00  0.00    +0.000 A 
ATOM      8  C   UNL     1       6.952   7.213  17.048  0.00  0.00    +0.000 A 
ENDBRANCH   1   3
BRANCH   1   9
ATOM      9  C   UNL     1       6.313   4.957  14.488  0.00  0.00    +0.000 A 
ATOM     10  C   UNL     1       7.506   5.558  14.047  0.00  0.00    +0.000 A 
ATOM     11  C   UNL     1       8.093   5.197  12.829  0.00  0.00    +0.000 A 
ATOM     12  C   UNL     1       7.511   4.218  12.030  0.00  0.00    +0.000 A 
ATOM     13  C   UNL     1       6.353   3.580  12.460  0.00  0.00    +0.000 A 
ATOM     14  C   UNL     1       5.764   3.940  13.677  0.00  0.00    +0.000 A 
ENDBRANCH   1   9
BRANCH   1  15
ATOM     15  C   UNL     1       4.757   4.227  16.437  0.00  0.00    +0.000 C 
ATOM     16  O   UNL     1       5.221   3.129  16.727  0.00  0.00    +0.000 OA
BRANCH  15  17
ATOM     17  O   UNL     1       3.465   4.582  16.701  0.00  0.00    +0.000 OA
BRANCH  17  23
ATOM     18  C   UNL     1       1.874   2.558  22.002  0.00  0.00    +0.000 C 
ATOM     19  N   UNL     1       1.814   2.444  20.556  0.00  0.00    +0.000 NA
ATOM     20  C   UNL     1       0.622   3.037  19.924  0.00  0.00    +0.000 C 
ATOM     21  C   UNL     1       1.097   3.204  18.472  0.00  0.00    +0.000 C 
ATOM     22  C   UNL     1       1.577   4.651  18.173  0.00  0.00    +0.000 C 
ATOM     23  C   UNL     1       3.116   4.826  18.088  0.00  0.00    +0.000 C 
ATOM     24  C   UNL     1       3.928   3.880  19.016  0.00  0.00    +0.000 C 
ATOM     25  C   UNL     1       3.026   2.827  19.768  0.00  0.00    +0.000 C 
ATOM     26  C   UNL     1       2.301   2.279  18.502  0.00  0.00    +0.000 C 
ENDBRANCH  17  23
ENDBRANCH  15  17
ENDBRANCH   1  15
TORSDOF 5
ENDMDL
MODEL 2
REMARK VINA RESULT:      -7.8      0.796      1.136
REMARK  Name = 
REMARK  7 active torsions:
REMARK  status: ('A' for Active; 'I' for Inactive)
REMARK    1  A    between atoms: C_1  and  N_2
REMARK    2  A    between atoms: C_6  and  O_7
REMARK    3  A    between atoms: O_7  and  C_8
REMARK    4  A    between atoms: C_8  and  C_10
REMARK    5  A    between atoms: C_10  and  C_11
REMARK    6  A    between atoms: C_10  and  C_12
REMARK    7  A    between atoms: C_10  and  C_18
REMARK                            x       y       z     vdW  Elec       q    Type
REMARK                         _______ _______ _______ _____ _____    ______ ____
ROOT
ATOM      1  C   UNL     1       5.665   5.156  15.737  0.00  0.00    +0.000 C 
ATOM      2  C   UNL     1       4.537   6.175  15.405  0.00  0.00    +0.000 C 
ENDROOT
BRANCH   1   3
ATOM      3  C   UNL     1       6.628   5.741  16.821  0.00  0.00    +0.000 A 
ATOM      4  C   UNL     1       7.236   4.899  17.775  0.00  0.00    +0.000 A 
ATOM      5  C   UNL     1       8.089   5.410  18.758  0.00  0.00    +0.000 A 
ATOM      6  C   UNL     1       8.335   6.777  18.829  0.00  0.00    +0.000 A 
ATOM      7  C   UNL     1       7.718   7.635  17.923  0.00  0.00    +0.000 A 
ATOM      8  C   UNL     1       6.871   7.124  16.935  0.00  0.00    +0.000 A 
ENDBRANCH   1   3
BRANCH   1   9
ATOM      9  C   UNL     1       6.411   4.880  14.393  0.00  0.00    +0.000 A 
ATOM     10  C   UNL     1       7.573   5.576  14.011  0.00  0.00    +0.000 A 
ATOM     11  C   UNL     1       8.170   5.360  12.764  0.00  0.00    +0.000 A 
ATOM     12  C   UNL     1       7.630   4.437  11.875  0.00  0.00    +0.000 A 
ATOM     13  C   UNL     1       6.505   3.707  12.243  0.00  0.00    +0.000 A 
ATOM     14  C   UNL     1       5.906   3.920  13.489  0.00  0.00    +0.000 A 
ENDBRANCH   1   9
BRANCH   1  15
ATOM     15  C   UNL     1       5.059   3.853  16.360  0.00  0.00    +0.000 C 
ATOM     16  O   UNL     1       5.519   2.728  16.202  0.00  0.00    +0.000 OA
BRANCH  15  17
ATOM     17  O   UNL     1       3.981   4.110  17.160  0.00  0.00    +0.000 OA
BRANCH  17  23
ATOM     18  C   UNL     1       1.249   2.476  22.119  0.00  0.00    +0.000 C 
ATOM     19  N   UNL     1       1.302   3.337  20.952  0.00  0.00    +0.000 NA
ATOM     20  C   UNL     1       1.884   4.673  21.178  0.00  0.00    +0.000 C 
ATOM     21  C   UNL     1       2.251   5.092  19.745  0.00  0.00    +0.000 C 
ATOM     22  C   UNL     1       3.752   4.847  19.427  0.00  0.00    +0.000 C 
ATOM     23  C   UNL     1       4.038   3.619  18.525  0.00  0.00    +0.000 C 
ATOM     24  C   UNL     1       3.046   2.436  18.705  0.00  0.00    +0.000 C 
ATOM     25  C   UNL     1       1.854   2.772  19.682  0.00  0.00    +0.000 C 
ATOM     26  C   UNL     1       1.411   4.089  18.975  0.00  0.00    +0.000 C 
ENDBRANCH  17  23
ENDBRANCH  15  17
ENDBRANCH   1  15
TORSDOF 5
ENDMDL
MODEL 3
REMARK VINA RESULT:      -7.6      6.064      8.318
REMARK  Name = 
REMARK  7 active torsions:
REMARK  status: ('A' for Active; 'I' for Inactive)
REMARK    1  A    between atoms: C_1  and  N_2
REMARK    2  A    between atoms: C_6  and  O_7
REMARK    3  A    between atoms: O_7  and  C_8
REMARK    4  A    between atoms: C_8  and  C_10
REMARK    5  A    between atoms: C_10  and  C_11
REMARK    6  A    between atoms: C_10  and  C_12
REMARK    7  A    between atoms: C_10  and  C_18
REMARK                            x       y       z     vdW  Elec       q    Type
REMARK                         _______ _______ _______ _____ _____    ______ ____
ROOT
ATOM      1  C   UNL     1       0.117  10.437  19.058  0.00  0.00    +0.000 C 
ATOM      2  C   UNL     1      -0.158   9.686  20.394  0.00  0.00    +0.000 C 
ENDROOT
BRANCH   1   3
ATOM      3  C   UNL     1       0.664  11.874  19.342  0.00  0.00    +0.000 A 
ATOM      4  C   UNL     1       1.379  12.152  20.525  0.00  0.00    +0.000 A 
ATOM      5  C   UNL     1       1.864  13.435  20.798  0.00  0.00    +0.000 A 
ATOM      6  C   UNL     1       1.623  14.477  19.908  0.00  0.00    +0.000 A 
ATOM      7  C   UNL     1       0.887  14.238  18.751  0.00  0.00    +0.000 A 
ATOM      8  C   UNL     1       0.409  12.953  18.474  0.00  0.00    +0.000 A 
ENDBRANCH   1   3
BRANCH   1   9
ATOM      9  C   UNL     1      -1.245  10.479  18.295  0.00  0.00    +0.000 A 
ATOM     10  C   UNL     1      -1.454   9.811  17.075  0.00  0.00    +0.000 A 
ATOM     11  C   UNL     1      -2.661   9.936  16.377  0.00  0.00    +0.000 A 
ATOM     12  C   UNL     1      -3.691  10.719  16.887  0.00  0.00    +0.000 A 
ATOM     13  C   UNL     1      -3.525  11.360  18.111  0.00  0.00    +0.000 A 
ATOM     14  C   UNL     1      -2.320  11.236  18.809  0.00  0.00    +0.000 A 
ENDBRANCH   1   9
BRANCH   1  15
ATOM     15  C   UNL     1       1.235   9.705  18.241  0.00  0.00    +0.000 C 
ATOM     16  O   UNL     1       2.022  10.265  17.486  0.00  0.00    +0.000 OA
BRANCH  15  17
ATOM     17  O   UNL     1       1.284   8.366  18.506  0.00  0.00    +0.000 OA
BRANCH  17  23
ATOM     18  C   UNL     1       5.226   3.990  18.695  0.00  0.00    +0.000 C 
ATOM     19  N   UNL     1       3.841   4.415  18.625  0.00  0.00    +0.000 NA
ATOM     20  C   UNL     1       3.117   4.424  19.908  0.00  0.00    +0.000 C 
ATOM     21  C   UNL     1       1.939   5.359  19.588  0.00  0.00    +0.000 C 
ATOM     22  C   UNL     1       2.187   6.809  20.087  0.00  0.00    +0.000 C 
ATOM     23  C   UNL     1       2.549   7.831  18.978  0.00  0.00    +0.000 C 
ATOM     24  C   UNL     1       3.352   7.237  17.787  0.00  0.00    +0.000 C 
ATOM     25  C   UNL     1       3.526   5.672  17.877  0.00  0.00    +0.000 C 
ATOM     26  C   UNL     1       2.016   5.337  18.072  0.00  0.00    +0.000 C 
ENDBRANCH  17  23
ENDBRANCH  15  17
ENDBRANCH   1  15
TORSDOF 5
ENDMDL
MODEL 4
REMARK VINA RESULT:      -7.4      0.992      3.889
REMARK  Name = 
REMARK  7 active torsions:
REMARK  status: ('A' for Active; 'I' for Inactive)
REMARK    1  A    between atoms: C_1  and  N_2
REMARK    2  A    between atoms: C_6  and  O_7
REMARK    3  A    between atoms: O_7  and  C_8
REMARK    4  A    between atoms: C_8  and  C_10
REMARK    5  A    between atoms: C_10  and  C_11
REMARK    6  A    between atoms: C_10  and  C_12
REMARK    7  A    between atoms: C_10  and  C_18
REMARK                            x       y       z     vdW  Elec       q    Type
REMARK                         _______ _______ _______ _____ _____    ______ ____
ROOT
ATOM      1  C   UNL     1       5.938   5.284  16.859  0.00  0.00    +0.000 C 
ATOM      2  C   UNL     1       6.060   3.999  17.730  0.00  0.00    +0.000 C 
ENDROOT
BRANCH   1   3
ATOM      3  C   UNL     1       6.297   4.970  15.370  0.00  0.00    +0.000 A 
ATOM      4  C   UNL     1       5.470   4.138  14.590  0.00  0.00    +0.000 A 
ATOM      5  C   UNL     1       5.784   3.838  13.260  0.00  0.00    +0.000 A 
ATOM      6  C   UNL     1       6.947   4.341  12.687  0.00  0.00    +0.000 A 
ATOM      7  C   UNL     1       7.801   5.135  13.446  0.00  0.00    +0.000 A 
ATOM      8  C   UNL     1       7.483   5.442  14.774  0.00  0.00    +0.000 A 
ENDBRANCH   1   3
BRANCH   1   9
ATOM      9  C   UNL     1       6.921   6.326  17.481  0.00  0.00    +0.000 A 
ATOM     10  C   UNL     1       7.716   6.044  18.607  0.00  0.00    +0.000 A 
ATOM     11  C   UNL     1       8.526   7.026  19.188  0.00  0.00    +0.000 A 
ATOM     12  C   UNL     1       8.571   8.309  18.651  0.00  0.00    +0.000 A 
ATOM     13  C   UNL     1       7.825   8.604  17.515  0.00  0.00    +0.000 A 
ATOM     14  C   UNL     1       7.015   7.624  16.934  0.00  0.00    +0.000 A 
ENDBRANCH   1   9
BRANCH   1  15
ATOM     15  C   UNL     1       4.458   5.796  16.845  0.00  0.00    +0.000 C 
ATOM     16  O   UNL     1       4.127   6.956  16.631  0.00  0.00    +0.000 OA
BRANCH  15  17
ATOM     17  O   UNL     1       3.556   4.788  17.038  0.00  0.00    +0.000 OA
BRANCH  17  23
ATOM     18  C   UNL     1       1.225   2.654  22.011  0.00  0.00    +0.000 C 
ATOM     19  N   UNL     1       1.768   2.413  20.688  0.00  0.00    +0.000 NA
ATOM     20  C   UNL     1       0.771   2.246  19.616  0.00  0.00    +0.000 C 
ATOM     21  C   UNL     1       1.619   2.522  18.364  0.00  0.00    +0.000 C 
ATOM     22  C   UNL     1       1.453   3.979  17.850  0.00  0.00    +0.000 C 
ATOM     23  C   UNL     1       2.644   4.923  18.160  0.00  0.00    +0.000 C 
ATOM     24  C   UNL     1       3.387   4.614  19.489  0.00  0.00    +0.000 C 
ATOM     25  C   UNL     1       2.864   3.308  20.202  0.00  0.00    +0.000 C 
ATOM     26  C   UNL     1       3.003   2.365  18.968  0.00  0.00    +0.000 C 
ENDBRANCH  17  23
ENDBRANCH  15  17
ENDBRANCH   1  15
TORSDOF 5
ENDMDL
MODEL 5
REMARK VINA RESULT:      -7.4      0.743      1.398
REMARK  Name = 
REMARK  7 active torsions:
REMARK  status: ('A' for Active; 'I' for Inactive)
REMARK    1  A    between atoms: C_1  and  N_2
REMARK    2  A    between atoms: C_6  and  O_7
REMARK    3  A    between atoms: O_7  and  C_8
REMARK    4  A    between atoms: C_8  and  C_10
REMARK    5  A    between atoms: C_10  and  C_11
REMARK    6  A    between atoms: C_10  and  C_12
REMARK    7  A    between atoms: C_10  and  C_18
REMARK                            x       y       z     vdW  Elec       q    Type
REMARK                         _______ _______ _______ _____ _____    ______ ____
ROOT
ATOM      1  C   UNL     1       5.553   5.388  15.723  0.00  0.00    +0.000 C 
ATOM      2  C   UNL     1       4.645   6.591  15.332  0.00  0.00    +0.000 C 
ENDROOT
BRANCH   1   3
ATOM      3  C   UNL     1       6.552   5.803  16.852  0.00  0.00    +0.000 A 
ATOM      4  C   UNL     1       7.045   4.847  17.764  0.00  0.00    +0.000 A 
ATOM      5  C   UNL     1       7.929   5.205  18.787  0.00  0.00    +0.000 A 
ATOM      6  C   UNL     1       8.321   6.531  18.940  0.00  0.00    +0.000 A 
ATOM      7  C   UNL     1       7.820   7.500  18.077  0.00  0.00    +0.000 A 
ATOM      8  C   UNL     1       6.941   7.142  17.049  0.00  0.00    +0.000 A 
ENDBRANCH   1   3
BRANCH   1   9
ATOM      9  C   UNL     1       6.302   4.966  14.419  0.00  0.00    +0.000 A 
ATOM     10  C   UNL     1       7.504   5.567  14.003  0.00  0.00    +0.000 A 
ATOM     11  C   UNL     1       8.106   5.221  12.788  0.00  0.00    +0.000 A 
ATOM     12  C   UNL     1       7.529   4.259  11.966  0.00  0.00    +0.000 A 
ATOM     13  C   UNL     1       6.361   3.621  12.370  0.00  0.00    +0.000 A 
ATOM     14  C   UNL     1       5.758   3.965  13.584  0.00  0.00    +0.000 A 
ENDBRANCH   1   9
BRANCH   1  15
ATOM     15  C   UNL     1       4.691   4.224  16.318  0.00  0.00    +0.000 C 
ATOM     16  O   UNL     1       5.003   3.039  16.278  0.00  0.00    +0.000 OA
BRANCH  15  17
ATOM     17  O   UNL     1       3.568   4.677  16.950  0.00  0.00    +0.000 OA
BRANCH  17  23
ATOM     18  C   UNL     1       1.188   2.671  21.954  0.00  0.00    +0.000 C 
ATOM     19  N   UNL     1       2.285   3.336  21.276  0.00  0.00    +0.000 NA
ATOM     20  C   UNL     1       3.440   2.479  20.952  0.00  0.00    +0.000 C 
ATOM     21  C   UNL     1       4.133   3.303  19.855  0.00  0.00    +0.000 C 
ATOM     22  C   UNL     1       3.772   2.803  18.428  0.00  0.00    +0.000 C 
ATOM     23  C   UNL     1       2.765   3.696  17.657  0.00  0.00    +0.000 C 
ATOM     24  C   UNL     1       1.716   4.412  18.552  0.00  0.00    +0.000 C 
ATOM     25  C   UNL     1       1.967   4.196  20.095  0.00  0.00    +0.000 C 
ATOM     26  C   UNL     1       3.461   4.643  20.095  0.00  0.00    +0.000 C 
ENDBRANCH  17  23
ENDBRANCH  15  17
ENDBRANCH   1  15
TORSDOF 5
ENDMDL
MODEL 6
REMARK VINA RESULT:      -7.2      0.814      1.803
REMARK  Name = 
REMARK  7 active torsions:
REMARK  status: ('A' for Active; 'I' for Inactive)
REMARK    1  A    between atoms: C_1  and  N_2
REMARK    2  A    between atoms: C_6  and  O_7
REMARK    3  A    between atoms: O_7  and  C_8
REMARK    4  A    between atoms: C_8  and  C_10
REMARK    5  A    between atoms: C_10  and  C_11
REMARK    6  A    between atoms: C_10  and  C_12
REMARK    7  A    between atoms: C_10  and  C_18
REMARK                            x       y       z     vdW  Elec       q    Type
REMARK                         _______ _______ _______ _____ _____    ______ ____
ROOT
ATOM      1  C   UNL     1       5.522   4.976  15.794  0.00  0.00    +0.000 C 
ATOM      2  C   UNL     1       4.331   5.947  15.543  0.00  0.00    +0.000 C 
ENDROOT
BRANCH   1   3
ATOM      3  C   UNL     1       6.496   5.572  16.863  0.00  0.00    +0.000 A 
ATOM      4  C   UNL     1       6.755   6.957  16.908  0.00  0.00    +0.000 A 
ATOM      5  C   UNL     1       7.633   7.502  17.850  0.00  0.00    +0.000 A 
ATOM      6  C   UNL     1       8.293   6.674  18.753  0.00  0.00    +0.000 A 
ATOM      7  C   UNL     1       8.083   5.299  18.705  0.00  0.00    +0.000 A 
ATOM      8  C   UNL     1       7.199   4.754  17.768  0.00  0.00    +0.000 A 
ENDBRANCH   1   3
BRANCH   1   9
ATOM      9  C   UNL     1       6.228   4.789  14.413  0.00  0.00    +0.000 A 
ATOM     10  C   UNL     1       5.754   3.900  13.431  0.00  0.00    +0.000 A 
ATOM     11  C   UNL     1       6.456   3.696  12.238  0.00  0.00    +0.000 A 
ATOM     12  C   UNL     1       7.639   4.384  11.991  0.00  0.00    +0.000 A 
ATOM     13  C   UNL     1       8.110   5.299  12.927  0.00  0.00    +0.000 A 
ATOM     14  C   UNL     1       7.410   5.503  14.121  0.00  0.00    +0.000 A 
ENDBRANCH   1   9
BRANCH   1  15
ATOM     15  C   UNL     1       5.007   3.622  16.389  0.00  0.00    +0.000 C 
ATOM     16  O   UNL     1       5.564   2.540  16.235  0.00  0.00    +0.000 OA
BRANCH  15  17
ATOM     17  O   UNL     1       3.891   3.781  17.159  0.00  0.00    +0.000 OA
BRANCH  17  23
ATOM     18  C   UNL     1       1.162   2.389  22.193  0.00  0.00    +0.000 C 
ATOM     19  N   UNL     1       1.290   3.273  21.050  0.00  0.00    +0.000 NA
ATOM     20  C   UNL     1       2.070   4.501  21.286  0.00  0.00    +0.000 C 
ATOM     21  C   UNL     1       2.433   4.913  19.850  0.00  0.00    +0.000 C 
ATOM     22  C   UNL     1       3.868   4.464  19.455  0.00  0.00    +0.000 C 
ATOM     23  C   UNL     1       3.933   3.240  18.505  0.00  0.00    +0.000 C 
ATOM     24  C   UNL     1       2.787   2.207  18.699  0.00  0.00    +0.000 C 
ATOM     25  C   UNL     1       1.699   2.678  19.740  0.00  0.00    +0.000 C 
ATOM     26  C   UNL     1       1.424   4.069  19.092  0.00  0.00    +0.000 C 
ENDBRANCH  17  23
ENDBRANCH  15  17
ENDBRANCH   1  15
TORSDOF 5
ENDMDL
MODEL 7
REMARK VINA RESULT:      -7.2      5.521      7.819
REMARK  Name = 
REMARK  7 active torsions:
REMARK  status: ('A' for Active; 'I' for Inactive)
REMARK    1  A    between atoms: C_1  and  N_2
REMARK    2  A    between atoms: C_6  and  O_7
REMARK    3  A    between atoms: O_7  and  C_8
REMARK    4  A    between atoms: C_8  and  C_10
REMARK    5  A    between atoms: C_10  and  C_11
REMARK    6  A    between atoms: C_10  and  C_12
REMARK    7  A    between atoms: C_10  and  C_18
REMARK                            x       y       z     vdW  Elec       q    Type
REMARK                         _______ _______ _______ _____ _____    ______ ____
ROOT
ATOM      1  C   UNL     1       0.697  10.078  19.209  0.00  0.00    +0.000 C 
ATOM      2  C   UNL     1       0.409   9.460  20.609  0.00  0.00    +0.000 C 
ENDROOT
BRANCH   1   3
ATOM      3  C   UNL     1       1.466  11.431  19.357  0.00  0.00    +0.000 A 
ATOM      4  C   UNL     1       1.502  12.107  20.594  0.00  0.00    +0.000 A 
ATOM      5  C   UNL     1       2.175  13.324  20.739  0.00  0.00    +0.000 A 
ATOM      6  C   UNL     1       2.805  13.909  19.645  0.00  0.00    +0.000 A 
ATOM      7  C   UNL     1       2.752  13.282  18.404  0.00  0.00    +0.000 A 
ATOM      8  C   UNL     1       2.085  12.060  18.260  0.00  0.00    +0.000 A 
ENDBRANCH   1   3
BRANCH   1   9
ATOM      9  C   UNL     1      -0.694  10.277  18.527  0.00  0.00    +0.000 A 
ATOM     10  C   UNL     1      -1.082   9.575  17.371  0.00  0.00    +0.000 A 
ATOM     11  C   UNL     1      -2.303   9.836  16.740  0.00  0.00    +0.000 A 
ATOM     12  C   UNL     1      -3.171  10.794  17.254  0.00  0.00    +0.000 A 
ATOM     13  C   UNL     1      -2.830  11.476  18.418  0.00  0.00    +0.000 A 
ATOM     14  C   UNL     1      -1.610  11.216  19.051  0.00  0.00    +0.000 A 
ENDBRANCH   1   9
BRANCH   1  15
ATOM     15  C   UNL     1       1.637   9.138  18.380  0.00  0.00    +0.000 C 
ATOM     16  O   UNL     1       2.135   9.433  17.300  0.00  0.00    +0.000 OA
BRANCH  15  17
ATOM     17  O   UNL     1       1.898   7.962  19.023  0.00  0.00    +0.000 OA
BRANCH  17  23
ATOM     18  C   UNL     1       2.863   2.259  17.899  0.00  0.00    +0.000 C 
ATOM     19  N   UNL     1       2.575   3.307  18.861  0.00  0.00    +0.000 NA
ATOM     20  C   UNL     1       3.741   3.823  19.600  0.00  0.00    +0.000 C 
ATOM     21  C   UNL     1       3.210   5.176  20.100  0.00  0.00    +0.000 C 
ATOM     22  C   UNL     1       3.667   6.356  19.198  0.00  0.00    +0.000 C 
ATOM     23  C   UNL     1       2.571   6.926  18.261  0.00  0.00    +0.000 C 
ATOM     24  C   UNL     1       1.537   5.879  17.760  0.00  0.00    +0.000 C 
ATOM     25  C   UNL     1       1.729   4.457  18.417  0.00  0.00    +0.000 C 
ATOM     26  C   UNL     1       1.724   4.944  19.898  0.00  0.00    +0.000 C 
ENDBRANCH  17  23
ENDBRANCH  15  17
ENDBRANCH   1  15
TORSDOF 5
ENDMDL
MODEL 8
REMARK VINA RESULT:      -7.2      8.379     10.439
REMARK  Name = 
REMARK  7 active torsions:
REMARK  status: ('A' for Active; 'I' for Inactive)
REMARK    1  A    between atoms: C_1  and  N_2
REMARK    2  A    between atoms: C_6  and  O_7
REMARK    3  A    between atoms: O_7  and  C_8
REMARK    4  A    between atoms: C_8  and  C_10
REMARK    5  A    between atoms: C_10  and  C_11
REMARK    6  A    between atoms: C_10  and  C_12
REMARK    7  A    between atoms: C_10  and  C_18
REMARK                            x       y       z     vdW  Elec       q    Type
REMARK                         _______ _______ _______ _____ _____    ______ ____
ROOT
ATOM      1  C   UNL     1       0.505  10.940  19.267  0.00  0.00    +0.000 C 
ATOM      2  C   UNL     1       1.272  12.040  18.477  0.00  0.00    +0.000 C 
ENDROOT
BRANCH   1   3
ATOM      3  C   UNL     1       1.260   9.574  19.175  0.00  0.00    +0.000 A 
ATOM      4  C   UNL     1       1.884   9.176  17.975  0.00  0.00    +0.000 A 
ATOM      5  C   UNL     1       2.553   7.952  17.874  0.00  0.00    +0.000 A 
ATOM      6  C   UNL     1       2.591   7.085  18.961  0.00  0.00    +0.000 A 
ATOM      7  C   UNL     1       1.952   7.437  20.145  0.00  0.00    +0.000 A 
ATOM      8  C   UNL     1       1.290   8.665  20.250  0.00  0.00    +0.000 A 
ENDBRANCH   1   3
BRANCH   1   9
ATOM      9  C   UNL     1      -0.917  10.856  18.627  0.00  0.00    +0.000 A 
ATOM     10  C   UNL     1      -1.646   9.655  18.548  0.00  0.00    +0.000 A 
ATOM     11  C   UNL     1      -2.882   9.599  17.896  0.00  0.00    +0.000 A 
ATOM     12  C   UNL     1      -3.427  10.742  17.319  0.00  0.00    +0.000 A 
ATOM     13  C   UNL     1      -2.746  11.951  17.417  0.00  0.00    +0.000 A 
ATOM     14  C   UNL     1      -1.510  12.009  18.068  0.00  0.00    +0.000 A 
ENDBRANCH   1   9
BRANCH   1  15
ATOM     15  C   UNL     1       0.452  11.299  20.791  0.00  0.00    +0.000 C 
ATOM     16  O   UNL     1       1.428  11.607  21.466  0.00  0.00    +0.000 OA
BRANCH  15  17
ATOM     17  O   UNL     1      -0.821  11.293  21.285  0.00  0.00    +0.000 OA
BRANCH  17  23
ATOM     18  C   UNL     1      -4.827  14.814  23.791  0.00  0.00    +0.000 C 
ATOM     19  N   UNL     1      -4.340  14.125  22.611  0.00  0.00    +0.000 NA
ATOM     20  C   UNL     1      -3.534  14.945  21.689  0.00  0.00    +0.000 C 
ATOM     21  C   UNL     1      -2.790  13.864  20.889  0.00  0.00    +0.000 C 
ATOM     22  C   UNL     1      -1.349  13.625  21.421  0.00  0.00    +0.000 C 
ATOM     23  C   UNL     1      -1.164  12.325  22.246  0.00  0.00    +0.000 C 
ATOM     24  C   UNL     1      -2.411  11.895  23.068  0.00  0.00    +0.000 C 
ATOM     25  C   UNL     1      -3.675  12.798  22.792  0.00  0.00    +0.000 C 
ATOM     26  C   UNL     1      -3.653  12.665  21.239  0.00  0.00    +0.000 C 
ENDBRANCH  17  23
ENDBRANCH  15  17
ENDBRANCH   1  15
TORSDOF 5
ENDMDL
MODEL 9
REMARK VINA RESULT:      -7.2      7.852     10.923
REMARK  Name = 
REMARK  7 active torsions:
REMARK  status: ('A' for Active; 'I' for Inactive)
REMARK    1  A    between atoms: C_1  and  N_2
REMARK    2  A    between atoms: C_6  and  O_7
REMARK    3  A    between atoms: O_7  and  C_8
REMARK    4  A    between atoms: C_8  and  C_10
REMARK    5  A    between atoms: C_10  and  C_11
REMARK    6  A    between atoms: C_10  and  C_12
REMARK    7  A    between atoms: C_10  and  C_18
REMARK                            x       y       z     vdW  Elec       q    Type
REMARK                         _______ _______ _______ _____ _____    ______ ____
ROOT
ATOM      1  C   UNL     1      -0.455  11.389  19.592  0.00  0.00    +0.000 C 
ATOM      2  C   UNL     1      -0.619  11.501  21.136  0.00  0.00    +0.000 C 
ENDROOT
BRANCH   1   3
ATOM      3  C   UNL     1      -1.841  11.132  18.914  0.00  0.00    +0.000 A 
ATOM      4  C   UNL     1      -1.991  10.119  17.945  0.00  0.00    +0.000 A 
ATOM      5  C   UNL     1      -3.221   9.885  17.321  0.00  0.00    +0.000 A 
ATOM      6  C   UNL     1      -4.323  10.676  17.631  0.00  0.00    +0.000 A 
ATOM      7  C   UNL     1      -4.193  11.706  18.556  0.00  0.00    +0.000 A 
ATOM      8  C   UNL     1      -2.965  11.935  19.186  0.00  0.00    +0.000 A 
ENDBRANCH   1   3
BRANCH   1   9
ATOM      9  C   UNL     1       0.535  10.208  19.344  0.00  0.00    +0.000 A 
ATOM     10  C   UNL     1       1.186  10.007  18.113  0.00  0.00    +0.000 A 
ATOM     11  C   UNL     1       2.005   8.892  17.899  0.00  0.00    +0.000 A 
ATOM     12  C   UNL     1       2.204   7.960  18.912  0.00  0.00    +0.000 A 
ATOM     13  C   UNL     1       1.603   8.154  20.151  0.00  0.00    +0.000 A 
ATOM     14  C   UNL     1       0.785   9.267  20.367  0.00  0.00    +0.000 A 
ENDBRANCH   1   9
BRANCH   1  15
ATOM     15  C   UNL     1       0.068  12.741  18.998  0.00  0.00    +0.000 C 
ATOM     16  O   UNL     1      -0.265  13.196  17.910  0.00  0.00    +0.000 OA
BRANCH  15  17
ATOM     17  O   UNL     1       0.901  13.400  19.857  0.00  0.00    +0.000 OA
BRANCH  17  23
ATOM     18  C   UNL     1       6.537  15.111  19.664  0.00  0.00    +0.000 C 
ATOM     19  N   UNL     1       5.150  15.349  19.307  0.00  0.00    +0.000 NA
ATOM     20  C   UNL     1       4.763  14.920  17.952  0.00  0.00    +0.000 C 
ATOM     21  C   UNL     1       3.235  14.833  18.084  0.00  0.00    +0.000 C 
ATOM     22  C   UNL     1       2.748  13.378  18.333  0.00  0.00    +0.000 C 
ATOM     23  C   UNL     1       2.314  13.073  19.790  0.00  0.00    +0.000 C 
ATOM     24  C   UNL     1       3.094  13.862  20.878  0.00  0.00    +0.000 C 
ATOM     25  C   UNL     1       4.091  14.926  20.275  0.00  0.00    +0.000 C 
ATOM     26  C   UNL     1       3.053  15.640  19.356  0.00  0.00    +0.000 C 
ENDBRANCH  17  23
ENDBRANCH  15  17
ENDBRANCH   1  15
TORSDOF 5
ENDMDL
