MODEL 1
REMARK VINA RESULT:      -7.0      0.000      0.000
REMARK  Name = 
REMARK  13 active torsions:
REMARK  status: ('A' for Active; 'I' for Inactive)
REMARK    1  A    between atoms: C_1  and  C_2
REMARK    2  A    between atoms: N_4  and  C_5
REMARK    3  A    between atoms: C_7  and  S_8
REMARK    4  A    between atoms: S_8  and  S_9
REMARK    5  A    between atoms: S_9  and  C_10
REMARK    6  A    between atoms: C_10  and  C_11
REMARK    7  A    between atoms: C_11  and  C_12
REMARK    8  A    between atoms: C_12  and  C_13
REMARK    9  A    between atoms: C_13  and  C_14
REMARK   10  A    between atoms: C_14  and  C_15
REMARK   11  A    between atoms: C_15  and  O_16
REMARK   12  A    between atoms: C_17  and  C_18
REMARK   13  A    between atoms: C_18  and  O_19
REMARK                            x       y       z     vdW  Elec       q    Type
REMARK                         _______ _______ _______ _____ _____    ______ ____
ROOT
ATOM      1  C   UNL     1       5.676   4.270  18.146  0.00  0.00    +0.000 C 
ATOM      2  C   UNL     1       5.055   5.462  18.862  0.00  0.00    +0.000 C 
ATOM      3  C   UNL     1       3.628   5.402  18.375  0.00  0.00    +0.000 C 
ATOM      4  C   UNL     1       3.351   3.906  18.373  0.00  0.00    +0.000 C 
ATOM      5  O   UNL     1       4.625   3.274  18.070  0.00  0.00    +0.000 OA
ENDROOT
BRANCH   1   9
ATOM      6  C   UNL     1       5.559   3.477  13.242  0.00  0.00    +0.000 C 
ATOM      7  C   UNL     1       6.124   4.158  14.446  0.00  0.00    +0.000 A 
ATOM      8  C   UNL     1       5.692   3.923  15.689  0.00  0.00    +0.000 A 
ATOM      9  N   UNL     1       6.185   4.584  16.796  0.00  0.00    +0.000 N 
ATOM     10  C   UNL     1       7.236   5.495  16.676  0.00  0.00    +0.000 A 
ATOM     11  O   UNL     1       7.733   6.114  17.613  0.00  0.00    +0.000 OA
ATOM     12  N   UNL     1       7.701   5.697  15.401  0.00  0.00    +0.000 N 
ATOM     13  C   UNL     1       7.200   5.145  14.261  0.00  0.00    +0.000 A 
ATOM     14  O   UNL     1       7.619   5.454  13.147  0.00  0.00    +0.000 OA
ATOM     15  H   UNL     1       8.446   6.369  15.289  0.00  0.00    +0.000 HD
ENDBRANCH   1   9
BRANCH   3  16
ATOM     16  S   UNL     1       2.455   6.378  19.364  0.00  0.00    +0.000 S 
BRANCH  16  17
ATOM     17  S   UNL     1       2.229   8.058  18.196  0.00  0.00    +0.000 S 
BRANCH  17  18
ATOM     18  C   UNL     1       1.303   9.155  19.318  0.00  0.00    +0.000 C 
BRANCH  18  19
ATOM     19  C   UNL     1       0.565  10.207  18.505  0.00  0.00    +0.000 C 
BRANCH  19  20
ATOM     20  C   UNL     1      -0.702  10.669  19.225  0.00  0.00    +0.000 C 
BRANCH  20  21
ATOM     21  C   UNL     1      -1.791  11.020  18.213  0.00  0.00    +0.000 C 
BRANCH  21  22
ATOM     22  C   UNL     1      -2.160   9.820  17.348  0.00  0.00    +0.000 C 
BRANCH  22  23
ATOM     23  C   UNL     1      -2.577  10.251  15.949  0.00  0.00    +0.000 C 
BRANCH  23  24
ATOM     24  O   UNL     1      -2.479  11.664  15.835  0.00  0.00    +0.000 OA
ATOM     25  H   UNL     1      -1.708  11.860  15.277  0.00  0.00    +0.000 HD
ENDBRANCH  23  24
ENDBRANCH  22  23
ENDBRANCH  21  22
ENDBRANCH  20  21
ENDBRANCH  19  20
ENDBRANCH  18  19
ENDBRANCH  17  18
ENDBRANCH  16  17
ENDBRANCH   3  16
BRANCH   4  26
ATOM     26  C   UNL     1       2.300   3.511  17.325  0.00  0.00    +0.000 C 
BRANCH  26  27
ATOM     27  O   UNL     1       1.050   4.144  17.586  0.00  0.00    +0.000 OA
ATOM     28  H   UNL     1       0.450   3.899  16.858  0.00  0.00    +0.000 HD
ENDBRANCH  26  27
ENDBRANCH   4  26
TORSDOF 12
ENDMDL
MODEL 2
REMARK VINA RESULT:      -6.8      3.823      7.701
REMARK  Name = 
REMARK  13 active torsions:
REMARK  status: ('A' for Active; 'I' for Inactive)
REMARK    1  A    between atoms: C_1  and  C_2
REMARK    2  A    between atoms: N_4  and  C_5
REMARK    3  A    between atoms: C_7  and  S_8
REMARK    4  A    between atoms: S_8  and  S_9
REMARK    5  A    between atoms: S_9  and  C_10
REMARK    6  A    between atoms: C_10  and  C_11
REMARK    7  A    between atoms: C_11  and  C_12
REMARK    8  A    between atoms: C_12  and  C_13
REMARK    9  A    between atoms: C_13  and  C_14
REMARK   10  A    between atoms: C_14  and  C_15
REMARK   11  A    between atoms: C_15  and  O_16
REMARK   12  A    between atoms: C_17  and  C_18
REMARK   13  A    between atoms: C_18  and  O_19
REMARK                            x       y       z     vdW  Elec       q    Type
REMARK                         _______ _______ _______ _____ _____    ______ ____
ROOT
ATOM      1  C   UNL     1       4.454   4.153  18.669  0.00  0.00    +0.000 C 
ATOM      2  C   UNL     1       4.850   4.319  17.208  0.00  0.00    +0.000 C 
ATOM      3  C   UNL     1       6.067   5.205  17.320  0.00  0.00    +0.000 C 
ATOM      4  C   UNL     1       6.764   4.641  18.548  0.00  0.00    +0.000 C 
ATOM      5  O   UNL     1       5.701   4.151  19.410  0.00  0.00    +0.000 OA
ENDROOT
BRANCH   1   9
ATOM      6  C   UNL     1       2.314   8.591  18.029  0.00  0.00    +0.000 C 
ATOM      7  C   UNL     1       2.571   7.366  18.845  0.00  0.00    +0.000 A 
ATOM      8  C   UNL     1       3.358   6.367  18.435  0.00  0.00    +0.000 A 
ATOM      9  N   UNL     1       3.561   5.217  19.170  0.00  0.00    +0.000 N 
ATOM     10  C   UNL     1       3.001   5.072  20.441  0.00  0.00    +0.000 A 
ATOM     11  O   UNL     1       3.143   4.085  21.157  0.00  0.00    +0.000 OA
ATOM     12  N   UNL     1       2.229   6.122  20.870  0.00  0.00    +0.000 N 
ATOM     13  C   UNL     1       1.919   7.241  20.158  0.00  0.00    +0.000 A 
ATOM     14  O   UNL     1       1.143   8.092  20.586  0.00  0.00    +0.000 OA
ATOM     15  H   UNL     1       1.796   6.027  21.777  0.00  0.00    +0.000 HD
ENDBRANCH   1   9
BRANCH   3  16
ATOM     16  S   UNL     1       7.103   5.250  15.827  0.00  0.00    +0.000 S 
BRANCH  16  17
ATOM     17  S   UNL     1       5.830   4.457  14.417  0.00  0.00    +0.000 S 
BRANCH  17  18
ATOM     18  C   UNL     1       6.980   4.108  13.047  0.00  0.00    +0.000 C 
BRANCH  18  19
ATOM     19  C   UNL     1       6.309   3.184  12.044  0.00  0.00    +0.000 C 
BRANCH  19  20
ATOM     20  C   UNL     1       4.791   3.191  12.219  0.00  0.00    +0.000 C 
BRANCH  20  21
ATOM     21  C   UNL     1       4.100   2.886  10.891  0.00  0.00    +0.000 C 
BRANCH  21  22
ATOM     22  C   UNL     1       3.117   3.986  10.506  0.00  0.00    +0.000 C 
BRANCH  22  23
ATOM     23  C   UNL     1       2.944   4.072   8.996  0.00  0.00    +0.000 C 
BRANCH  23  24
ATOM     24  O   UNL     1       2.187   5.227   8.666  0.00  0.00    +0.000 OA
ATOM     25  H   UNL     1       1.456   5.291   9.304  0.00  0.00    +0.000 HD
ENDBRANCH  23  24
ENDBRANCH  22  23
ENDBRANCH  21  22
ENDBRANCH  20  21
ENDBRANCH  19  20
ENDBRANCH  18  19
ENDBRANCH  17  18
ENDBRANCH  16  17
ENDBRANCH   3  16
BRANCH   4  26
ATOM     26  C   UNL     1       7.595   5.703  19.284  0.00  0.00    +0.000 C 
BRANCH  26  27
ATOM     27  O   UNL     1       7.711   5.397  20.671  0.00  0.00    +0.000 OA
ATOM     28  H   UNL     1       6.833   5.094  20.968  0.00  0.00    +0.000 HD
ENDBRANCH  26  27
ENDBRANCH   4  26
TORSDOF 12
ENDMDL
MODEL 3
REMARK VINA RESULT:      -6.8      1.009      1.075
REMARK  Name = 
REMARK  13 active torsions:
REMARK  status: ('A' for Active; 'I' for Inactive)
REMARK    1  A    between atoms: C_1  and  C_2
REMARK    2  A    between atoms: N_4  and  C_5
REMARK    3  A    between atoms: C_7  and  S_8
REMARK    4  A    between atoms: S_8  and  S_9
REMARK    5  A    between atoms: S_9  and  C_10
REMARK    6  A    between atoms: C_10  and  C_11
REMARK    7  A    between atoms: C_11  and  C_12
REMARK    8  A    between atoms: C_12  and  C_13
REMARK    9  A    between atoms: C_13  and  C_14
REMARK   10  A    between atoms: C_14  and  C_15
REMARK   11  A    between atoms: C_15  and  O_16
REMARK   12  A    between atoms: C_17  and  C_18
REMARK   13  A    between atoms: C_18  and  O_19
REMARK                            x       y       z     vdW  Elec       q    Type
REMARK                         _______ _______ _______ _____ _____    ______ ____
ROOT
ATOM      1  C   UNL     1       5.235   4.066  18.852  0.00  0.00    +0.000 C 
ATOM      2  C   UNL     1       4.606   5.268  19.542  0.00  0.00    +0.000 C 
ATOM      3  C   UNL     1       3.231   5.294  18.920  0.00  0.00    +0.000 C 
ATOM      4  C   UNL     1       2.884   3.815  18.844  0.00  0.00    +0.000 C 
ATOM      5  O   UNL     1       4.149   3.127  18.645  0.00  0.00    +0.000 OA
ENDROOT
BRANCH   1   9
ATOM      6  C   UNL     1       5.213   3.899  13.887  0.00  0.00    +0.000 C 
ATOM      7  C   UNL     1       5.860   4.266  15.182  0.00  0.00    +0.000 A 
ATOM      8  C   UNL     1       5.308   4.011  16.372  0.00  0.00    +0.000 A 
ATOM      9  N   UNL     1       5.887   4.388  17.568  0.00  0.00    +0.000 N 
ATOM     10  C   UNL     1       7.141   5.001  17.594  0.00  0.00    +0.000 A 
ATOM     11  O   UNL     1       7.723   5.356  18.614  0.00  0.00    +0.000 OA
ATOM     12  N   UNL     1       7.718   5.220  16.368  0.00  0.00    +0.000 N 
ATOM     13  C   UNL     1       7.161   4.952  15.153  0.00  0.00    +0.000 A 
ATOM     14  O   UNL     1       7.712   5.266  14.100  0.00  0.00    +0.000 OA
ATOM     15  H   UNL     1       8.615   5.682  16.363  0.00  0.00    +0.000 HD
ENDBRANCH   1   9
BRANCH   3  16
ATOM     16  S   UNL     1       2.017   6.303  19.822  0.00  0.00    +0.000 S 
BRANCH  16  17
ATOM     17  S   UNL     1       2.166   8.105  18.840  0.00  0.00    +0.000 S 
BRANCH  17  18
ATOM     18  C   UNL     1       1.104   9.168  19.872  0.00  0.00    +0.000 C 
BRANCH  18  19
ATOM     19  C   UNL     1       0.546  10.302  19.027  0.00  0.00    +0.000 C 
BRANCH  19  20
ATOM     20  C   UNL     1      -0.982  10.306  19.052  0.00  0.00    +0.000 C 
BRANCH  20  21
ATOM     21  C   UNL     1      -1.537  10.262  17.629  0.00  0.00    +0.000 C 
BRANCH  21  22
ATOM     22  C   UNL     1      -3.047  10.050  17.623  0.00  0.00    +0.000 C 
BRANCH  22  23
ATOM     23  C   UNL     1      -3.785  11.311  18.049  0.00  0.00    +0.000 C 
BRANCH  23  24
ATOM     24  O   UNL     1      -4.264  11.996  16.901  0.00  0.00    +0.000 OA
ATOM     25  H   UNL     1      -3.993  12.927  16.980  0.00  0.00    +0.000 HD
ENDBRANCH  23  24
ENDBRANCH  22  23
ENDBRANCH  21  22
ENDBRANCH  20  21
ENDBRANCH  19  20
ENDBRANCH  18  19
ENDBRANCH  17  18
ENDBRANCH  16  17
ENDBRANCH   3  16
BRANCH   4  26
ATOM     26  C   UNL     1       1.921   3.502  17.689  0.00  0.00    +0.000 C 
BRANCH  26  27
ATOM     27  O   UNL     1       0.811   2.730  18.139  0.00  0.00    +0.000 OA
ATOM     28  H   UNL     1       1.160   1.856  18.396  0.00  0.00    +0.000 HD
ENDBRANCH  26  27
ENDBRANCH   4  26
TORSDOF 12
ENDMDL
MODEL 4
REMARK VINA RESULT:      -6.8      2.338      2.843
REMARK  Name = 
REMARK  13 active torsions:
REMARK  status: ('A' for Active; 'I' for Inactive)
REMARK    1  A    between atoms: C_1  and  C_2
REMARK    2  A    between atoms: N_4  and  C_5
REMARK    3  A    between atoms: C_7  and  S_8
REMARK    4  A    between atoms: S_8  and  S_9
REMARK    5  A    between atoms: S_9  and  C_10
REMARK    6  A    between atoms: C_10  and  C_11
REMARK    7  A    between atoms: C_11  and  C_12
REMARK    8  A    between atoms: C_12  and  C_13
REMARK    9  A    between atoms: C_13  and  C_14
REMARK   10  A    between atoms: C_14  and  C_15
REMARK   11  A    between atoms: C_15  and  O_16
REMARK   12  A    between atoms: C_17  and  C_18
REMARK   13  A    between atoms: C_18  and  O_19
REMARK                            x       y       z     vdW  Elec       q    Type
REMARK                         _______ _______ _______ _____ _____    ______ ____
ROOT
ATOM      1  C   UNL     1       5.128   3.975  18.913  0.00  0.00    +0.000 C 
ATOM      2  C   UNL     1       4.613   5.198  19.659  0.00  0.00    +0.000 C 
ATOM      3  C   UNL     1       3.248   5.380  19.043  0.00  0.00    +0.000 C 
ATOM      4  C   UNL     1       2.765   3.945  18.902  0.00  0.00    +0.000 C 
ATOM      5  O   UNL     1       3.960   3.152  18.667  0.00  0.00    +0.000 OA
ENDROOT
BRANCH   1   9
ATOM      6  C   UNL     1       5.079   4.075  13.946  0.00  0.00    +0.000 C 
ATOM      7  C   UNL     1       5.764   4.301  15.254  0.00  0.00    +0.000 A 
ATOM      8  C   UNL     1       5.191   4.044  16.433  0.00  0.00    +0.000 A 
ATOM      9  N   UNL     1       5.809   4.293  17.642  0.00  0.00    +0.000 N 
ATOM     10  C   UNL     1       7.122   4.765  17.691  0.00  0.00    +0.000 A 
ATOM     11  O   UNL     1       7.740   5.002  18.724  0.00  0.00    +0.000 OA
ATOM     12  N   UNL     1       7.717   4.985  16.474  0.00  0.00    +0.000 N 
ATOM     13  C   UNL     1       7.132   4.844  15.251  0.00  0.00    +0.000 A 
ATOM     14  O   UNL     1       7.711   5.152  14.212  0.00  0.00    +0.000 OA
ATOM     15  H   UNL     1       8.658   5.349  16.486  0.00  0.00    +0.000 HD
ENDBRANCH   1   9
BRANCH   3  16
ATOM     16  S   UNL     1       2.132   6.455  19.993  0.00  0.00    +0.000 S 
BRANCH  16  17
ATOM     17  S   UNL     1       2.113   8.157  18.836  0.00  0.00    +0.000 S 
BRANCH  17  18
ATOM     18  C   UNL     1       1.202   9.314  19.910  0.00  0.00    +0.000 C 
BRANCH  18  19
ATOM     19  C   UNL     1       0.661   8.566  21.118  0.00  0.00    +0.000 C 
BRANCH  19  20
ATOM     20  C   UNL     1       1.048   9.268  22.419  0.00  0.00    +0.000 C 
BRANCH  20  21
ATOM     21  C   UNL     1      -0.201   9.744  23.159  0.00  0.00    +0.000 C 
BRANCH  21  22
ATOM     22  C   UNL     1      -0.893  10.882  22.416  0.00  0.00    +0.000 C 
BRANCH  22  23
ATOM     23  C   UNL     1      -1.938  11.560  23.290  0.00  0.00    +0.000 C 
BRANCH  23  24
ATOM     24  O   UNL     1      -2.777  12.377  22.486  0.00  0.00    +0.000 OA
ATOM     25  H   UNL     1      -2.206  13.004  22.009  0.00  0.00    +0.000 HD
ENDBRANCH  23  24
ENDBRANCH  22  23
ENDBRANCH  21  22
ENDBRANCH  20  21
ENDBRANCH  19  20
ENDBRANCH  18  19
ENDBRANCH  17  18
ENDBRANCH  16  17
ENDBRANCH   3  16
BRANCH   4  26
ATOM     26  C   UNL     1       1.778   3.775  17.737  0.00  0.00    +0.000 C 
BRANCH  26  27
ATOM     27  O   UNL     1       0.770   2.817  18.051  0.00  0.00    +0.000 OA
ATOM     28  H   UNL     1       0.134   2.823  17.313  0.00  0.00    +0.000 HD
ENDBRANCH  26  27
ENDBRANCH   4  26
TORSDOF 12
ENDMDL
MODEL 5
REMARK VINA RESULT:      -6.8      1.525      1.779
REMARK  Name = 
REMARK  13 active torsions:
REMARK  status: ('A' for Active; 'I' for Inactive)
REMARK    1  A    between atoms: C_1  and  C_2
REMARK    2  A    between atoms: N_4  and  C_5
REMARK    3  A    between atoms: C_7  and  S_8
REMARK    4  A    between atoms: S_8  and  S_9
REMARK    5  A    between atoms: S_9  and  C_10
REMARK    6  A    between atoms: C_10  and  C_11
REMARK    7  A    between atoms: C_11  and  C_12
REMARK    8  A    between atoms: C_12  and  C_13
REMARK    9  A    between atoms: C_13  and  C_14
REMARK   10  A    between atoms: C_14  and  C_15
REMARK   11  A    between atoms: C_15  and  O_16
REMARK   12  A    between atoms: C_17  and  C_18
REMARK   13  A    between atoms: C_18  and  O_19
REMARK                            x       y       z     vdW  Elec       q    Type
REMARK                         _______ _______ _______ _____ _____    ______ ____
ROOT
ATOM      1  C   UNL     1       5.228   3.934  19.075  0.00  0.00    +0.000 C 
ATOM      2  C   UNL     1       4.351   5.022  19.678  0.00  0.00    +0.000 C 
ATOM      3  C   UNL     1       3.037   4.780  18.976  0.00  0.00    +0.000 C 
ATOM      4  C   UNL     1       2.966   3.262  18.941  0.00  0.00    +0.000 C 
ATOM      5  O   UNL     1       4.343   2.808  18.843  0.00  0.00    +0.000 OA
ENDROOT
BRANCH   1   9
ATOM      6  C   UNL     1       5.250   4.073  14.109  0.00  0.00    +0.000 C 
ATOM      7  C   UNL     1       5.887   4.355  15.430  0.00  0.00    +0.000 A 
ATOM      8  C   UNL     1       5.324   4.031  16.597  0.00  0.00    +0.000 A 
ATOM      9  N   UNL     1       5.894   4.331  17.818  0.00  0.00    +0.000 N 
ATOM     10  C   UNL     1       7.151   4.933  17.893  0.00  0.00    +0.000 A 
ATOM     11  O   UNL     1       7.725   5.222  18.938  0.00  0.00    +0.000 OA
ATOM     12  N   UNL     1       7.740   5.224  16.688  0.00  0.00    +0.000 N 
ATOM     13  C   UNL     1       7.193   5.035  15.454  0.00  0.00    +0.000 A 
ATOM     14  O   UNL     1       7.754   5.410  14.427  0.00  0.00    +0.000 OA
ATOM     15  H   UNL     1       8.639   5.681  16.719  0.00  0.00    +0.000 HD
ENDBRANCH   1   9
BRANCH   3  16
ATOM     16  S   UNL     1       1.606   5.579  19.764  0.00  0.00    +0.000 S 
BRANCH  16  17
ATOM     17  S   UNL     1       2.236   7.535  19.877  0.00  0.00    +0.000 S 
BRANCH  17  18
ATOM     18  C   UNL     1       2.328   7.987  18.114  0.00  0.00    +0.000 C 
BRANCH  18  19
ATOM     19  C   UNL     1       1.420   9.177  17.846  0.00  0.00    +0.000 C 
BRANCH  19  20
ATOM     20  C   UNL     1       0.730   9.641  19.129  0.00  0.00    +0.000 C 
BRANCH  20  21
ATOM     21  C   UNL     1      -0.343  10.680  18.809  0.00  0.00    +0.000 C 
BRANCH  21  22
ATOM     22  C   UNL     1       0.089  12.080  19.231  0.00  0.00    +0.000 C 
BRANCH  22  23
ATOM     23  C   UNL     1      -0.420  13.135  18.258  0.00  0.00    +0.000 C 
BRANCH  23  24
ATOM     24  O   UNL     1      -1.303  12.535  17.322  0.00  0.00    +0.000 OA
ATOM     25  H   UNL     1      -1.009  11.619  17.186  0.00  0.00    +0.000 HD
ENDBRANCH  23  24
ENDBRANCH  22  23
ENDBRANCH  21  22
ENDBRANCH  20  21
ENDBRANCH  19  20
ENDBRANCH  18  19
ENDBRANCH  17  18
ENDBRANCH  16  17
ENDBRANCH   3  16
BRANCH   4  26
ATOM     26  C   UNL     1       2.151   2.745  17.745  0.00  0.00    +0.000 C 
BRANCH  26  27
ATOM     27  O   UNL     1       1.282   1.685  18.134  0.00  0.00    +0.000 OA
ATOM     28  H   UNL     1       0.444   2.095  18.418  0.00  0.00    +0.000 HD
ENDBRANCH  26  27
ENDBRANCH   4  26
TORSDOF 12
ENDMDL
MODEL 6
REMARK VINA RESULT:      -6.7      2.187      2.502
REMARK  Name = 
REMARK  13 active torsions:
REMARK  status: ('A' for Active; 'I' for Inactive)
REMARK    1  A    between atoms: C_1  and  C_2
REMARK    2  A    between atoms: N_4  and  C_5
REMARK    3  A    between atoms: C_7  and  S_8
REMARK    4  A    between atoms: S_8  and  S_9
REMARK    5  A    between atoms: S_9  and  C_10
REMARK    6  A    between atoms: C_10  and  C_11
REMARK    7  A    between atoms: C_11  and  C_12
REMARK    8  A    between atoms: C_12  and  C_13
REMARK    9  A    between atoms: C_13  and  C_14
REMARK   10  A    between atoms: C_14  and  C_15
REMARK   11  A    between atoms: C_15  and  O_16
REMARK   12  A    between atoms: C_17  and  C_18
REMARK   13  A    between atoms: C_18  and  O_19
REMARK                            x       y       z     vdW  Elec       q    Type
REMARK                         _______ _______ _______ _____ _____    ______ ____
ROOT
ATOM      1  C   UNL     1       5.777   4.607  18.868  0.00  0.00    +0.000 C 
ATOM      2  C   UNL     1       4.658   5.526  19.338  0.00  0.00    +0.000 C 
ATOM      3  C   UNL     1       3.433   4.783  18.864  0.00  0.00    +0.000 C 
ATOM      4  C   UNL     1       3.804   3.336  19.149  0.00  0.00    +0.000 C 
ATOM      5  O   UNL     1       5.246   3.262  18.980  0.00  0.00    +0.000 OA
ENDROOT
BRANCH   1   9
ATOM      6  C   UNL     1       5.579   3.499  14.029  0.00  0.00    +0.000 C 
ATOM      7  C   UNL     1       6.128   4.292  15.170  0.00  0.00    +0.000 A 
ATOM      8  C   UNL     1       5.749   4.107  16.438  0.00  0.00    +0.000 A 
ATOM      9  N   UNL     1       6.225   4.869  17.486  0.00  0.00    +0.000 N 
ATOM     10  C   UNL     1       7.205   5.840  17.277  0.00  0.00    +0.000 A 
ATOM     11  O   UNL     1       7.683   6.550  18.157  0.00  0.00    +0.000 OA
ATOM     12  N   UNL     1       7.618   5.993  15.977  0.00  0.00    +0.000 N 
ATOM     13  C   UNL     1       7.126   5.337  14.890  0.00  0.00    +0.000 A 
ATOM     14  O   UNL     1       7.491   5.603  13.747  0.00  0.00    +0.000 OA
ATOM     15  H   UNL     1       8.310   6.707  15.800  0.00  0.00    +0.000 HD
ENDBRANCH   1   9
BRANCH   3  16
ATOM     16  S   UNL     1       1.880   5.324  19.640  0.00  0.00    +0.000 S 
BRANCH  16  17
ATOM     17  S   UNL     1       2.181   7.354  19.795  0.00  0.00    +0.000 S 
BRANCH  17  18
ATOM     18  C   UNL     1       2.322   7.833  18.042  0.00  0.00    +0.000 C 
BRANCH  18  19
ATOM     19  C   UNL     1       2.031   9.318  17.897  0.00  0.00    +0.000 C 
BRANCH  19  20
ATOM     20  C   UNL     1       0.534   9.601  18.023  0.00  0.00    +0.000 C 
BRANCH  20  21
ATOM     21  C   UNL     1       0.286  10.709  19.045  0.00  0.00    +0.000 C 
BRANCH  21  22
ATOM     22  C   UNL     1      -0.374  10.169  20.309  0.00  0.00    +0.000 C 
BRANCH  22  23
ATOM     23  C   UNL     1       0.083  10.934  21.543  0.00  0.00    +0.000 C 
BRANCH  23  24
ATOM     24  O   UNL     1       0.991  10.138  22.290  0.00  0.00    +0.000 OA
ATOM     25  H   UNL     1       1.720  10.714  22.576  0.00  0.00    +0.000 HD
ENDBRANCH  23  24
ENDBRANCH  22  23
ENDBRANCH  21  22
ENDBRANCH  20  21
ENDBRANCH  19  20
ENDBRANCH  18  19
ENDBRANCH  17  18
ENDBRANCH  16  17
ENDBRANCH   3  16
BRANCH   4  26
ATOM     26  C   UNL     1       3.107   2.358  18.192  0.00  0.00    +0.000 C 
BRANCH  26  27
ATOM     27  O   UNL     1       3.547   1.020  18.412  0.00  0.00    +0.000 OA
ATOM     28  H   UNL     1       3.447   0.546  17.567  0.00  0.00    +0.000 HD
ENDBRANCH  26  27
ENDBRANCH   4  26
TORSDOF 12
ENDMDL
MODEL 7
REMARK VINA RESULT:      -6.7      3.545      4.554
REMARK  Name = 
REMARK  13 active torsions:
REMARK  status: ('A' for Active; 'I' for Inactive)
REMARK    1  A    between atoms: C_1  and  C_2
REMARK    2  A    between atoms: N_4  and  C_5
REMARK    3  A    between atoms: C_7  and  S_8
REMARK    4  A    between atoms: S_8  and  S_9
REMARK    5  A    between atoms: S_9  and  C_10
REMARK    6  A    between atoms: C_10  and  C_11
REMARK    7  A    between atoms: C_11  and  C_12
REMARK    8  A    between atoms: C_12  and  C_13
REMARK    9  A    between atoms: C_13  and  C_14
REMARK   10  A    between atoms: C_14  and  C_15
REMARK   11  A    between atoms: C_15  and  O_16
REMARK   12  A    between atoms: C_17  and  C_18
REMARK   13  A    between atoms: C_18  and  O_19
REMARK                            x       y       z     vdW  Elec       q    Type
REMARK                         _______ _______ _______ _____ _____    ______ ____
ROOT
ATOM      1  C   UNL     1       4.811   5.778  16.734  0.00  0.00    +0.000 C 
ATOM      2  C   UNL     1       4.097   4.594  17.371  0.00  0.00    +0.000 C 
ATOM      3  C   UNL     1       5.154   4.069  18.312  0.00  0.00    +0.000 C 
ATOM      4  C   UNL     1       5.768   5.351  18.853  0.00  0.00    +0.000 C 
ATOM      5  O   UNL     1       5.665   6.319  17.774  0.00  0.00    +0.000 OA
ENDROOT
BRANCH   1   9
ATOM      6  C   UNL     1       5.227   3.312  12.441  0.00  0.00    +0.000 C 
ATOM      7  C   UNL     1       5.790   4.203  13.500  0.00  0.00    +0.000 A 
ATOM      8  C   UNL     1       5.106   4.567  14.588  0.00  0.00    +0.000 A 
ATOM      9  N   UNL     1       5.611   5.424  15.545  0.00  0.00    +0.000 N 
ATOM     10  C   UNL     1       6.920   5.903  15.457  0.00  0.00    +0.000 A 
ATOM     11  O   UNL     1       7.442   6.661  16.270  0.00  0.00    +0.000 OA
ATOM     12  N   UNL     1       7.628   5.490  14.356  0.00  0.00    +0.000 N 
ATOM     13  C   UNL     1       7.159   4.719  13.336  0.00  0.00    +0.000 A 
ATOM     14  O   UNL     1       7.836   4.472  12.340  0.00  0.00    +0.000 OA
ATOM     15  H   UNL     1       8.569   5.844  14.261  0.00  0.00    +0.000 HD
ENDBRANCH   1   9
BRANCH   3  16
ATOM     16  S   UNL     1       4.527   2.941  19.592  0.00  0.00    +0.000 S 
BRANCH  16  17
ATOM     17  S   UNL     1       3.334   1.682  18.485  0.00  0.00    +0.000 S 
BRANCH  17  18
ATOM     18  C   UNL     1       1.713   1.926  19.282  0.00  0.00    +0.000 C 
BRANCH  18  19
ATOM     19  C   UNL     1       1.231   3.346  19.029  0.00  0.00    +0.000 C 
BRANCH  19  20
ATOM     20  C   UNL     1       0.786   4.016  20.329  0.00  0.00    +0.000 C 
BRANCH  20  21
ATOM     21  C   UNL     1       1.894   4.919  20.869  0.00  0.00    +0.000 C 
BRANCH  21  22
ATOM     22  C   UNL     1       1.620   6.387  20.561  0.00  0.00    +0.000 C 
BRANCH  22  23
ATOM     23  C   UNL     1       2.626   6.940  19.562  0.00  0.00    +0.000 C 
BRANCH  23  24
ATOM     24  O   UNL     1       1.979   7.854  18.688  0.00  0.00    +0.000 OA
ATOM     25  H   UNL     1       1.398   7.338  18.103  0.00  0.00    +0.000 HD
ENDBRANCH  23  24
ENDBRANCH  22  23
ENDBRANCH  21  22
ENDBRANCH  20  21
ENDBRANCH  19  20
ENDBRANCH  18  19
ENDBRANCH  17  18
ENDBRANCH  16  17
ENDBRANCH   3  16
BRANCH   4  26
ATOM     26  C   UNL     1       7.237   5.165  19.262  0.00  0.00    +0.000 C 
BRANCH  26  27
ATOM     27  O   UNL     1       7.927   4.331  18.335  0.00  0.00    +0.000 OA
ATOM     28  H   UNL     1       8.239   3.553  18.832  0.00  0.00    +0.000 HD
ENDBRANCH  26  27
ENDBRANCH   4  26
TORSDOF 12
ENDMDL
MODEL 8
REMARK VINA RESULT:      -6.7      1.331      1.538
REMARK  Name = 
REMARK  13 active torsions:
REMARK  status: ('A' for Active; 'I' for Inactive)
REMARK    1  A    between atoms: C_1  and  C_2
REMARK    2  A    between atoms: N_4  and  C_5
REMARK    3  A    between atoms: C_7  and  S_8
REMARK    4  A    between atoms: S_8  and  S_9
REMARK    5  A    between atoms: S_9  and  C_10
REMARK    6  A    between atoms: C_10  and  C_11
REMARK    7  A    between atoms: C_11  and  C_12
REMARK    8  A    between atoms: C_12  and  C_13
REMARK    9  A    between atoms: C_13  and  C_14
REMARK   10  A    between atoms: C_14  and  C_15
REMARK   11  A    between atoms: C_15  and  O_16
REMARK   12  A    between atoms: C_17  and  C_18
REMARK   13  A    between atoms: C_18  and  O_19
REMARK                            x       y       z     vdW  Elec       q    Type
REMARK                         _______ _______ _______ _____ _____    ______ ____
ROOT
ATOM      1  C   UNL     1       5.749   4.550  18.984  0.00  0.00    +0.000 C 
ATOM      2  C   UNL     1       4.696   5.524  19.496  0.00  0.00    +0.000 C 
ATOM      3  C   UNL     1       3.419   4.864  19.035  0.00  0.00    +0.000 C 
ATOM      4  C   UNL     1       3.709   3.392  19.283  0.00  0.00    +0.000 C 
ATOM      5  O   UNL     1       5.140   3.237  19.082  0.00  0.00    +0.000 OA
ENDROOT
BRANCH   1   9
ATOM      6  C   UNL     1       5.375   3.565  14.129  0.00  0.00    +0.000 C 
ATOM      7  C   UNL     1       5.998   4.295  15.273  0.00  0.00    +0.000 A 
ATOM      8  C   UNL     1       5.635   4.107  16.545  0.00  0.00    +0.000 A 
ATOM      9  N   UNL     1       6.182   4.813  17.598  0.00  0.00    +0.000 N 
ATOM     10  C   UNL     1       7.219   5.724  17.386  0.00  0.00    +0.000 A 
ATOM     11  O   UNL     1       7.760   6.382  18.270  0.00  0.00    +0.000 OA
ATOM     12  N   UNL     1       7.613   5.879  16.081  0.00  0.00    +0.000 N 
ATOM     13  C   UNL     1       7.055   5.280  14.991  0.00  0.00    +0.000 A 
ATOM     14  O   UNL     1       7.412   5.547  13.846  0.00  0.00    +0.000 OA
ATOM     15  H   UNL     1       8.345   6.551  15.903  0.00  0.00    +0.000 HD
ENDBRANCH   1   9
BRANCH   3  16
ATOM     16  S   UNL     1       1.918   5.480  19.855  0.00  0.00    +0.000 S 
BRANCH  16  17
ATOM     17  S   UNL     1       2.132   7.515  19.633  0.00  0.00    +0.000 S 
BRANCH  17  18
ATOM     18  C   UNL     1       1.227   8.133  21.090  0.00  0.00    +0.000 C 
BRANCH  18  19
ATOM     19  C   UNL     1       0.242   9.208  20.658  0.00  0.00    +0.000 C 
BRANCH  19  20
ATOM     20  C   UNL     1       0.793  10.019  19.486  0.00  0.00    +0.000 C 
BRANCH  20  21
ATOM     21  C   UNL     1      -0.297  10.251  18.440  0.00  0.00    +0.000 C 
BRANCH  21  22
ATOM     22  C   UNL     1      -1.204  11.414  18.826  0.00  0.00    +0.000 C 
BRANCH  22  23
ATOM     23  C   UNL     1      -2.401  11.517  17.891  0.00  0.00    +0.000 C 
BRANCH  23  24
ATOM     24  O   UNL     1      -1.957  11.810  16.574  0.00  0.00    +0.000 OA
ATOM     25  H   UNL     1      -0.996  11.661  16.549  0.00  0.00    +0.000 HD
ENDBRANCH  23  24
ENDBRANCH  22  23
ENDBRANCH  21  22
ENDBRANCH  20  21
ENDBRANCH  19  20
ENDBRANCH  18  19
ENDBRANCH  17  18
ENDBRANCH  16  17
ENDBRANCH   3  16
BRANCH   4  26
ATOM     26  C   UNL     1       2.935   2.477  18.323  0.00  0.00    +0.000 C 
BRANCH  26  27
ATOM     27  O   UNL     1       3.408   1.135  18.398  0.00  0.00    +0.000 OA
ATOM     28  H   UNL     1       4.380   1.179  18.459  0.00  0.00    +0.000 HD
ENDBRANCH  26  27
ENDBRANCH   4  26
TORSDOF 12
ENDMDL
MODEL 9
REMARK VINA RESULT:      -6.6      1.950      2.579
REMARK  Name = 
REMARK  13 active torsions:
REMARK  status: ('A' for Active; 'I' for Inactive)
REMARK    1  A    between atoms: C_1  and  C_2
REMARK    2  A    between atoms: N_4  and  C_5
REMARK    3  A    between atoms: C_7  and  S_8
REMARK    4  A    between atoms: S_8  and  S_9
REMARK    5  A    between atoms: S_9  and  C_10
REMARK    6  A    between atoms: C_10  and  C_11
REMARK    7  A    between atoms: C_11  and  C_12
REMARK    8  A    between atoms: C_12  and  C_13
REMARK    9  A    between atoms: C_13  and  C_14
REMARK   10  A    between atoms: C_14  and  C_15
REMARK   11  A    between atoms: C_15  and  O_16
REMARK   12  A    between atoms: C_17  and  C_18
REMARK   13  A    between atoms: C_18  and  O_19
REMARK                            x       y       z     vdW  Elec       q    Type
REMARK                         _______ _______ _______ _____ _____    ______ ____
ROOT
ATOM      1  C   UNL     1       5.596   4.529  18.038  0.00  0.00    +0.000 C 
ATOM      2  C   UNL     1       4.979   5.779  18.650  0.00  0.00    +0.000 C 
ATOM      3  C   UNL     1       3.558   5.696  18.148  0.00  0.00    +0.000 C 
ATOM      4  C   UNL     1       3.264   4.208  18.258  0.00  0.00    +0.000 C 
ATOM      5  O   UNL     1       4.534   3.541  18.024  0.00  0.00    +0.000 OA
ENDROOT
BRANCH   1   9
ATOM      6  C   UNL     1       5.477   3.421  13.196  0.00  0.00    +0.000 C 
ATOM      7  C   UNL     1       6.063   4.155  14.357  0.00  0.00    +0.000 A 
ATOM      8  C   UNL     1       5.613   4.021  15.609  0.00  0.00    +0.000 A 
ATOM      9  N   UNL     1       6.127   4.731  16.675  0.00  0.00    +0.000 N 
ATOM     10  C   UNL     1       7.217   5.586  16.506  0.00  0.00    +0.000 A 
ATOM     11  O   UNL     1       7.734   6.243  17.404  0.00  0.00    +0.000 OA
ATOM     12  N   UNL     1       7.699   5.684  15.224  0.00  0.00    +0.000 N 
ATOM     13  C   UNL     1       7.181   5.080  14.118  0.00  0.00    +0.000 A 
ATOM     14  O   UNL     1       7.621   5.297  12.991  0.00  0.00    +0.000 OA
ATOM     15  H   UNL     1       8.473   6.315  15.076  0.00  0.00    +0.000 HD
ENDBRANCH   1   9
BRANCH   3  16
ATOM     16  S   UNL     1       2.383   6.758  19.041  0.00  0.00    +0.000 S 
BRANCH  16  17
ATOM     17  S   UNL     1       2.575   8.535  18.020  0.00  0.00    +0.000 S 
BRANCH  17  18
ATOM     18  C   UNL     1       0.830   8.986  17.750  0.00  0.00    +0.000 C 
BRANCH  18  19
ATOM     19  C   UNL     1       0.514  10.266  18.508  0.00  0.00    +0.000 C 
BRANCH  19  20
ATOM     20  C   UNL     1       0.906  10.145  19.980  0.00  0.00    +0.000 C 
BRANCH  20  21
ATOM     21  C   UNL     1      -0.286   9.674  20.811  0.00  0.00    +0.000 C 
BRANCH  21  22
ATOM     22  C   UNL     1       0.158   8.812  21.989  0.00  0.00    +0.000 C 
BRANCH  22  23
ATOM     23  C   UNL     1      -0.118   9.503  23.316  0.00  0.00    +0.000 C 
BRANCH  23  24
ATOM     24  O   UNL     1      -0.279  10.898  23.106  0.00  0.00    +0.000 OA
ATOM     25  H   UNL     1      -0.309  11.048  22.145  0.00  0.00    +0.000 HD
ENDBRANCH  23  24
ENDBRANCH  22  23
ENDBRANCH  21  22
ENDBRANCH  20  21
ENDBRANCH  19  20
ENDBRANCH  18  19
ENDBRANCH  17  18
ENDBRANCH  16  17
ENDBRANCH   3  16
BRANCH   4  26
ATOM     26  C   UNL     1       2.223   3.743  17.229  0.00  0.00    +0.000 C 
BRANCH  26  27
ATOM     27  O   UNL     1       1.003   3.369  17.865  0.00  0.00    +0.000 OA
ATOM     28  H   UNL     1       1.241   2.968  18.720  0.00  0.00    +0.000 HD
ENDBRANCH  26  27
ENDBRANCH   4  26
TORSDOF 12
ENDMDL
