MODEL 1
REMARK VINA RESULT:      -7.9      0.000      0.000
REMARK  Name = 
REMARK  10 active torsions:
REMARK  status: ('A' for Active; 'I' for Inactive)
REMARK    1  A    between atoms: C_1  and  C_2
REMARK    2  A    between atoms: C_2  and  O_3
REMARK    3  A    between atoms: O_3  and  C_4
REMARK    4  A    between atoms: C_6  and  C_7
REMARK    5  A    between atoms: C_12  and  C_13
REMARK    6  A    between atoms: C_14  and  C_15
REMARK    7  A    between atoms: C_15  and  O_17
REMARK    8  A    between atoms: O_17  and  C_18
REMARK    9  A    between atoms: C_18  and  C_19
REMARK   10  A    between atoms: C_27  and  O_28
REMARK                            x       y       z     vdW  Elec       q    Type
REMARK                         _______ _______ _______ _____ _____    ______ ____
ROOT
ATOM      1  C   UNL     1       4.711   4.318  19.424  0.00  0.00    +0.000 C 
ATOM      2  N   UNL     1       5.190   3.033  19.901  0.00  0.00    +0.000 N 
ATOM      3  C   UNL     1       4.483   2.213  20.707  0.00  0.00    +0.000 C 
ATOM      4  O   UNL     1       5.000   1.280  21.310  0.00  0.00    +0.000 OA
ATOM      5  N   UNL     1       3.140   2.445  20.766  0.00  0.00    +0.000 N 
ATOM      6  C   UNL     1       2.474   3.464  20.121  0.00  0.00    +0.000 C 
ATOM      7  C   UNL     1       0.980   3.468  20.295  0.00  0.00    +0.000 C 
ATOM      8  C   UNL     1       3.203   4.387  19.457  0.00  0.00    +0.000 C 
ATOM      9  H   UNL     1       6.189   2.865  19.906  0.00  0.00    +0.000 HD
ATOM     10  H   UNL     1       2.628   1.784  21.341  0.00  0.00    +0.000 HD
ENDROOT
BRANCH   1  13
ATOM     11  C   UNL     1       6.745   5.975  16.633  0.00  0.00    +0.000 A 
ATOM     12  C   UNL     1       6.251   5.619  17.894  0.00  0.00    +0.000 A 
ATOM     13  C   UNL     1       5.317   4.584  18.055  0.00  0.00    +0.000 A 
ATOM     14  C   UNL     1       4.929   3.848  16.926  0.00  0.00    +0.000 A 
ATOM     15  C   UNL     1       5.389   4.214  15.662  0.00  0.00    +0.000 A 
ATOM     16  C   UNL     1       6.263   5.299  15.518  0.00  0.00    +0.000 A 
BRANCH  16  17
ATOM     17  O   UNL     1       6.577   5.693  14.248  0.00  0.00    +0.000 OA
ATOM     18  H   UNL     1       6.457   4.916  13.676  0.00  0.00    +0.000 HD
ENDBRANCH  16  17
BRANCH  11  19
ATOM     19  O   UNL     1       7.610   7.029  16.683  0.00  0.00    +0.000 OA
BRANCH  19  21
ATOM     20  C   UNL     1       8.208   9.128  17.811  0.00  0.00    +0.000 C 
ATOM     21  C   UNL     1       7.948   7.634  17.928  0.00  0.00    +0.000 C 
ENDBRANCH  19  21
ENDBRANCH  11  19
ENDBRANCH   1  13
BRANCH   8  22
ATOM     22  C   UNL     1       2.614   5.618  18.865  0.00  0.00    +0.000 C 
ATOM     23  O   UNL     1       2.077   5.636  17.767  0.00  0.00    +0.000 OA
BRANCH  22  24
ATOM     24  O   UNL     1       2.800   6.695  19.666  0.00  0.00    +0.000 OA
BRANCH  24  25
ATOM     25  C   UNL     1       1.601   7.296  20.181  0.00  0.00    +0.000 C 
BRANCH  25  26
ATOM     26  C   UNL     1       1.812   8.749  20.630  0.00  0.00    +0.000 C 
ATOM     27  C   UNL     1       1.184   9.765  19.663  0.00  0.00    +0.000 C 
ATOM     28  C   UNL     1      -0.339   9.854  19.767  0.00  0.00    +0.000 C 
ATOM     29  C   UNL     1      -0.806  10.055  21.206  0.00  0.00    +0.000 C 
ATOM     30  C   UNL     1      -0.240   8.987  22.133  0.00  0.00    +0.000 C 
ATOM     31  C   UNL     1       1.285   8.948  22.061  0.00  0.00    +0.000 C 
ENDBRANCH  25  26
ENDBRANCH  24  25
ENDBRANCH  22  24
ENDBRANCH   8  22
TORSDOF 8
ENDMDL
MODEL 2
REMARK VINA RESULT:      -7.9      0.926      1.087
REMARK  Name = 
REMARK  10 active torsions:
REMARK  status: ('A' for Active; 'I' for Inactive)
REMARK    1  A    between atoms: C_1  and  C_2
REMARK    2  A    between atoms: C_2  and  O_3
REMARK    3  A    between atoms: O_3  and  C_4
REMARK    4  A    between atoms: C_6  and  C_7
REMARK    5  A    between atoms: C_12  and  C_13
REMARK    6  A    between atoms: C_14  and  C_15
REMARK    7  A    between atoms: C_15  and  O_17
REMARK    8  A    between atoms: O_17  and  C_18
REMARK    9  A    between atoms: C_18  and  C_19
REMARK   10  A    between atoms: C_27  and  O_28
REMARK                            x       y       z     vdW  Elec       q    Type
REMARK                         _______ _______ _______ _____ _____    ______ ____
ROOT
ATOM      1  C   UNL     1       4.476   4.146  18.978  0.00  0.00    +0.000 C 
ATOM      2  N   UNL     1       5.160   3.095  19.711  0.00  0.00    +0.000 N 
ATOM      3  C   UNL     1       4.541   2.204  20.512  0.00  0.00    +0.000 C 
ATOM      4  O   UNL     1       5.151   1.515  21.320  0.00  0.00    +0.000 OA
ATOM      5  N   UNL     1       3.195   2.070  20.331  0.00  0.00    +0.000 N 
ATOM      6  C   UNL     1       2.431   2.798  19.446  0.00  0.00    +0.000 C 
ATOM      7  C   UNL     1       0.977   2.417  19.387  0.00  0.00    +0.000 C 
ATOM      8  C   UNL     1       3.019   3.808  18.770  0.00  0.00    +0.000 C 
ATOM      9  H   UNL     1       6.150   3.205  19.893  0.00  0.00    +0.000 HD
ATOM     10  H   UNL     1       2.765   1.360  20.913  0.00  0.00    +0.000 HD
ENDROOT
BRANCH   1  13
ATOM     11  C   UNL     1       6.852   5.803  16.473  0.00  0.00    +0.000 A 
ATOM     12  C   UNL     1       6.208   5.437  17.661  0.00  0.00    +0.000 A 
ATOM     13  C   UNL     1       5.241   4.421  17.694  0.00  0.00    +0.000 A 
ATOM     14  C   UNL     1       4.970   3.713  16.514  0.00  0.00    +0.000 A 
ATOM     15  C   UNL     1       5.582   4.089  15.319  0.00  0.00    +0.000 A 
ATOM     16  C   UNL     1       6.489   5.156  15.297  0.00  0.00    +0.000 A 
BRANCH  16  17
ATOM     17  O   UNL     1       6.956   5.565  14.079  0.00  0.00    +0.000 OA
ATOM     18  H   UNL     1       6.708   4.875  13.440  0.00  0.00    +0.000 HD
ENDBRANCH  16  17
BRANCH  11  19
ATOM     19  O   UNL     1       7.728   6.836  16.642  0.00  0.00    +0.000 OA
BRANCH  19  21
ATOM     20  C   UNL     1       8.028   8.974  17.815  0.00  0.00    +0.000 C 
ATOM     21  C   UNL     1       7.874   7.464  17.913  0.00  0.00    +0.000 C 
ENDBRANCH  19  21
ENDBRANCH  11  19
ENDBRANCH   1  13
BRANCH   8  22
ATOM     22  C   UNL     1       2.264   4.766  17.918  0.00  0.00    +0.000 C 
ATOM     23  O   UNL     1       1.414   4.412  17.113  0.00  0.00    +0.000 OA
BRANCH  22  24
ATOM     24  O   UNL     1       2.678   6.041  18.112  0.00  0.00    +0.000 OA
BRANCH  24  25
ATOM     25  C   UNL     1       1.634   7.001  18.339  0.00  0.00    +0.000 C 
BRANCH  25  26
ATOM     26  C   UNL     1       2.157   8.318  18.930  0.00  0.00    +0.000 C 
ATOM     27  C   UNL     1       1.736   9.546  18.107  0.00  0.00    +0.000 C 
ATOM     28  C   UNL     1       0.269   9.937  18.291  0.00  0.00    +0.000 C 
ATOM     29  C   UNL     1      -0.111  10.065  19.763  0.00  0.00    +0.000 C 
ATOM     30  C   UNL     1       0.237   8.804  20.544  0.00  0.00    +0.000 C 
ATOM     31  C   UNL     1       1.718   8.459  20.396  0.00  0.00    +0.000 C 
ENDBRANCH  25  26
ENDBRANCH  24  25
ENDBRANCH  22  24
ENDBRANCH   8  22
TORSDOF 8
ENDMDL
MODEL 3
REMARK VINA RESULT:      -7.7      2.103      6.205
REMARK  Name = 
REMARK  10 active torsions:
REMARK  status: ('A' for Active; 'I' for Inactive)
REMARK    1  A    between atoms: C_1  and  C_2
REMARK    2  A    between atoms: C_2  and  O_3
REMARK    3  A    between atoms: O_3  and  C_4
REMARK    4  A    between atoms: C_6  and  C_7
REMARK    5  A    between atoms: C_12  and  C_13
REMARK    6  A    between atoms: C_14  and  C_15
REMARK    7  A    between atoms: C_15  and  O_17
REMARK    8  A    between atoms: O_17  and  C_18
REMARK    9  A    between atoms: C_18  and  C_19
REMARK   10  A    between atoms: C_27  and  O_28
REMARK                            x       y       z     vdW  Elec       q    Type
REMARK                         _______ _______ _______ _____ _____    ______ ____
ROOT
ATOM      1  C   UNL     1       2.554   4.600  18.330  0.00  0.00    +0.000 C 
ATOM      2  N   UNL     1       1.280   3.933  18.528  0.00  0.00    +0.000 N 
ATOM      3  C   UNL     1       1.149   2.656  18.944  0.00  0.00    +0.000 C 
ATOM      4  O   UNL     1       0.097   2.037  18.842  0.00  0.00    +0.000 OA
ATOM      5  N   UNL     1       2.246   2.108  19.543  0.00  0.00    +0.000 N 
ATOM      6  C   UNL     1       3.465   2.729  19.704  0.00  0.00    +0.000 C 
ATOM      7  C   UNL     1       4.497   1.935  20.456  0.00  0.00    +0.000 C 
ATOM      8  C   UNL     1       3.648   3.939  19.134  0.00  0.00    +0.000 C 
ATOM      9  H   UNL     1       0.466   4.302  18.051  0.00  0.00    +0.000 HD
ATOM     10  H   UNL     1       2.104   1.164  19.889  0.00  0.00    +0.000 HD
ENDROOT
BRANCH   1  13
ATOM     11  C   UNL     1       1.692   7.843  20.176  0.00  0.00    +0.000 A 
ATOM     12  C   UNL     1       1.980   6.501  19.897  0.00  0.00    +0.000 A 
ATOM     13  C   UNL     1       2.377   6.082  18.619  0.00  0.00    +0.000 A 
ATOM     14  C   UNL     1       2.555   7.049  17.619  0.00  0.00    +0.000 A 
ATOM     15  C   UNL     1       2.240   8.383  17.875  0.00  0.00    +0.000 A 
ATOM     16  C   UNL     1       1.774   8.767  19.139  0.00  0.00    +0.000 A 
BRANCH  16  17
ATOM     17  O   UNL     1       1.357  10.059  19.294  0.00  0.00    +0.000 OA
ATOM     18  H   UNL     1       1.451  10.488  18.427  0.00  0.00    +0.000 HD
ENDBRANCH  16  17
BRANCH  11  19
ATOM     19  O   UNL     1       1.286   8.041  21.463  0.00  0.00    +0.000 OA
BRANCH  19  21
ATOM     20  C   UNL     1      -0.110   9.408  22.953  0.00  0.00    +0.000 C 
ATOM     21  C   UNL     1      -0.039   8.483  21.747  0.00  0.00    +0.000 C 
ENDBRANCH  19  21
ENDBRANCH  11  19
ENDBRANCH   1  13
BRANCH   8  22
ATOM     22  C   UNL     1       4.965   4.630  19.095  0.00  0.00    +0.000 C 
ATOM     23  O   UNL     1       5.262   5.537  19.861  0.00  0.00    +0.000 OA
BRANCH  22  24
ATOM     24  O   UNL     1       5.744   4.166  18.089  0.00  0.00    +0.000 OA
BRANCH  24  25
ATOM     25  C   UNL     1       7.119   4.580  18.132  0.00  0.00    +0.000 C 
BRANCH  25  26
ATOM     26  C   UNL     1       7.570   5.276  16.840  0.00  0.00    +0.000 C 
ATOM     27  C   UNL     1       6.927   4.667  15.584  0.00  0.00    +0.000 C 
ATOM     28  C   UNL     1       5.461   5.055  15.393  0.00  0.00    +0.000 C 
ATOM     29  C   UNL     1       5.249   6.564  15.481  0.00  0.00    +0.000 C 
ATOM     30  C   UNL     1       5.819   7.135  16.774  0.00  0.00    +0.000 C 
ATOM     31  C   UNL     1       7.299   6.787  16.923  0.00  0.00    +0.000 C 
ENDBRANCH  25  26
ENDBRANCH  24  25
ENDBRANCH  22  24
ENDBRANCH   8  22
TORSDOF 8
ENDMDL
MODEL 4
REMARK VINA RESULT:      -7.7      3.033      7.662
REMARK  Name = 
REMARK  10 active torsions:
REMARK  status: ('A' for Active; 'I' for Inactive)
REMARK    1  A    between atoms: C_1  and  C_2
REMARK    2  A    between atoms: C_2  and  O_3
REMARK    3  A    between atoms: O_3  and  C_4
REMARK    4  A    between atoms: C_6  and  C_7
REMARK    5  A    between atoms: C_12  and  C_13
REMARK    6  A    between atoms: C_14  and  C_15
REMARK    7  A    between atoms: C_15  and  O_17
REMARK    8  A    between atoms: O_17  and  C_18
REMARK    9  A    between atoms: C_18  and  C_19
REMARK   10  A    between atoms: C_27  and  O_28
REMARK                            x       y       z     vdW  Elec       q    Type
REMARK                         _______ _______ _______ _____ _____    ______ ____
ROOT
ATOM      1  C   UNL     1       6.212   4.573  17.892  0.00  0.00    +0.000 C 
ATOM      2  N   UNL     1       6.640   4.618  19.279  0.00  0.00    +0.000 N 
ATOM      3  C   UNL     1       7.612   5.429  19.746  0.00  0.00    +0.000 C 
ATOM      4  O   UNL     1       8.139   5.260  20.839  0.00  0.00    +0.000 OA
ATOM      5  N   UNL     1       7.936   6.491  18.953  0.00  0.00    +0.000 N 
ATOM      6  C   UNL     1       7.395   6.761  17.716  0.00  0.00    +0.000 C 
ATOM      7  C   UNL     1       7.872   8.032  17.068  0.00  0.00    +0.000 C 
ATOM      8  C   UNL     1       6.552   5.857  17.173  0.00  0.00    +0.000 C 
ATOM      9  H   UNL     1       6.447   3.816  19.867  0.00  0.00    +0.000 HD
ATOM     10  H   UNL     1       8.635   7.110  19.351  0.00  0.00    +0.000 HD
ENDROOT
BRANCH   1  13
ATOM     11  C   UNL     1       2.507   4.390  18.847  0.00  0.00    +0.000 A 
ATOM     12  C   UNL     1       3.848   4.784  18.772  0.00  0.00    +0.000 A 
ATOM     13  C   UNL     1       4.737   4.208  17.851  0.00  0.00    +0.000 A 
ATOM     14  C   UNL     1       4.241   3.264  16.940  0.00  0.00    +0.000 A 
ATOM     15  C   UNL     1       2.915   2.840  17.026  0.00  0.00    +0.000 A 
ATOM     16  C   UNL     1       2.067   3.376  18.003  0.00  0.00    +0.000 A 
BRANCH  16  17
ATOM     17  O   UNL     1       0.820   2.831  18.125  0.00  0.00    +0.000 OA
ATOM     18  H   UNL     1       0.430   2.823  17.235  0.00  0.00    +0.000 HD
ENDBRANCH  16  17
BRANCH  11  19
ATOM     19  O   UNL     1       1.819   5.039  19.831  0.00  0.00    +0.000 OA
BRANCH  19  21
ATOM     20  C   UNL     1       1.851   3.303  21.569  0.00  0.00    +0.000 C 
ATOM     21  C   UNL     1       2.081   4.761  21.204  0.00  0.00    +0.000 C 
ENDBRANCH  19  21
ENDBRANCH  11  19
ENDBRANCH   1  13
BRANCH   8  22
ATOM     22  C   UNL     1       6.037   5.956  15.781  0.00  0.00    +0.000 C 
ATOM     23  O   UNL     1       5.047   6.608  15.484  0.00  0.00    +0.000 OA
BRANCH  22  24
ATOM     24  O   UNL     1       6.765   5.200  14.924  0.00  0.00    +0.000 OA
BRANCH  24  25
ATOM     25  C   UNL     1       6.027   4.198  14.205  0.00  0.00    +0.000 C 
BRANCH  25  26
ATOM     26  C   UNL     1       5.915   4.506  12.705  0.00  0.00    +0.000 C 
ATOM     27  C   UNL     1       7.272   4.449  11.986  0.00  0.00    +0.000 C 
ATOM     28  C   UNL     1       7.785   3.028  11.751  0.00  0.00    +0.000 C 
ATOM     29  C   UNL     1       6.736   2.140  11.087  0.00  0.00    +0.000 C 
ATOM     30  C   UNL     1       5.425   2.145  11.863  0.00  0.00    +0.000 C 
ATOM     31  C   UNL     1       4.896   3.567  12.040  0.00  0.00    +0.000 C 
ENDBRANCH  25  26
ENDBRANCH  24  25
ENDBRANCH  22  24
ENDBRANCH   8  22
TORSDOF 8
ENDMDL
MODEL 5
REMARK VINA RESULT:      -7.7      1.003      2.358
REMARK  Name = 
REMARK  10 active torsions:
REMARK  status: ('A' for Active; 'I' for Inactive)
REMARK    1  A    between atoms: C_1  and  C_2
REMARK    2  A    between atoms: C_2  and  O_3
REMARK    3  A    between atoms: O_3  and  C_4
REMARK    4  A    between atoms: C_6  and  C_7
REMARK    5  A    between atoms: C_12  and  C_13
REMARK    6  A    between atoms: C_14  and  C_15
REMARK    7  A    between atoms: C_15  and  O_17
REMARK    8  A    between atoms: O_17  and  C_18
REMARK    9  A    between atoms: C_18  and  C_19
REMARK   10  A    between atoms: C_27  and  O_28
REMARK                            x       y       z     vdW  Elec       q    Type
REMARK                         _______ _______ _______ _____ _____    ______ ____
ROOT
ATOM      1  C   UNL     1       4.769   4.456  19.331  0.00  0.00    +0.000 C 
ATOM      2  N   UNL     1       5.256   3.146  19.725  0.00  0.00    +0.000 N 
ATOM      3  C   UNL     1       4.516   2.228  20.379  0.00  0.00    +0.000 C 
ATOM      4  O   UNL     1       5.016   1.257  20.935  0.00  0.00    +0.000 OA
ATOM      5  N   UNL     1       3.164   2.409  20.336  0.00  0.00    +0.000 N 
ATOM      6  C   UNL     1       2.517   3.464  19.732  0.00  0.00    +0.000 C 
ATOM      7  C   UNL     1       1.014   3.402  19.766  0.00  0.00    +0.000 C 
ATOM      8  C   UNL     1       3.262   4.472  19.230  0.00  0.00    +0.000 C 
ATOM      9  H   UNL     1       6.257   3.011  19.806  0.00  0.00    +0.000 HD
ATOM     10  H   UNL     1       2.631   1.678  20.794  0.00  0.00    +0.000 HD
ENDROOT
BRANCH   1  13
ATOM     11  C   UNL     1       6.104   4.374  15.741  0.00  0.00    +0.000 A 
ATOM     12  C   UNL     1       5.372   4.088  16.901  0.00  0.00    +0.000 A 
ATOM     13  C   UNL     1       5.483   4.877  18.056  0.00  0.00    +0.000 A 
ATOM     14  C   UNL     1       6.298   6.017  18.016  0.00  0.00    +0.000 A 
ATOM     15  C   UNL     1       7.057   6.293  16.878  0.00  0.00    +0.000 A 
ATOM     16  C   UNL     1       6.985   5.448  15.763  0.00  0.00    +0.000 A 
BRANCH  16  17
ATOM     17  O   UNL     1       7.846   5.692  14.730  0.00  0.00    +0.000 OA
ATOM     18  H   UNL     1       8.277   6.543  14.920  0.00  0.00    +0.000 HD
ENDBRANCH  16  17
BRANCH  11  19
ATOM     19  O   UNL     1       5.887   3.469  14.743  0.00  0.00    +0.000 OA
BRANCH  19  21
ATOM     20  C   UNL     1       6.164   3.353  12.305  0.00  0.00    +0.000 C 
ATOM     21  C   UNL     1       5.366   3.887  13.484  0.00  0.00    +0.000 C 
ENDBRANCH  19  21
ENDBRANCH  11  19
ENDBRANCH   1  13
BRANCH   8  22
ATOM     22  C   UNL     1       2.678   5.736  18.708  0.00  0.00    +0.000 C 
ATOM     23  O   UNL     1       2.124   5.812  17.620  0.00  0.00    +0.000 OA
BRANCH  22  24
ATOM     24  O   UNL     1       2.888   6.771  19.555  0.00  0.00    +0.000 OA
BRANCH  24  25
ATOM     25  C   UNL     1       1.716   7.274  20.218  0.00  0.00    +0.000 C 
BRANCH  25  26
ATOM     26  C   UNL     1       1.857   8.744  20.639  0.00  0.00    +0.000 C 
ATOM     27  C   UNL     1       1.242   9.714  19.618  0.00  0.00    +0.000 C 
ATOM     28  C   UNL     1      -0.286   9.753  19.649  0.00  0.00    +0.000 C 
ATOM     29  C   UNL     1      -0.826   9.973  21.060  0.00  0.00    +0.000 C 
ATOM     30  C   UNL     1      -0.270   8.948  22.040  0.00  0.00    +0.000 C 
ATOM     31  C   UNL     1       1.258   8.960  22.038  0.00  0.00    +0.000 C 
ENDBRANCH  25  26
ENDBRANCH  24  25
ENDBRANCH  22  24
ENDBRANCH   8  22
TORSDOF 8
ENDMDL
MODEL 6
REMARK VINA RESULT:      -7.6      2.116      6.023
REMARK  Name = 
REMARK  10 active torsions:
REMARK  status: ('A' for Active; 'I' for Inactive)
REMARK    1  A    between atoms: C_1  and  C_2
REMARK    2  A    between atoms: C_2  and  O_3
REMARK    3  A    between atoms: O_3  and  C_4
REMARK    4  A    between atoms: C_6  and  C_7
REMARK    5  A    between atoms: C_12  and  C_13
REMARK    6  A    between atoms: C_14  and  C_15
REMARK    7  A    between atoms: C_15  and  O_17
REMARK    8  A    between atoms: O_17  and  C_18
REMARK    9  A    between atoms: C_18  and  C_19
REMARK   10  A    between atoms: C_27  and  O_28
REMARK                            x       y       z     vdW  Elec       q    Type
REMARK                         _______ _______ _______ _____ _____    ______ ____
ROOT
ATOM      1  C   UNL     1       2.080   3.969  19.725  0.00  0.00    +0.000 C 
ATOM      2  N   UNL     1       1.372   3.762  20.976  0.00  0.00    +0.000 N 
ATOM      3  C   UNL     1       1.613   2.739  21.822  0.00  0.00    +0.000 C 
ATOM      4  O   UNL     1       0.835   2.431  22.717  0.00  0.00    +0.000 OA
ATOM      5  N   UNL     1       2.808   2.100  21.662  0.00  0.00    +0.000 N 
ATOM      6  C   UNL     1       3.742   2.380  20.690  0.00  0.00    +0.000 C 
ATOM      7  C   UNL     1       5.011   1.575  20.764  0.00  0.00    +0.000 C 
ATOM      8  C   UNL     1       3.426   3.284  19.738  0.00  0.00    +0.000 C 
ATOM      9  H   UNL     1       0.463   4.193  21.089  0.00  0.00    +0.000 HD
ATOM     10  H   UNL     1       2.983   1.367  22.342  0.00  0.00    +0.000 HD
ENDROOT
BRANCH   1  13
ATOM     11  C   UNL     1       1.804   7.756  20.232  0.00  0.00    +0.000 A 
ATOM     12  C   UNL     1       1.872   6.378  20.472  0.00  0.00    +0.000 A 
ATOM     13  C   UNL     1       2.143   5.462  19.444  0.00  0.00    +0.000 A 
ATOM     14  C   UNL     1       2.421   5.955  18.161  0.00  0.00    +0.000 A 
ATOM     15  C   UNL     1       2.325   7.322  17.903  0.00  0.00    +0.000 A 
ATOM     16  C   UNL     1       1.979   8.210  18.929  0.00  0.00    +0.000 A 
BRANCH  16  17
ATOM     17  O   UNL     1       1.771   9.517  18.591  0.00  0.00    +0.000 OA
ATOM     18  H   UNL     1       2.203  10.056  19.276  0.00  0.00    +0.000 HD
ENDBRANCH  16  17
BRANCH  11  19
ATOM     19  O   UNL     1       1.491   8.473  21.350  0.00  0.00    +0.000 OA
BRANCH  19  21
ATOM     20  C   UNL     1      -0.020   9.470  23.010  0.00  0.00    +0.000 C 
ATOM     21  C   UNL     1       0.131   8.722  21.695  0.00  0.00    +0.000 C 
ENDBRANCH  19  21
ENDBRANCH  11  19
ENDBRANCH   1  13
BRANCH   8  22
ATOM     22  C   UNL     1       4.279   3.547  18.548  0.00  0.00    +0.000 C 
ATOM     23  O   UNL     1       3.899   3.352  17.402  0.00  0.00    +0.000 OA
BRANCH  22  24
ATOM     24  O   UNL     1       5.517   3.966  18.903  0.00  0.00    +0.000 OA
BRANCH  24  25
ATOM     25  C   UNL     1       5.667   5.387  19.056  0.00  0.00    +0.000 C 
BRANCH  25  26
ATOM     26  C   UNL     1       6.779   5.964  18.168  0.00  0.00    +0.000 C 
ATOM     27  C   UNL     1       7.585   4.875  17.443  0.00  0.00    +0.000 C 
ATOM     28  C   UNL     1       6.844   4.241  16.266  0.00  0.00    +0.000 C 
ATOM     29  C   UNL     1       6.288   5.288  15.305  0.00  0.00    +0.000 C 
ATOM     30  C   UNL     1       5.422   6.311  16.031  0.00  0.00    +0.000 C 
ATOM     31  C   UNL     1       6.194   6.976  17.169  0.00  0.00    +0.000 C 
ENDBRANCH  25  26
ENDBRANCH  24  25
ENDBRANCH  22  24
ENDBRANCH   8  22
TORSDOF 8
ENDMDL
MODEL 7
REMARK VINA RESULT:      -7.6      0.646      1.202
REMARK  Name = 
REMARK  10 active torsions:
REMARK  status: ('A' for Active; 'I' for Inactive)
REMARK    1  A    between atoms: C_1  and  C_2
REMARK    2  A    between atoms: C_2  and  O_3
REMARK    3  A    between atoms: O_3  and  C_4
REMARK    4  A    between atoms: C_6  and  C_7
REMARK    5  A    between atoms: C_12  and  C_13
REMARK    6  A    between atoms: C_14  and  C_15
REMARK    7  A    between atoms: C_15  and  O_17
REMARK    8  A    between atoms: O_17  and  C_18
REMARK    9  A    between atoms: C_18  and  C_19
REMARK   10  A    between atoms: C_27  and  O_28
REMARK                            x       y       z     vdW  Elec       q    Type
REMARK                         _______ _______ _______ _____ _____    ______ ____
ROOT
ATOM      1  C   UNL     1       4.684   4.368  19.432  0.00  0.00    +0.000 C 
ATOM      2  N   UNL     1       5.170   3.082  19.901  0.00  0.00    +0.000 N 
ATOM      3  C   UNL     1       4.466   2.251  20.697  0.00  0.00    +0.000 C 
ATOM      4  O   UNL     1       4.988   1.317  21.295  0.00  0.00    +0.000 OA
ATOM      5  N   UNL     1       3.121   2.473  20.753  0.00  0.00    +0.000 N 
ATOM      6  C   UNL     1       2.450   3.492  20.113  0.00  0.00    +0.000 C 
ATOM      7  C   UNL     1       0.956   3.484  20.281  0.00  0.00    +0.000 C 
ATOM      8  C   UNL     1       3.175   4.425  19.459  0.00  0.00    +0.000 C 
ATOM      9  H   UNL     1       6.170   2.921  19.909  0.00  0.00    +0.000 HD
ATOM     10  H   UNL     1       2.611   1.804  21.320  0.00  0.00    +0.000 HD
ENDROOT
BRANCH   1  13
ATOM     11  C   UNL     1       6.603   6.135  16.627  0.00  0.00    +0.000 A 
ATOM     12  C   UNL     1       6.116   5.772  17.889  0.00  0.00    +0.000 A 
ATOM     13  C   UNL     1       5.293   4.649  18.068  0.00  0.00    +0.000 A 
ATOM     14  C   UNL     1       5.014   3.837  16.959  0.00  0.00    +0.000 A 
ATOM     15  C   UNL     1       5.466   4.206  15.693  0.00  0.00    +0.000 A 
ATOM     16  C   UNL     1       6.224   5.373  15.527  0.00  0.00    +0.000 A 
BRANCH  16  17
ATOM     17  O   UNL     1       6.527   5.754  14.251  0.00  0.00    +0.000 OA
ATOM     18  H   UNL     1       5.685   5.974  13.817  0.00  0.00    +0.000 HD
ENDBRANCH  16  17
BRANCH  11  19
ATOM     19  O   UNL     1       7.350   7.276  16.656  0.00  0.00    +0.000 OA
BRANCH  19  21
ATOM     20  C   UNL     1       8.224   9.209  17.895  0.00  0.00    +0.000 C 
ATOM     21  C   UNL     1       7.964   7.711  17.866  0.00  0.00    +0.000 C 
ENDBRANCH  19  21
ENDBRANCH  11  19
ENDBRANCH   1  13
BRANCH   8  22
ATOM     22  C   UNL     1       2.580   5.657  18.875  0.00  0.00    +0.000 C 
ATOM     23  O   UNL     1       2.119   5.700  17.743  0.00  0.00    +0.000 OA
BRANCH  22  24
ATOM     24  O   UNL     1       2.668   6.707  19.727  0.00  0.00    +0.000 OA
BRANCH  24  25
ATOM     25  C   UNL     1       2.210   7.965  19.205  0.00  0.00    +0.000 C 
BRANCH  25  26
ATOM     26  C   UNL     1       0.790   8.318  19.670  0.00  0.00    +0.000 C 
ATOM     27  C   UNL     1       0.648   8.311  21.201  0.00  0.00    +0.000 C 
ATOM     28  C   UNL     1       1.275   9.528  21.882  0.00  0.00    +0.000 C 
ATOM     29  C   UNL     1       0.806  10.840  21.260  0.00  0.00    +0.000 C 
ATOM     30  C   UNL     1       1.034  10.860  19.754  0.00  0.00    +0.000 C 
ATOM     31  C   UNL     1       0.354   9.669  19.080  0.00  0.00    +0.000 C 
ENDBRANCH  25  26
ENDBRANCH  24  25
ENDBRANCH  22  24
ENDBRANCH   8  22
TORSDOF 8
ENDMDL
MODEL 8
REMARK VINA RESULT:      -7.5      1.179      2.621
REMARK  Name = 
REMARK  10 active torsions:
REMARK  status: ('A' for Active; 'I' for Inactive)
REMARK    1  A    between atoms: C_1  and  C_2
REMARK    2  A    between atoms: C_2  and  O_3
REMARK    3  A    between atoms: O_3  and  C_4
REMARK    4  A    between atoms: C_6  and  C_7
REMARK    5  A    between atoms: C_12  and  C_13
REMARK    6  A    between atoms: C_14  and  C_15
REMARK    7  A    between atoms: C_15  and  O_17
REMARK    8  A    between atoms: O_17  and  C_18
REMARK    9  A    between atoms: C_18  and  C_19
REMARK   10  A    between atoms: C_27  and  O_28
REMARK                            x       y       z     vdW  Elec       q    Type
REMARK                         _______ _______ _______ _____ _____    ______ ____
ROOT
ATOM      1  C   UNL     1       4.784   4.559  19.384  0.00  0.00    +0.000 C 
ATOM      2  N   UNL     1       5.260   3.252  19.801  0.00  0.00    +0.000 N 
ATOM      3  C   UNL     1       4.513   2.354  20.475  0.00  0.00    +0.000 C 
ATOM      4  O   UNL     1       5.006   1.389  21.048  0.00  0.00    +0.000 OA
ATOM      5  N   UNL     1       3.163   2.548  20.436  0.00  0.00    +0.000 N 
ATOM      6  C   UNL     1       2.523   3.599  19.816  0.00  0.00    +0.000 C 
ATOM      7  C   UNL     1       1.020   3.553  19.859  0.00  0.00    +0.000 C 
ATOM      8  C   UNL     1       3.277   4.589  19.291  0.00  0.00    +0.000 C 
ATOM      9  H   UNL     1       6.259   3.108  19.879  0.00  0.00    +0.000 HD
ATOM     10  H   UNL     1       2.625   1.831  20.911  0.00  0.00    +0.000 HD
ENDROOT
BRANCH   1  13
ATOM     11  C   UNL     1       6.101   4.393  15.791  0.00  0.00    +0.000 A 
ATOM     12  C   UNL     1       5.372   4.137  16.959  0.00  0.00    +0.000 A 
ATOM     13  C   UNL     1       5.495   4.948  18.098  0.00  0.00    +0.000 A 
ATOM     14  C   UNL     1       6.320   6.081  18.031  0.00  0.00    +0.000 A 
ATOM     15  C   UNL     1       7.075   6.327  16.885  0.00  0.00    +0.000 A 
ATOM     16  C   UNL     1       6.991   5.461  15.787  0.00  0.00    +0.000 A 
BRANCH  16  17
ATOM     17  O   UNL     1       7.849   5.677  14.745  0.00  0.00    +0.000 OA
ATOM     18  H   UNL     1       7.438   6.353  14.180  0.00  0.00    +0.000 HD
ENDBRANCH  16  17
BRANCH  11  19
ATOM     19  O   UNL     1       5.872   3.470  14.812  0.00  0.00    +0.000 OA
BRANCH  19  21
ATOM     20  C   UNL     1       6.275   3.451  12.389  0.00  0.00    +0.000 C 
ATOM     21  C   UNL     1       5.373   3.871  13.539  0.00  0.00    +0.000 C 
ENDBRANCH  19  21
ENDBRANCH  11  19
ENDBRANCH   1  13
BRANCH   8  22
ATOM     22  C   UNL     1       2.703   5.849  18.748  0.00  0.00    +0.000 C 
ATOM     23  O   UNL     1       2.336   5.965  17.587  0.00  0.00    +0.000 OA
BRANCH  22  24
ATOM     24  O   UNL     1       2.694   6.835  19.676  0.00  0.00    +0.000 OA
BRANCH  24  25
ATOM     25  C   UNL     1       2.231   8.114  19.213  0.00  0.00    +0.000 C 
BRANCH  25  26
ATOM     26  C   UNL     1       0.791   8.417  19.651  0.00  0.00    +0.000 C 
ATOM     27  C   UNL     1       0.602   8.321  21.174  0.00  0.00    +0.000 C 
ATOM     28  C   UNL     1       1.185   9.507  21.942  0.00  0.00    +0.000 C 
ATOM     29  C   UNL     1       0.712  10.845  21.381  0.00  0.00    +0.000 C 
ATOM     30  C   UNL     1       0.986  10.953  19.886  0.00  0.00    +0.000 C 
ATOM     31  C   UNL     1       0.349   9.792  19.125  0.00  0.00    +0.000 C 
ENDBRANCH  25  26
ENDBRANCH  24  25
ENDBRANCH  22  24
ENDBRANCH   8  22
TORSDOF 8
ENDMDL
MODEL 9
REMARK VINA RESULT:      -7.3      2.303      7.189
REMARK  Name = 
REMARK  10 active torsions:
REMARK  status: ('A' for Active; 'I' for Inactive)
REMARK    1  A    between atoms: C_1  and  C_2
REMARK    2  A    between atoms: C_2  and  O_3
REMARK    3  A    between atoms: O_3  and  C_4
REMARK    4  A    between atoms: C_6  and  C_7
REMARK    5  A    between atoms: C_12  and  C_13
REMARK    6  A    between atoms: C_14  and  C_15
REMARK    7  A    between atoms: C_15  and  O_17
REMARK    8  A    between atoms: O_17  and  C_18
REMARK    9  A    between atoms: C_18  and  C_19
REMARK   10  A    between atoms: C_27  and  O_28
REMARK                            x       y       z     vdW  Elec       q    Type
REMARK                         _______ _______ _______ _____ _____    ______ ____
ROOT
ATOM      1  C   UNL     1       5.928   5.054  18.149  0.00  0.00    +0.000 C 
ATOM      2  N   UNL     1       6.763   4.788  19.307  0.00  0.00    +0.000 N 
ATOM      3  C   UNL     1       7.910   5.444  19.580  0.00  0.00    +0.000 C 
ATOM      4  O   UNL     1       8.726   5.027  20.393  0.00  0.00    +0.000 OA
ATOM      5  N   UNL     1       8.084   6.636  18.940  0.00  0.00    +0.000 N 
ATOM      6  C   UNL     1       7.221   7.182  18.016  0.00  0.00    +0.000 C 
ATOM      7  C   UNL     1       7.607   8.542  17.500  0.00  0.00    +0.000 C 
ATOM      8  C   UNL     1       6.163   6.447  17.613  0.00  0.00    +0.000 C 
ATOM      9  H   UNL     1       6.677   3.888  19.763  0.00  0.00    +0.000 HD
ATOM     10  H   UNL     1       8.932   7.129  19.201  0.00  0.00    +0.000 HD
ENDROOT
BRANCH   1  13
ATOM     11  C   UNL     1       2.579   5.165  20.005  0.00  0.00    +0.000 A 
ATOM     12  C   UNL     1       3.868   5.479  19.556  0.00  0.00    +0.000 A 
ATOM     13  C   UNL     1       4.482   4.764  18.516  0.00  0.00    +0.000 A 
ATOM     14  C   UNL     1       3.750   3.756  17.871  0.00  0.00    +0.000 A 
ATOM     15  C   UNL     1       2.479   3.414  18.330  0.00  0.00    +0.000 A 
ATOM     16  C   UNL     1       1.916   4.093  19.419  0.00  0.00    +0.000 A 
BRANCH  16  17
ATOM     17  O   UNL     1       0.728   3.629  19.907  0.00  0.00    +0.000 OA
ATOM     18  H   UNL     1       0.268   3.201  19.165  0.00  0.00    +0.000 HD
ENDBRANCH  16  17
BRANCH  11  19
ATOM     19  O   UNL     1       2.177   5.948  21.048  0.00  0.00    +0.000 OA
BRANCH  19  21
ATOM     20  C   UNL     1       1.906   7.995  19.716  0.00  0.00    +0.000 C 
ATOM     21  C   UNL     1       1.368   7.100  20.822  0.00  0.00    +0.000 C 
ENDBRANCH  19  21
ENDBRANCH  11  19
ENDBRANCH   1  13
BRANCH   8  22
ATOM     22  C   UNL     1       5.259   6.857  16.505  0.00  0.00    +0.000 C 
ATOM     23  O   UNL     1       4.171   7.382  16.695  0.00  0.00    +0.000 OA
BRANCH  22  24
ATOM     24  O   UNL     1       5.771   6.527  15.295  0.00  0.00    +0.000 OA
BRANCH  24  25
ATOM     25  C   UNL     1       5.262   5.313  14.720  0.00  0.00    +0.000 C 
BRANCH  25  26
ATOM     26  C   UNL     1       6.343   4.234  14.560  0.00  0.00    +0.000 C 
ATOM     27  C   UNL     1       5.888   3.067  13.669  0.00  0.00    +0.000 C 
ATOM     28  C   UNL     1       5.869   3.403  12.178  0.00  0.00    +0.000 C 
ATOM     29  C   UNL     1       7.187   4.014  11.709  0.00  0.00    +0.000 C 
ATOM     30  C   UNL     1       7.577   5.221  12.552  0.00  0.00    +0.000 C 
ATOM     31  C   UNL     1       7.647   4.857  14.034  0.00  0.00    +0.000 C 
ENDBRANCH  25  26
ENDBRANCH  24  25
ENDBRANCH  22  24
ENDBRANCH   8  22
TORSDOF 8
ENDMDL
