MODEL 1
REMARK VINA RESULT:      -9.0      0.000      0.000
REMARK  Name = 
REMARK  3 active torsions:
REMARK  status: ('A' for Active; 'I' for Inactive)
REMARK    1  A    between atoms: C_2  and  C_3
REMARK    2  A    between atoms: C_6  and  C_7
REMARK    3  A    between atoms: C_13  and  C_14
REMARK                            x       y       z     vdW  Elec       q    Type
REMARK                         _______ _______ _______ _____ _____    ______ ____
ROOT
ATOM      1  C   UNL     1       2.313   5.248  20.233  0.00  0.00    +0.000 C 
ATOM      2  O   UNL     1       2.467   4.992  21.427  0.00  0.00    +0.000 OA
ATOM      3  N   UNL     1       2.397   4.263  19.245  0.00  0.00    +0.000 N 
ATOM      4  C   UNL     1       2.318   2.869  19.684  0.00  0.00    +0.000 C 
ATOM      5  C   UNL     1       3.382   1.997  19.029  0.00  0.00    +0.000 C 
ATOM      6  C   UNL     1       3.352   2.155  17.513  0.00  0.00    +0.000 C 
ATOM      7  C   UNL     1       3.541   3.627  17.091  0.00  0.00    +0.000 C 
ATOM      8  C   UNL     1       2.441   4.467  17.787  0.00  0.00    +0.000 C 
ENDROOT
BRANCH   7   9
ATOM      9  C   UNL     1       4.968   4.157  17.289  0.00  0.00    +0.000 A 
ATOM     10  C   UNL     1       5.521   4.461  18.481  0.00  0.00    +0.000 A 
ATOM     11  C   UNL     1       6.901   5.010  18.469  0.00  0.00    +0.000 A 
ATOM     12  N   UNL     1       7.628   5.239  17.421  0.00  0.00    +0.000 NA
ATOM     13  C   UNL     1       7.045   4.937  16.226  0.00  0.00    +0.000 A 
ATOM     14  N   UNL     1       7.538   5.070  15.013  0.00  0.00    +0.000 NA
ATOM     15  C   UNL     1       6.532   4.630  14.214  0.00  0.00    +0.000 A 
ATOM     16  N   UNL     1       5.421   4.237  14.833  0.00  0.00    +0.000 NA
ATOM     17  N   UNL     1       5.744   4.409  16.140  0.00  0.00    +0.000 N 
ENDBRANCH   7   9
BRANCH   1  21
ATOM     18  C   UNL     1       1.384   9.337  19.310  0.00  0.00    +0.000 A 
ATOM     19  C   UNL     1       1.013   8.776  20.536  0.00  0.00    +0.000 A 
ATOM     20  C   UNL     1       1.352   7.453  20.828  0.00  0.00    +0.000 A 
ATOM     21  C   UNL     1       2.054   6.675  19.896  0.00  0.00    +0.000 A 
ATOM     22  C   UNL     1       2.378   7.227  18.653  0.00  0.00    +0.000 A 
ATOM     23  C   UNL     1       2.076   8.563  18.374  0.00  0.00    +0.000 A 
BRANCH  18  25
ATOM     24  N   UNL     1       0.745  11.783  18.744  0.00  0.00    +0.000 NA
ATOM     25  C   UNL     1       1.029  10.687  18.997  0.00  0.00    +0.000 C 
ENDBRANCH  18  25
ENDBRANCH   1  21
TORSDOF 3
ENDMDL
MODEL 2
REMARK VINA RESULT:      -8.1      2.152      6.668
REMARK  Name = 
REMARK  3 active torsions:
REMARK  status: ('A' for Active; 'I' for Inactive)
REMARK    1  A    between atoms: C_2  and  C_3
REMARK    2  A    between atoms: C_6  and  C_7
REMARK    3  A    between atoms: C_13  and  C_14
REMARK                            x       y       z     vdW  Elec       q    Type
REMARK                         _______ _______ _______ _____ _____    ______ ____
ROOT
ATOM      1  C   UNL     1       3.097   3.731  17.322  0.00  0.00    +0.000 C 
ATOM      2  O   UNL     1       2.230   3.119  16.699  0.00  0.00    +0.000 OA
ATOM      3  N   UNL     1       2.951   4.058  18.673  0.00  0.00    +0.000 N 
ATOM      4  C   UNL     1       1.909   3.353  19.421  0.00  0.00    +0.000 C 
ATOM      5  C   UNL     1       1.081   4.296  20.284  0.00  0.00    +0.000 C 
ATOM      6  C   UNL     1       1.982   5.153  21.166  0.00  0.00    +0.000 C 
ATOM      7  C   UNL     1       2.997   5.957  20.329  0.00  0.00    +0.000 C 
ATOM      8  C   UNL     1       3.807   4.955  19.468  0.00  0.00    +0.000 C 
ENDROOT
BRANCH   7   9
ATOM      9  C   UNL     1       2.378   7.119  19.538  0.00  0.00    +0.000 A 
ATOM     10  C   UNL     1       2.507   7.303  18.208  0.00  0.00    +0.000 A 
ATOM     11  C   UNL     1       1.876   8.516  17.627  0.00  0.00    +0.000 A 
ATOM     12  N   UNL     1       1.219   9.426  18.274  0.00  0.00    +0.000 NA
ATOM     13  C   UNL     1       1.111   9.226  19.619  0.00  0.00    +0.000 A 
ATOM     14  N   UNL     1       0.513   9.979  20.517  0.00  0.00    +0.000 NA
ATOM     15  C   UNL     1       0.726   9.311  21.680  0.00  0.00    +0.000 A 
ATOM     16  N   UNL     1       1.433   8.187  21.590  0.00  0.00    +0.000 NA
ATOM     17  N   UNL     1       1.673   8.104  20.256  0.00  0.00    +0.000 N 
ENDBRANCH   7   9
BRANCH   1  21
ATOM     18  C   UNL     1       6.477   4.977  14.984  0.00  0.00    +0.000 A 
ATOM     19  C   UNL     1       5.598   5.916  15.531  0.00  0.00    +0.000 A 
ATOM     20  C   UNL     1       4.522   5.491  16.314  0.00  0.00    +0.000 A 
ATOM     21  C   UNL     1       4.307   4.125  16.548  0.00  0.00    +0.000 A 
ATOM     22  C   UNL     1       5.162   3.189  15.958  0.00  0.00    +0.000 A 
ATOM     23  C   UNL     1       6.263   3.614  15.207  0.00  0.00    +0.000 A 
BRANCH  18  25
ATOM     24  N   UNL     1       8.462   5.745  13.508  0.00  0.00    +0.000 NA
ATOM     25  C   UNL     1       7.573   5.403  14.170  0.00  0.00    +0.000 C 
ENDBRANCH  18  25
ENDBRANCH   1  21
TORSDOF 3
ENDMDL
MODEL 3
REMARK VINA RESULT:      -7.5      2.492      4.741
REMARK  Name = 
REMARK  3 active torsions:
REMARK  status: ('A' for Active; 'I' for Inactive)
REMARK    1  A    between atoms: C_2  and  C_3
REMARK    2  A    between atoms: C_6  and  C_7
REMARK    3  A    between atoms: C_13  and  C_14
REMARK                            x       y       z     vdW  Elec       q    Type
REMARK                         _______ _______ _______ _____ _____    ______ ____
ROOT
ATOM      1  C   UNL     1       3.070   7.588  17.843  0.00  0.00    +0.000 C 
ATOM      2  O   UNL     1       2.729   7.967  16.722  0.00  0.00    +0.000 OA
ATOM      3  N   UNL     1       4.198   6.787  18.045  0.00  0.00    +0.000 N 
ATOM      4  C   UNL     1       5.161   6.702  16.946  0.00  0.00    +0.000 C 
ATOM      5  C   UNL     1       5.606   5.269  16.680  0.00  0.00    +0.000 C 
ATOM      6  C   UNL     1       6.095   4.608  17.964  0.00  0.00    +0.000 C 
ATOM      7  C   UNL     1       5.011   4.630  19.061  0.00  0.00    +0.000 C 
ATOM      8  C   UNL     1       4.591   6.103  19.288  0.00  0.00    +0.000 C 
ENDROOT
BRANCH   7   9
ATOM      9  C   UNL     1       3.842   3.667  18.808  0.00  0.00    +0.000 A 
ATOM     10  C   UNL     1       3.579   3.065  17.630  0.00  0.00    +0.000 A 
ATOM     11  C   UNL     1       2.371   2.203  17.563  0.00  0.00    +0.000 A 
ATOM     12  N   UNL     1       1.533   1.978  18.526  0.00  0.00    +0.000 NA
ATOM     13  C   UNL     1       1.812   2.606  19.704  0.00  0.00    +0.000 A 
ATOM     14  N   UNL     1       1.141   2.567  20.835  0.00  0.00    +0.000 NA
ATOM     15  C   UNL     1       1.859   3.376  21.656  0.00  0.00    +0.000 A 
ATOM     16  N   UNL     1       2.939   3.943  21.121  0.00  0.00    +0.000 NA
ATOM     17  N   UNL     1       2.935   3.438  19.862  0.00  0.00    +0.000 N 
ENDBRANCH   7   9
BRANCH   1  21
ATOM     18  C   UNL     1       0.653   8.983  21.106  0.00  0.00    +0.000 A 
ATOM     19  C   UNL     1       0.828   9.762  19.959  0.00  0.00    +0.000 A 
ATOM     20  C   UNL     1       1.593   9.277  18.896  0.00  0.00    +0.000 A 
ATOM     21  C   UNL     1       2.200   8.015  18.974  0.00  0.00    +0.000 A 
ATOM     22  C   UNL     1       2.061   7.262  20.143  0.00  0.00    +0.000 A 
ATOM     23  C   UNL     1       1.262   7.728  21.192  0.00  0.00    +0.000 A 
BRANCH  18  25
ATOM     24  N   UNL     1      -0.740   9.883  23.096  0.00  0.00    +0.000 NA
ATOM     25  C   UNL     1      -0.118   9.479  22.205  0.00  0.00    +0.000 C 
ENDBRANCH  18  25
ENDBRANCH   1  21
TORSDOF 3
ENDMDL
MODEL 4
REMARK VINA RESULT:      -7.0      2.640      4.902
REMARK  Name = 
REMARK  3 active torsions:
REMARK  status: ('A' for Active; 'I' for Inactive)
REMARK    1  A    between atoms: C_2  and  C_3
REMARK    2  A    between atoms: C_6  and  C_7
REMARK    3  A    between atoms: C_13  and  C_14
REMARK                            x       y       z     vdW  Elec       q    Type
REMARK                         _______ _______ _______ _____ _____    ______ ____
ROOT
ATOM      1  C   UNL     1       2.799   7.903  17.877  0.00  0.00    +0.000 C 
ATOM      2  O   UNL     1       2.391   8.303  16.787  0.00  0.00    +0.000 OA
ATOM      3  N   UNL     1       3.850   6.987  17.986  0.00  0.00    +0.000 N 
ATOM      4  C   UNL     1       4.685   6.785  16.801  0.00  0.00    +0.000 C 
ATOM      5  C   UNL     1       4.946   5.310  16.525  0.00  0.00    +0.000 C 
ATOM      6  C   UNL     1       5.486   4.614  17.769  0.00  0.00    +0.000 C 
ATOM      7  C   UNL     1       4.524   4.765  18.966  0.00  0.00    +0.000 C 
ATOM      8  C   UNL     1       4.288   6.278  19.200  0.00  0.00    +0.000 C 
ENDROOT
BRANCH   7   9
ATOM      9  C   UNL     1       3.240   3.932  18.848  0.00  0.00    +0.000 A 
ATOM     10  C   UNL     1       2.635   3.605  17.687  0.00  0.00    +0.000 A 
ATOM     11  C   UNL     1       1.370   2.832  17.776  0.00  0.00    +0.000 A 
ATOM     12  N   UNL     1       0.778   2.447  18.862  0.00  0.00    +0.000 NA
ATOM     13  C   UNL     1       1.400   2.799  20.024  0.00  0.00    +0.000 A 
ATOM     14  N   UNL     1       1.031   2.552  21.263  0.00  0.00    +0.000 NA
ATOM     15  C   UNL     1       2.005   3.137  22.005  0.00  0.00    +0.000 A 
ATOM     16  N   UNL     1       2.969   3.754  21.325  0.00  0.00    +0.000 NA
ATOM     17  N   UNL     1       2.605   3.527  20.038  0.00  0.00    +0.000 N 
ENDBRANCH   7   9
BRANCH   1  21
ATOM     18  C   UNL     1       0.665   9.276  21.341  0.00  0.00    +0.000 A 
ATOM     19  C   UNL     1       1.224   7.995  21.304  0.00  0.00    +0.000 A 
ATOM     20  C   UNL     1       1.940   7.579  20.179  0.00  0.00    +0.000 A 
ATOM     21  C   UNL     1       2.095   8.433  19.077  0.00  0.00    +0.000 A 
ATOM     22  C   UNL     1       1.493   9.695  19.103  0.00  0.00    +0.000 A 
ATOM     23  C   UNL     1       0.810  10.128  20.242  0.00  0.00    +0.000 A 
BRANCH  18  25
ATOM     24  N   UNL     1      -0.687  10.049  23.411  0.00  0.00    +0.000 NA
ATOM     25  C   UNL     1      -0.082   9.704  22.483  0.00  0.00    +0.000 C 
ENDBRANCH  18  25
ENDBRANCH   1  21
TORSDOF 3
ENDMDL
MODEL 5
REMARK VINA RESULT:      -7.0      3.173      6.554
REMARK  Name = 
REMARK  3 active torsions:
REMARK  status: ('A' for Active; 'I' for Inactive)
REMARK    1  A    between atoms: C_2  and  C_3
REMARK    2  A    between atoms: C_6  and  C_7
REMARK    3  A    between atoms: C_13  and  C_14
REMARK                            x       y       z     vdW  Elec       q    Type
REMARK                         _______ _______ _______ _____ _____    ______ ____
ROOT
ATOM      1  C   UNL     1       5.688   6.136  16.996  0.00  0.00    +0.000 C 
ATOM      2  O   UNL     1       5.680   5.899  15.788  0.00  0.00    +0.000 OA
ATOM      3  N   UNL     1       4.795   5.523  17.880  0.00  0.00    +0.000 N 
ATOM      4  C   UNL     1       4.089   4.335  17.397  0.00  0.00    +0.000 C 
ATOM      5  C   UNL     1       2.603   4.373  17.727  0.00  0.00    +0.000 C 
ATOM      6  C   UNL     1       2.385   4.644  19.212  0.00  0.00    +0.000 C 
ATOM      7  C   UNL     1       3.060   5.958  19.654  0.00  0.00    +0.000 C 
ATOM      8  C   UNL     1       4.563   5.869  19.292  0.00  0.00    +0.000 C 
ENDROOT
BRANCH   7   9
ATOM      9  C   UNL     1       2.357   7.225  19.146  0.00  0.00    +0.000 A 
ATOM     10  C   UNL     1       2.417   7.687  17.880  0.00  0.00    +0.000 A 
ATOM     11  C   UNL     1       1.710   8.960  17.588  0.00  0.00    +0.000 A 
ATOM     12  N   UNL     1       1.046   9.683  18.434  0.00  0.00    +0.000 NA
ATOM     13  C   UNL     1       1.009   9.204  19.710  0.00  0.00    +0.000 A 
ATOM     14  N   UNL     1       0.422   9.724  20.767  0.00  0.00    +0.000 NA
ATOM     15  C   UNL     1       0.716   8.843  21.757  0.00  0.00    +0.000 A 
ATOM     16  N   UNL     1       1.464   7.798  21.408  0.00  0.00    +0.000 NA
ATOM     17  N   UNL     1       1.645   8.005  20.079  0.00  0.00    +0.000 N 
ENDBRANCH   7   9
BRANCH   1  21
ATOM     18  C   UNL     1       8.546   8.955  18.521  0.00  0.00    +0.000 A 
ATOM     19  C   UNL     1       8.574   7.616  18.923  0.00  0.00    +0.000 A 
ATOM     20  C   UNL     1       7.654   6.709  18.392  0.00  0.00    +0.000 A 
ATOM     21  C   UNL     1       6.691   7.132  17.463  0.00  0.00    +0.000 A 
ATOM     22  C   UNL     1       6.639   8.482  17.103  0.00  0.00    +0.000 A 
ATOM     23  C   UNL     1       7.583   9.383  17.602  0.00  0.00    +0.000 A 
BRANCH  18  25
ATOM     24  N   UNL     1      10.229  10.655  19.513  0.00  0.00    +0.000 NA
ATOM     25  C   UNL     1       9.475   9.893  19.071  0.00  0.00    +0.000 C 
ENDBRANCH  18  25
ENDBRANCH   1  21
TORSDOF 3
ENDMDL
MODEL 6
REMARK VINA RESULT:      -6.8      7.597     11.005
REMARK  Name = 
REMARK  3 active torsions:
REMARK  status: ('A' for Active; 'I' for Inactive)
REMARK    1  A    between atoms: C_2  and  C_3
REMARK    2  A    between atoms: C_6  and  C_7
REMARK    3  A    between atoms: C_13  and  C_14
REMARK                            x       y       z     vdW  Elec       q    Type
REMARK                         _______ _______ _______ _____ _____    ______ ____
ROOT
ATOM      1  C   UNL     1       0.670  12.082  19.526  0.00  0.00    +0.000 C 
ATOM      2  O   UNL     1       0.749  11.276  18.598  0.00  0.00    +0.000 OA
ATOM      3  N   UNL     1       0.362  11.686  20.831  0.00  0.00    +0.000 N 
ATOM      4  C   UNL     1       0.483  10.260  21.141  0.00  0.00    +0.000 C 
ATOM      5  C   UNL     1      -0.716   9.737  21.922  0.00  0.00    +0.000 C 
ATOM      6  C   UNL     1      -0.981  10.602  23.149  0.00  0.00    +0.000 C 
ATOM      7  C   UNL     1      -1.204  12.079  22.765  0.00  0.00    +0.000 C 
ATOM      8  C   UNL     1       0.037  12.558  21.971  0.00  0.00    +0.000 C 
ENDROOT
BRANCH   7   9
ATOM      9  C   UNL     1      -2.547  12.351  22.072  0.00  0.00    +0.000 A 
ATOM     10  C   UNL     1      -2.700  12.597  20.755  0.00  0.00    +0.000 A 
ATOM     11  C   UNL     1      -4.076  12.887  20.274  0.00  0.00    +0.000 A 
ATOM     12  N   UNL     1      -5.148  12.939  20.998  0.00  0.00    +0.000 NA
ATOM     13  C   UNL     1      -4.969  12.699  22.329  0.00  0.00    +0.000 A 
ATOM     14  N   UNL     1      -5.865  12.691  23.292  0.00  0.00    +0.000 NA
ATOM     15  C   UNL     1      -5.135  12.408  24.401  0.00  0.00    +0.000 A 
ATOM     16  N   UNL     1      -3.826  12.247  24.215  0.00  0.00    +0.000 NA
ATOM     17  N   UNL     1      -3.704  12.411  22.874  0.00  0.00    +0.000 N 
ENDBRANCH   7   9
BRANCH   1  21
ATOM     18  C   UNL     1       1.226  16.179  18.366  0.00  0.00    +0.000 A 
ATOM     19  C   UNL     1      -0.055  15.627  18.459  0.00  0.00    +0.000 A 
ATOM     20  C   UNL     1      -0.215  14.301  18.867  0.00  0.00    +0.000 A 
ATOM     21  C   UNL     1       0.902  13.511  19.176  0.00  0.00    +0.000 A 
ATOM     22  C   UNL     1       2.182  14.055  19.035  0.00  0.00    +0.000 A 
ATOM     23  C   UNL     1       2.344  15.393  18.665  0.00  0.00    +0.000 A 
BRANCH  18  25
ATOM     24  N   UNL     1       1.537  18.629  17.587  0.00  0.00    +0.000 NA
ATOM     25  C   UNL     1       1.400  17.532  17.936  0.00  0.00    +0.000 C 
ENDBRANCH  18  25
ENDBRANCH   1  21
TORSDOF 3
ENDMDL
MODEL 7
REMARK VINA RESULT:      -6.8      9.589     12.278
REMARK  Name = 
REMARK  3 active torsions:
REMARK  status: ('A' for Active; 'I' for Inactive)
REMARK    1  A    between atoms: C_2  and  C_3
REMARK    2  A    between atoms: C_6  and  C_7
REMARK    3  A    between atoms: C_13  and  C_14
REMARK                            x       y       z     vdW  Elec       q    Type
REMARK                         _______ _______ _______ _____ _____    ______ ____
ROOT
ATOM      1  C   UNL     1      -6.238  12.986  23.303  0.00  0.00    +0.000 C 
ATOM      2  O   UNL     1      -6.285  12.072  24.127  0.00  0.00    +0.000 OA
ATOM      3  N   UNL     1      -6.778  12.858  22.020  0.00  0.00    +0.000 N 
ATOM      4  C   UNL     1      -7.708  11.750  21.795  0.00  0.00    +0.000 C 
ATOM      5  C   UNL     1      -7.411  11.002  20.502  0.00  0.00    +0.000 C 
ATOM      6  C   UNL     1      -7.327  11.969  19.326  0.00  0.00    +0.000 C 
ATOM      7  C   UNL     1      -6.263  13.059  19.562  0.00  0.00    +0.000 C 
ATOM      8  C   UNL     1      -6.607  13.783  20.887  0.00  0.00    +0.000 C 
ENDROOT
BRANCH   7   9
ATOM      9  C   UNL     1      -4.816  12.554  19.470  0.00  0.00    +0.000 A 
ATOM     10  C   UNL     1      -3.889  12.685  20.441  0.00  0.00    +0.000 A 
ATOM     11  C   UNL     1      -2.524  12.175  20.150  0.00  0.00    +0.000 A 
ATOM     12  N   UNL     1      -2.129  11.623  19.046  0.00  0.00    +0.000 NA
ATOM     13  C   UNL     1      -3.079  11.512  18.074  0.00  0.00    +0.000 A 
ATOM     14  N   UNL     1      -2.963  11.006  16.864  0.00  0.00    +0.000 NA
ATOM     15  C   UNL     1      -4.204  11.163  16.337  0.00  0.00    +0.000 A 
ATOM     16  N   UNL     1      -5.105  11.749  17.122  0.00  0.00    +0.000 NA
ATOM     17  N   UNL     1      -4.399  11.962  18.261  0.00  0.00    +0.000 N 
ENDBRANCH   7   9
BRANCH   1  21
ATOM     18  C   UNL     1      -4.196  16.487  24.721  0.00  0.00    +0.000 A 
ATOM     19  C   UNL     1      -3.526  15.267  24.597  0.00  0.00    +0.000 A 
ATOM     20  C   UNL     1      -4.201  14.147  24.106  0.00  0.00    +0.000 A 
ATOM     21  C   UNL     1      -5.553  14.233  23.743  0.00  0.00    +0.000 A 
ATOM     22  C   UNL     1      -6.229  15.444  23.915  0.00  0.00    +0.000 A 
ATOM     23  C   UNL     1      -5.546  16.576  24.369  0.00  0.00    +0.000 A 
BRANCH  18  25
ATOM     24  N   UNL     1      -2.961  18.564  25.655  0.00  0.00    +0.000 NA
ATOM     25  C   UNL     1      -3.516  17.635  25.237  0.00  0.00    +0.000 C 
ENDBRANCH  18  25
ENDBRANCH   1  21
TORSDOF 3
ENDMDL
MODEL 8
REMARK VINA RESULT:      -6.7      6.259     12.232
REMARK  Name = 
REMARK  3 active torsions:
REMARK  status: ('A' for Active; 'I' for Inactive)
REMARK    1  A    between atoms: C_2  and  C_3
REMARK    2  A    between atoms: C_6  and  C_7
REMARK    3  A    between atoms: C_13  and  C_14
REMARK                            x       y       z     vdW  Elec       q    Type
REMARK                         _______ _______ _______ _____ _____    ______ ____
ROOT
ATOM      1  C   UNL     1      -0.405  13.345  21.674  0.00  0.00    +0.000 C 
ATOM      2  O   UNL     1       0.387  13.978  22.370  0.00  0.00    +0.000 OA
ATOM      3  N   UNL     1      -1.560  13.929  21.144  0.00  0.00    +0.000 N 
ATOM      4  C   UNL     1      -1.626  15.391  21.138  0.00  0.00    +0.000 C 
ATOM      5  C   UNL     1      -2.971  15.909  21.630  0.00  0.00    +0.000 C 
ATOM      6  C   UNL     1      -4.116  15.250  20.868  0.00  0.00    +0.000 C 
ATOM      7  C   UNL     1      -4.066  13.713  20.987  0.00  0.00    +0.000 C 
ATOM      8  C   UNL     1      -2.680  13.240  20.481  0.00  0.00    +0.000 C 
ENDROOT
BRANCH   7   9
ATOM      9  C   UNL     1      -4.454  13.178  22.372  0.00  0.00    +0.000 A 
ATOM     10  C   UNL     1      -3.579  12.799  23.327  0.00  0.00    +0.000 A 
ATOM     11  C   UNL     1      -4.145  12.259  24.590  0.00  0.00    +0.000 A 
ATOM     12  N   UNL     1      -5.401  12.104  24.865  0.00  0.00    +0.000 NA
ATOM     13  C   UNL     1      -6.267  12.482  23.882  0.00  0.00    +0.000 A 
ATOM     14  N   UNL     1      -7.582  12.434  23.881  0.00  0.00    +0.000 NA
ATOM     15  C   UNL     1      -7.915  12.920  22.658  0.00  0.00    +0.000 A 
ATOM     16  N   UNL     1      -6.900  13.266  21.869  0.00  0.00    +0.000 NA
ATOM     17  N   UNL     1      -5.824  13.008  22.655  0.00  0.00    +0.000 N 
ENDBRANCH   7   9
BRANCH   1  21
ATOM     18  C   UNL     1       0.622   9.205  21.179  0.00  0.00    +0.000 A 
ATOM     19  C   UNL     1      -0.031   9.649  22.332  0.00  0.00    +0.000 A 
ATOM     20  C   UNL     1      -0.383  10.995  22.460  0.00  0.00    +0.000 A 
ATOM     21  C   UNL     1      -0.077  11.911  21.443  0.00  0.00    +0.000 A 
ATOM     22  C   UNL     1       0.619  11.469  20.314  0.00  0.00    +0.000 A 
ATOM     23  C   UNL     1       0.937  10.116  20.165  0.00  0.00    +0.000 A 
BRANCH  18  25
ATOM     24  N   UNL     1       1.301   6.717  20.935  0.00  0.00    +0.000 NA
ATOM     25  C   UNL     1       0.999   7.832  21.046  0.00  0.00    +0.000 C 
ENDBRANCH  18  25
ENDBRANCH   1  21
TORSDOF 3
ENDMDL
MODEL 9
REMARK VINA RESULT:      -6.7      6.859      9.400
REMARK  Name = 
REMARK  3 active torsions:
REMARK  status: ('A' for Active; 'I' for Inactive)
REMARK    1  A    between atoms: C_2  and  C_3
REMARK    2  A    between atoms: C_6  and  C_7
REMARK    3  A    between atoms: C_13  and  C_14
REMARK                            x       y       z     vdW  Elec       q    Type
REMARK                         _______ _______ _______ _____ _____    ______ ____
ROOT
ATOM      1  C   UNL     1      -0.604  11.097  22.389  0.00  0.00    +0.000 C 
ATOM      2  O   UNL     1       0.137  10.561  23.214  0.00  0.00    +0.000 OA
ATOM      3  N   UNL     1      -0.631  10.704  21.048  0.00  0.00    +0.000 N 
ATOM      4  C   UNL     1      -0.023   9.414  20.719  0.00  0.00    +0.000 C 
ATOM      5  C   UNL     1       0.871   9.494  19.488  0.00  0.00    +0.000 C 
ATOM      6  C   UNL     1       0.124  10.126  18.318  0.00  0.00    +0.000 C 
ATOM      7  C   UNL     1      -0.410  11.528  18.677  0.00  0.00    +0.000 C 
ATOM      8  C   UNL     1      -1.305  11.391  19.933  0.00  0.00    +0.000 C 
ENDROOT
BRANCH   7   9
ATOM      9  C   UNL     1       0.679  12.605  18.786  0.00  0.00    +0.000 A 
ATOM     10  C   UNL     1       1.993  12.401  18.560  0.00  0.00    +0.000 A 
ATOM     11  C   UNL     1       2.904  13.556  18.764  0.00  0.00    +0.000 A 
ATOM     12  N   UNL     1       2.564  14.745  19.150  0.00  0.00    +0.000 NA
ATOM     13  C   UNL     1       1.233  14.926  19.385  0.00  0.00    +0.000 A 
ATOM     14  N   UNL     1       0.608  16.012  19.787  0.00  0.00    +0.000 NA
ATOM     15  C   UNL     1      -0.690  15.621  19.861  0.00  0.00    +0.000 A 
ATOM     16  N   UNL     1      -0.938  14.351  19.547  0.00  0.00    +0.000 NA
ATOM     17  N   UNL     1       0.295  13.891  19.214  0.00  0.00    +0.000 N 
ENDBRANCH   7   9
BRANCH   1  21
ATOM     18  C   UNL     1      -2.929  14.342  23.972  0.00  0.00    +0.000 A 
ATOM     19  C   UNL     1      -1.609  14.541  23.555  0.00  0.00    +0.000 A 
ATOM     20  C   UNL     1      -0.880  13.479  23.015  0.00  0.00    +0.000 A 
ATOM     21  C   UNL     1      -1.458  12.206  22.897  0.00  0.00    +0.000 A 
ATOM     22  C   UNL     1      -2.762  12.004  23.359  0.00  0.00    +0.000 A 
ATOM     23  C   UNL     1      -3.507  13.073  23.863  0.00  0.00    +0.000 A 
BRANCH  18  25
ATOM     24  N   UNL     1      -4.286  16.296  24.995  0.00  0.00    +0.000 NA
ATOM     25  C   UNL     1      -3.677  15.421  24.539  0.00  0.00    +0.000 C 
ENDBRANCH  18  25
ENDBRANCH   1  21
TORSDOF 3
ENDMDL
