MODEL 1
REMARK VINA RESULT:      -8.2      0.000      0.000
REMARK  Name = 
REMARK  5 active torsions:
REMARK  status: ('A' for Active; 'I' for Inactive)
REMARK    1  A    between atoms: C_1  and  C_2
REMARK    2  A    between atoms: C_5  and  C_6
REMARK    3  A    between atoms: C_7  and  N_8
REMARK    4  A    between atoms: C_9  and  C_11
REMARK    5  A    between atoms: C_13  and  C_14
REMARK                            x       y       z     vdW  Elec       q    Type
REMARK                         _______ _______ _______ _____ _____    ______ ____
ROOT
ATOM      1  N   UNL     1       4.605   4.802  17.103  0.00  0.00    +0.000 N 
ATOM      2  C   UNL     1       3.925   5.972  17.409  0.00  0.00    +0.000 C 
ATOM      3  O   UNL     1       3.978   6.982  16.716  0.00  0.00    +0.000 OA
ATOM      4  H   UNL     1       4.291   3.929  17.493  0.00  0.00    +0.000 HD
ENDROOT
BRANCH   2   5
ATOM      5  C   UNL     1       3.062   5.936  18.637  0.00  0.00    +0.000 A 
ATOM      6  C   UNL     1       2.713   7.137  19.267  0.00  0.00    +0.000 A 
ATOM      7  C   UNL     1       1.836   7.103  20.336  0.00  0.00    +0.000 A 
ATOM      8  C   UNL     1       1.378   8.361  21.007  0.00  0.00    +0.000 C 
ATOM      9  N   UNL     1       1.330   5.947  20.812  0.00  0.00    +0.000 NA
ATOM     10  C   UNL     1       1.696   4.786  20.250  0.00  0.00    +0.000 A 
ATOM     11  C   UNL     1       1.157   3.624  20.787  0.00  0.00    +0.000 A 
ATOM     12  C   UNL     1       1.470   2.359  20.286  0.00  0.00    +0.000 A 
ATOM     13  C   UNL     1       2.349   2.248  19.222  0.00  0.00    +0.000 A 
ATOM     14  C   UNL     1       2.889   3.402  18.658  0.00  0.00    +0.000 A 
ATOM     15  C   UNL     1       2.577   4.699  19.153  0.00  0.00    +0.000 A 
ENDBRANCH   2   5
BRANCH   1  22
ATOM     16  C   UNL     1       5.467   3.447  12.430  0.00  0.00    +0.000 C 
ATOM     17  C   UNL     1       5.945   4.046  13.719  0.00  0.00    +0.000 A 
ATOM     18  C   UNL     1       7.217   4.614  13.821  0.00  0.00    +0.000 A 
ATOM     19  C   UNL     1       7.629   5.223  15.009  0.00  0.00    +0.000 A 
ATOM     20  C   UNL     1       6.772   5.293  16.115  0.00  0.00    +0.000 A 
ATOM     21  C   UNL     1       7.263   5.907  17.396  0.00  0.00    +0.000 C 
ATOM     22  C   UNL     1       5.504   4.699  16.023  0.00  0.00    +0.000 A 
ATOM     23  C   UNL     1       5.101   4.070  14.836  0.00  0.00    +0.000 A 
ENDBRANCH   1  22
TORSDOF 2
ENDMDL
MODEL 2
REMARK VINA RESULT:      -8.1      2.529      6.672
REMARK  Name = 
REMARK  5 active torsions:
REMARK  status: ('A' for Active; 'I' for Inactive)
REMARK    1  A    between atoms: C_1  and  C_2
REMARK    2  A    between atoms: C_5  and  C_6
REMARK    3  A    between atoms: C_7  and  N_8
REMARK    4  A    between atoms: C_9  and  C_11
REMARK    5  A    between atoms: C_13  and  C_14
REMARK                            x       y       z     vdW  Elec       q    Type
REMARK                         _______ _______ _______ _____ _____    ______ ____
ROOT
ATOM      1  N   UNL     1       2.005   8.126  19.251  0.00  0.00    +0.000 N 
ATOM      2  C   UNL     1       2.613   8.040  18.007  0.00  0.00    +0.000 C 
ATOM      3  O   UNL     1       2.432   8.858  17.112  0.00  0.00    +0.000 OA
ATOM      4  H   UNL     1       2.413   7.647  20.037  0.00  0.00    +0.000 HD
ENDROOT
BRANCH   2   5
ATOM      5  C   UNL     1       3.564   6.894  17.812  0.00  0.00    +0.000 A 
ATOM      6  C   UNL     1       4.926   7.157  17.622  0.00  0.00    +0.000 A 
ATOM      7  C   UNL     1       5.809   6.096  17.545  0.00  0.00    +0.000 A 
ATOM      8  C   UNL     1       7.284   6.318  17.406  0.00  0.00    +0.000 C 
ATOM      9  N   UNL     1       5.397   4.812  17.615  0.00  0.00    +0.000 NA
ATOM     10  C   UNL     1       4.090   4.547  17.746  0.00  0.00    +0.000 A 
ATOM     11  C   UNL     1       3.717   3.210  17.800  0.00  0.00    +0.000 A 
ATOM     12  C   UNL     1       2.384   2.815  17.930  0.00  0.00    +0.000 A 
ATOM     13  C   UNL     1       1.394   3.779  18.005  0.00  0.00    +0.000 A 
ATOM     14  C   UNL     1       1.747   5.126  17.969  0.00  0.00    +0.000 A 
ATOM     15  C   UNL     1       3.100   5.547  17.842  0.00  0.00    +0.000 A 
ENDBRANCH   2   5
BRANCH   1  22
ATOM     16  C   UNL     1      -1.547  11.207  17.734  0.00  0.00    +0.000 C 
ATOM     17  C   UNL     1      -0.719  10.622  18.839  0.00  0.00    +0.000 A 
ATOM     18  C   UNL     1      -0.977  10.934  20.176  0.00  0.00    +0.000 A 
ATOM     19  C   UNL     1      -0.238  10.335  21.200  0.00  0.00    +0.000 A 
ATOM     20  C   UNL     1       0.762   9.398  20.910  0.00  0.00    +0.000 A 
ATOM     21  C   UNL     1       1.575   8.812  22.029  0.00  0.00    +0.000 C 
ATOM     22  C   UNL     1       1.040   9.104  19.566  0.00  0.00    +0.000 A 
ATOM     23  C   UNL     1       0.312   9.722  18.540  0.00  0.00    +0.000 A 
ENDBRANCH   1  22
TORSDOF 2
ENDMDL
MODEL 3
REMARK VINA RESULT:      -8.0      2.990      5.760
REMARK  Name = 
REMARK  5 active torsions:
REMARK  status: ('A' for Active; 'I' for Inactive)
REMARK    1  A    between atoms: C_1  and  C_2
REMARK    2  A    between atoms: C_5  and  C_6
REMARK    3  A    between atoms: C_7  and  N_8
REMARK    4  A    between atoms: C_9  and  C_11
REMARK    5  A    between atoms: C_13  and  C_14
REMARK                            x       y       z     vdW  Elec       q    Type
REMARK                         _______ _______ _______ _____ _____    ______ ____
ROOT
ATOM      1  N   UNL     1       2.367   7.922  19.326  0.00  0.00    +0.000 N 
ATOM      2  C   UNL     1       1.583   8.820  18.616  0.00  0.00    +0.000 C 
ATOM      3  O   UNL     1       1.162   8.598  17.486  0.00  0.00    +0.000 OA
ATOM      4  H   UNL     1       2.415   7.990  20.329  0.00  0.00    +0.000 HD
ENDROOT
BRANCH   2   5
ATOM      5  C   UNL     1       1.224  10.093  19.327  0.00  0.00    +0.000 A 
ATOM      6  C   UNL     1       1.536  11.322  18.732  0.00  0.00    +0.000 A 
ATOM      7  C   UNL     1       1.113  12.489  19.343  0.00  0.00    +0.000 A 
ATOM      8  C   UNL     1       1.362  13.828  18.722  0.00  0.00    +0.000 C 
ATOM      9  N   UNL     1       0.435  12.483  20.510  0.00  0.00    +0.000 NA
ATOM     10  C   UNL     1       0.174  11.315  21.114  0.00  0.00    +0.000 A 
ATOM     11  C   UNL     1      -0.514  11.364  22.320  0.00  0.00    +0.000 A 
ATOM     12  C   UNL     1      -0.836  10.212  23.040  0.00  0.00    +0.000 A 
ATOM     13  C   UNL     1      -0.458   8.976  22.547  0.00  0.00    +0.000 A 
ATOM     14  C   UNL     1       0.219   8.901  21.331  0.00  0.00    +0.000 A 
ATOM     15  C   UNL     1       0.551  10.064  20.582  0.00  0.00    +0.000 A 
ENDBRANCH   2   5
BRANCH   1  22
ATOM     16  C   UNL     1       5.250   5.618  16.041  0.00  0.00    +0.000 C 
ATOM     17  C   UNL     1       4.262   5.563  17.167  0.00  0.00    +0.000 A 
ATOM     18  C   UNL     1       3.908   4.346  17.755  0.00  0.00    +0.000 A 
ATOM     19  C   UNL     1       3.033   4.312  18.844  0.00  0.00    +0.000 A 
ATOM     20  C   UNL     1       2.507   5.495  19.379  0.00  0.00    +0.000 A 
ATOM     21  C   UNL     1       1.527   5.422  20.516  0.00  0.00    +0.000 C 
ATOM     22  C   UNL     1       2.841   6.716  18.773  0.00  0.00    +0.000 A 
ATOM     23  C   UNL     1       3.702   6.745  17.668  0.00  0.00    +0.000 A 
ENDBRANCH   1  22
TORSDOF 2
ENDMDL
MODEL 4
REMARK VINA RESULT:      -8.0      1.253      2.896
REMARK  Name = 
REMARK  5 active torsions:
REMARK  status: ('A' for Active; 'I' for Inactive)
REMARK    1  A    between atoms: C_1  and  C_2
REMARK    2  A    between atoms: C_5  and  C_6
REMARK    3  A    between atoms: C_7  and  N_8
REMARK    4  A    between atoms: C_9  and  C_11
REMARK    5  A    between atoms: C_13  and  C_14
REMARK                            x       y       z     vdW  Elec       q    Type
REMARK                         _______ _______ _______ _____ _____    ______ ____
ROOT
ATOM      1  N   UNL     1       4.645   4.937  16.906  0.00  0.00    +0.000 N 
ATOM      2  C   UNL     1       4.036   3.888  17.580  0.00  0.00    +0.000 C 
ATOM      3  O   UNL     1       4.224   2.709  17.301  0.00  0.00    +0.000 OA
ATOM      4  H   UNL     1       4.724   5.835  17.353  0.00  0.00    +0.000 HD
ENDROOT
BRANCH   2   5
ATOM      5  C   UNL     1       3.146   4.267  18.728  0.00  0.00    +0.000 A 
ATOM      6  C   UNL     1       2.738   3.280  19.635  0.00  0.00    +0.000 A 
ATOM      7  C   UNL     1       2.003   3.654  20.746  0.00  0.00    +0.000 A 
ATOM      8  C   UNL     1       1.593   2.652  21.781  0.00  0.00    +0.000 C 
ATOM      9  N   UNL     1       1.638   4.934  20.968  0.00  0.00    +0.000 NA
ATOM     10  C   UNL     1       1.979   5.879  20.081  0.00  0.00    +0.000 A 
ATOM     11  C   UNL     1       1.568   7.178  20.350  0.00  0.00    +0.000 A 
ATOM     12  C   UNL     1       1.861   8.243  19.495  0.00  0.00    +0.000 A 
ATOM     13  C   UNL     1       2.582   8.005  18.338  0.00  0.00    +0.000 A 
ATOM     14  C   UNL     1       3.018   6.712  18.057  0.00  0.00    +0.000 A 
ATOM     15  C   UNL     1       2.733   5.617  18.919  0.00  0.00    +0.000 A 
ENDBRANCH   2   5
BRANCH   1  22
ATOM     16  C   UNL     1       5.089   3.363  12.243  0.00  0.00    +0.000 C 
ATOM     17  C   UNL     1       5.691   3.985  13.468  0.00  0.00    +0.000 A 
ATOM     18  C   UNL     1       6.992   4.493  13.452  0.00  0.00    +0.000 A 
ATOM     19  C   UNL     1       7.520   5.126  14.580  0.00  0.00    +0.000 A 
ATOM     20  C   UNL     1       6.752   5.281  15.742  0.00  0.00    +0.000 A 
ATOM     21  C   UNL     1       7.366   5.918  16.957  0.00  0.00    +0.000 C 
ATOM     22  C   UNL     1       5.454   4.748  15.768  0.00  0.00    +0.000 A 
ATOM     23  C   UNL     1       4.935   4.094  14.642  0.00  0.00    +0.000 A 
ENDBRANCH   1  22
TORSDOF 2
ENDMDL
MODEL 5
REMARK VINA RESULT:      -8.0      2.278      7.128
REMARK  Name = 
REMARK  5 active torsions:
REMARK  status: ('A' for Active; 'I' for Inactive)
REMARK    1  A    between atoms: C_1  and  C_2
REMARK    2  A    between atoms: C_5  and  C_6
REMARK    3  A    between atoms: C_7  and  N_8
REMARK    4  A    between atoms: C_9  and  C_11
REMARK    5  A    between atoms: C_13  and  C_14
REMARK                            x       y       z     vdW  Elec       q    Type
REMARK                         _______ _______ _______ _____ _____    ______ ____
ROOT
ATOM      1  N   UNL     1       2.435   7.371  19.831  0.00  0.00    +0.000 N 
ATOM      2  C   UNL     1       2.167   6.013  19.925  0.00  0.00    +0.000 C 
ATOM      3  O   UNL     1       1.083   5.565  20.282  0.00  0.00    +0.000 OA
ATOM      4  H   UNL     1       3.189   7.688  19.244  0.00  0.00    +0.000 HD
ENDROOT
BRANCH   2   5
ATOM      5  C   UNL     1       3.277   5.087  19.517  0.00  0.00    +0.000 A 
ATOM      6  C   UNL     1       3.497   3.915  20.252  0.00  0.00    +0.000 A 
ATOM      7  C   UNL     1       4.454   3.019  19.811  0.00  0.00    +0.000 A 
ATOM      8  C   UNL     1       4.690   1.720  20.519  0.00  0.00    +0.000 C 
ATOM      9  N   UNL     1       5.204   3.251  18.712  0.00  0.00    +0.000 NA
ATOM     10  C   UNL     1       5.036   4.392  18.030  0.00  0.00    +0.000 A 
ATOM     11  C   UNL     1       5.841   4.589  16.916  0.00  0.00    +0.000 A 
ATOM     12  C   UNL     1       5.758   5.741  16.132  0.00  0.00    +0.000 A 
ATOM     13  C   UNL     1       4.850   6.728  16.471  0.00  0.00    +0.000 A 
ATOM     14  C   UNL     1       4.020   6.545  17.575  0.00  0.00    +0.000 A 
ATOM     15  C   UNL     1       4.088   5.375  18.382  0.00  0.00    +0.000 A 
ENDBRANCH   2   5
BRANCH   1  22
ATOM     16  C   UNL     1      -0.100   9.550  23.469  0.00  0.00    +0.000 C 
ATOM     17  C   UNL     1       0.270   9.454  22.019  0.00  0.00    +0.000 A 
ATOM     18  C   UNL     1      -0.175  10.406  21.099  0.00  0.00    +0.000 A 
ATOM     19  C   UNL     1       0.226  10.341  19.761  0.00  0.00    +0.000 A 
ATOM     20  C   UNL     1       1.095   9.334  19.320  0.00  0.00    +0.000 A 
ATOM     21  C   UNL     1       1.465   9.260  17.866  0.00  0.00    +0.000 C 
ATOM     22  C   UNL     1       1.521   8.362  20.238  0.00  0.00    +0.000 A 
ATOM     23  C   UNL     1       1.100   8.417  21.574  0.00  0.00    +0.000 A 
ENDBRANCH   1  22
TORSDOF 2
ENDMDL
MODEL 6
REMARK VINA RESULT:      -8.0      2.248      6.916
REMARK  Name = 
REMARK  5 active torsions:
REMARK  status: ('A' for Active; 'I' for Inactive)
REMARK    1  A    between atoms: C_1  and  C_2
REMARK    2  A    between atoms: C_5  and  C_6
REMARK    3  A    between atoms: C_7  and  N_8
REMARK    4  A    between atoms: C_9  and  C_11
REMARK    5  A    between atoms: C_13  and  C_14
REMARK                            x       y       z     vdW  Elec       q    Type
REMARK                         _______ _______ _______ _____ _____    ______ ____
ROOT
ATOM      1  N   UNL     1       1.602   8.385  19.021  0.00  0.00    +0.000 N 
ATOM      2  C   UNL     1       2.171   7.262  19.605  0.00  0.00    +0.000 C 
ATOM      3  O   UNL     1       2.177   7.064  20.815  0.00  0.00    +0.000 OA
ATOM      4  H   UNL     1       1.332   8.357  18.052  0.00  0.00    +0.000 HD
ENDROOT
BRANCH   2   5
ATOM      5  C   UNL     1       2.756   6.249  18.664  0.00  0.00    +0.000 A 
ATOM      6  C   UNL     1       3.759   6.643  17.769  0.00  0.00    +0.000 A 
ATOM      7  C   UNL     1       4.363   5.684  16.977  0.00  0.00    +0.000 A 
ATOM      8  C   UNL     1       5.484   6.036  16.047  0.00  0.00    +0.000 C 
ATOM      9  N   UNL     1       3.998   4.385  17.016  0.00  0.00    +0.000 NA
ATOM     10  C   UNL     1       3.006   4.005  17.833  0.00  0.00    +0.000 A 
ATOM     11  C   UNL     1       2.659   2.660  17.826  0.00  0.00    +0.000 A 
ATOM     12  C   UNL     1       1.638   2.151  18.631  0.00  0.00    +0.000 A 
ATOM     13  C   UNL     1       0.940   3.007  19.464  0.00  0.00    +0.000 A 
ATOM     14  C   UNL     1       1.282   4.358  19.499  0.00  0.00    +0.000 A 
ATOM     15  C   UNL     1       2.322   4.892  18.690  0.00  0.00    +0.000 A 
ENDBRANCH   2   5
BRANCH   1  22
ATOM     16  C   UNL     1      -0.743   9.955  23.077  0.00  0.00    +0.000 C 
ATOM     17  C   UNL     1      -0.074  10.247  21.767  0.00  0.00    +0.000 A 
ATOM     18  C   UNL     1       0.144  11.562  21.348  0.00  0.00    +0.000 A 
ATOM     19  C   UNL     1       0.823  11.823  20.155  0.00  0.00    +0.000 A 
ATOM     20  C   UNL     1       1.314  10.775  19.364  0.00  0.00    +0.000 A 
ATOM     21  C   UNL     1       1.994  11.086  18.060  0.00  0.00    +0.000 C 
ATOM     22  C   UNL     1       1.073   9.454  19.771  0.00  0.00    +0.000 A 
ATOM     23  C   UNL     1       0.373   9.195  20.958  0.00  0.00    +0.000 A 
ENDBRANCH   1  22
TORSDOF 2
ENDMDL
MODEL 7
REMARK VINA RESULT:      -8.0      3.250      6.331
REMARK  Name = 
REMARK  5 active torsions:
REMARK  status: ('A' for Active; 'I' for Inactive)
REMARK    1  A    between atoms: C_1  and  C_2
REMARK    2  A    between atoms: C_5  and  C_6
REMARK    3  A    between atoms: C_7  and  N_8
REMARK    4  A    between atoms: C_9  and  C_11
REMARK    5  A    between atoms: C_13  and  C_14
REMARK                            x       y       z     vdW  Elec       q    Type
REMARK                         _______ _______ _______ _____ _____    ______ ____
ROOT
ATOM      1  N   UNL     1       2.205   7.798  19.527  0.00  0.00    +0.000 N 
ATOM      2  C   UNL     1       1.454   8.808  18.942  0.00  0.00    +0.000 C 
ATOM      3  O   UNL     1       1.145   8.815  17.755  0.00  0.00    +0.000 OA
ATOM      4  H   UNL     1       2.160   7.660  20.523  0.00  0.00    +0.000 HD
ENDROOT
BRANCH   2   5
ATOM      5  C   UNL     1       0.984   9.901  19.858  0.00  0.00    +0.000 A 
ATOM      6  C   UNL     1       0.245   9.568  21.000  0.00  0.00    +0.000 A 
ATOM      7  C   UNL     1      -0.096  10.569  21.892  0.00  0.00    +0.000 A 
ATOM      8  C   UNL     1      -0.832  10.264  23.161  0.00  0.00    +0.000 C 
ATOM      9  N   UNL     1       0.233  11.861  21.681  0.00  0.00    +0.000 NA
ATOM     10  C   UNL     1       0.896  12.198  20.567  0.00  0.00    +0.000 A 
ATOM     11  C   UNL     1       1.199  13.543  20.392  0.00  0.00    +0.000 A 
ATOM     12  C   UNL     1       1.882  14.010  19.268  0.00  0.00    +0.000 A 
ATOM     13  C   UNL     1       2.272  13.114  18.288  0.00  0.00    +0.000 A 
ATOM     14  C   UNL     1       1.993  11.759  18.451  0.00  0.00    +0.000 A 
ATOM     15  C   UNL     1       1.302  11.264  19.592  0.00  0.00    +0.000 A 
ENDBRANCH   2   5
BRANCH   1  22
ATOM     16  C   UNL     1       5.293   6.298  15.973  0.00  0.00    +0.000 C 
ATOM     17  C   UNL     1       4.295   5.982  17.048  0.00  0.00    +0.000 A 
ATOM     18  C   UNL     1       4.022   4.660  17.410  0.00  0.00    +0.000 A 
ATOM     19  C   UNL     1       3.137   4.380  18.454  0.00  0.00    +0.000 A 
ATOM     20  C   UNL     1       2.519   5.414  19.169  0.00  0.00    +0.000 A 
ATOM     21  C   UNL     1       1.531   5.080  20.251  0.00  0.00    +0.000 C 
ATOM     22  C   UNL     1       2.773   6.741  18.789  0.00  0.00    +0.000 A 
ATOM     23  C   UNL     1       3.645   7.019  17.727  0.00  0.00    +0.000 A 
ENDBRANCH   1  22
TORSDOF 2
ENDMDL
MODEL 8
REMARK VINA RESULT:      -8.0      3.051      6.794
REMARK  Name = 
REMARK  5 active torsions:
REMARK  status: ('A' for Active; 'I' for Inactive)
REMARK    1  A    between atoms: C_1  and  C_2
REMARK    2  A    between atoms: C_5  and  C_6
REMARK    3  A    between atoms: C_7  and  N_8
REMARK    4  A    between atoms: C_9  and  C_11
REMARK    5  A    between atoms: C_13  and  C_14
REMARK                            x       y       z     vdW  Elec       q    Type
REMARK                         _______ _______ _______ _____ _____    ______ ____
ROOT
ATOM      1  N   UNL     1       2.217   7.671  19.646  0.00  0.00    +0.000 N 
ATOM      2  C   UNL     1       2.194   6.355  20.085  0.00  0.00    +0.000 C 
ATOM      3  O   UNL     1       1.339   5.914  20.845  0.00  0.00    +0.000 OA
ATOM      4  H   UNL     1       2.713   7.904  18.802  0.00  0.00    +0.000 HD
ENDROOT
BRANCH   2   5
ATOM      5  C   UNL     1       3.264   5.455  19.538  0.00  0.00    +0.000 A 
ATOM      6  C   UNL     1       4.586   5.915  19.482  0.00  0.00    +0.000 A 
ATOM      7  C   UNL     1       5.581   5.047  19.074  0.00  0.00    +0.000 A 
ATOM      8  C   UNL     1       7.019   5.464  19.053  0.00  0.00    +0.000 C 
ATOM      9  N   UNL     1       5.317   3.777  18.697  0.00  0.00    +0.000 NA
ATOM     10  C   UNL     1       4.050   3.341  18.699  0.00  0.00    +0.000 A 
ATOM     11  C   UNL     1       3.830   2.031  18.291  0.00  0.00    +0.000 A 
ATOM     12  C   UNL     1       2.552   1.471  18.247  0.00  0.00    +0.000 A 
ATOM     13  C   UNL     1       1.461   2.237  18.618  0.00  0.00    +0.000 A 
ATOM     14  C   UNL     1       1.660   3.548  19.047  0.00  0.00    +0.000 A 
ATOM     15  C   UNL     1       2.956   4.134  19.102  0.00  0.00    +0.000 A 
ENDBRANCH   2   5
BRANCH   1  22
ATOM     16  C   UNL     1      -0.236   9.690  23.430  0.00  0.00    +0.000 C 
ATOM     17  C   UNL     1       0.112   9.665  21.972  0.00  0.00    +0.000 A 
ATOM     18  C   UNL     1      -0.334  10.669  21.108  0.00  0.00    +0.000 A 
ATOM     19  C   UNL     1       0.046  10.668  19.764  0.00  0.00    +0.000 A 
ATOM     20  C   UNL     1       0.895   9.674  19.258  0.00  0.00    +0.000 A 
ATOM     21  C   UNL     1       1.243   9.671  17.796  0.00  0.00    +0.000 C 
ATOM     22  C   UNL     1       1.322   8.651  20.118  0.00  0.00    +0.000 A 
ATOM     23  C   UNL     1       0.921   8.642  21.462  0.00  0.00    +0.000 A 
ENDBRANCH   1  22
TORSDOF 2
ENDMDL
MODEL 9
REMARK VINA RESULT:      -7.9      0.884      2.955
REMARK  Name = 
REMARK  5 active torsions:
REMARK  status: ('A' for Active; 'I' for Inactive)
REMARK    1  A    between atoms: C_1  and  C_2
REMARK    2  A    between atoms: C_5  and  C_6
REMARK    3  A    between atoms: C_7  and  N_8
REMARK    4  A    between atoms: C_9  and  C_11
REMARK    5  A    between atoms: C_13  and  C_14
REMARK                            x       y       z     vdW  Elec       q    Type
REMARK                         _______ _______ _______ _____ _____    ______ ____
ROOT
ATOM      1  N   UNL     1       4.612   4.783  17.260  0.00  0.00    +0.000 N 
ATOM      2  C   UNL     1       3.932   5.957  17.550  0.00  0.00    +0.000 C 
ATOM      3  O   UNL     1       3.986   6.958  16.844  0.00  0.00    +0.000 OA
ATOM      4  H   UNL     1       4.298   3.915  17.661  0.00  0.00    +0.000 HD
ENDROOT
BRANCH   2   5
ATOM      5  C   UNL     1       3.067   5.936  18.777  0.00  0.00    +0.000 A 
ATOM      6  C   UNL     1       2.994   4.768  19.546  0.00  0.00    +0.000 A 
ATOM      7  C   UNL     1       2.278   4.787  20.729  0.00  0.00    +0.000 A 
ATOM      8  C   UNL     1       2.217   3.587  21.622  0.00  0.00    +0.000 C 
ATOM      9  N   UNL     1       1.620   5.888  21.152  0.00  0.00    +0.000 NA
ATOM     10  C   UNL     1       1.642   6.997  20.400  0.00  0.00    +0.000 A 
ATOM     11  C   UNL     1       0.938   8.097  20.873  0.00  0.00    +0.000 A 
ATOM     12  C   UNL     1       0.885   9.303  20.172  0.00  0.00    +0.000 A 
ATOM     13  C   UNL     1       1.549   9.416  18.963  0.00  0.00    +0.000 A 
ATOM     14  C   UNL     1       2.275   8.330  18.478  0.00  0.00    +0.000 A 
ATOM     15  C   UNL     1       2.343   7.095  19.181  0.00  0.00    +0.000 A 
ENDBRANCH   2   5
BRANCH   1  22
ATOM     16  C   UNL     1       5.436   3.536  12.550  0.00  0.00    +0.000 C 
ATOM     17  C   UNL     1       5.936   4.065  13.862  0.00  0.00    +0.000 A 
ATOM     18  C   UNL     1       7.237   4.560  13.989  0.00  0.00    +0.000 A 
ATOM     19  C   UNL     1       7.672   5.107  15.200  0.00  0.00    +0.000 A 
ATOM     20  C   UNL     1       6.811   5.187  16.302  0.00  0.00    +0.000 A 
ATOM     21  C   UNL     1       7.324   5.731  17.606  0.00  0.00    +0.000 C 
ATOM     22  C   UNL     1       5.513   4.666  16.182  0.00  0.00    +0.000 A 
ATOM     23  C   UNL     1       5.086   4.099  14.974  0.00  0.00    +0.000 A 
ENDBRANCH   1  22
TORSDOF 2
ENDMDL
