MODEL 1
REMARK VINA RESULT:      -7.1      0.000      0.000
REMARK  Name = 
REMARK  7 active torsions:
REMARK  status: ('A' for Active; 'I' for Inactive)
REMARK    1  A    between atoms: C_1  and  C_2
REMARK    2  A    between atoms: C_5  and  O_6
REMARK    3  A    between atoms: O_6  and  C_7
REMARK    4  A    between atoms: C_7  and  C_8
REMARK    5  A    between atoms: C_8  and  N_9
REMARK    6  A    between atoms: C_10  and  C_12
REMARK    7  A    between atoms: C_15  and  C_16
REMARK                            x       y       z     vdW  Elec       q    Type
REMARK                         _______ _______ _______ _____ _____    ______ ____
ROOT
ATOM      1  N   UNL     1       5.118   3.531  19.440  0.00  0.00    +0.000 N 
ATOM      2  C   UNL     1       5.328   4.031  18.170  0.00  0.00    +0.000 C 
ATOM      3  O   UNL     1       4.898   3.503  17.152  0.00  0.00    +0.000 OA
ATOM      4  H   UNL     1       5.753   3.833  20.168  0.00  0.00    +0.000 HD
ENDROOT
BRANCH   2   5
ATOM      5  C   UNL     1       6.153   5.270  18.080  0.00  0.00    +0.000 A 
ATOM      6  C   UNL     1       5.697   6.322  17.276  0.00  0.00    +0.000 A 
ATOM      7  C   UNL     1       6.430   7.510  17.186  0.00  0.00    +0.000 A 
ATOM      8  C   UNL     1       7.621   7.664  17.905  0.00  0.00    +0.000 A 
ATOM      9  C   UNL     1       8.406   8.941  17.831  0.00  0.00    +0.000 C 
ATOM     10  C   UNL     1       8.063   6.615  18.724  0.00  0.00    +0.000 A 
ATOM     11  C   UNL     1       7.335   5.424  18.812  0.00  0.00    +0.000 A 
ENDBRANCH   2   5
BRANCH   1  12
ATOM     12  C   UNL     1       4.390   2.287  19.653  0.00  0.00    +0.000 C 
BRANCH  12  13
ATOM     13  C   UNL     1       3.289   2.437  20.705  0.00  0.00    +0.000 C 
BRANCH  13  14
ATOM     14  O   UNL     1       2.076   2.835  20.061  0.00  0.00    +0.000 OA
BRANCH  14  19
ATOM     15  C   UNL     1       2.280   8.150  18.059  0.00  0.00    +0.000 C 
ATOM     16  C   UNL     1       2.202   6.743  18.576  0.00  0.00    +0.000 A 
ATOM     17  C   UNL     1       2.431   6.453  19.923  0.00  0.00    +0.000 A 
ATOM     18  C   UNL     1       2.375   5.133  20.382  0.00  0.00    +0.000 A 
ATOM     19  C   UNL     1       2.072   4.087  19.507  0.00  0.00    +0.000 A 
ATOM     20  C   UNL     1       1.846   4.373  18.159  0.00  0.00    +0.000 A 
ATOM     21  C   UNL     1       1.911   5.693  17.698  0.00  0.00    +0.000 A 
ENDBRANCH  14  19
ENDBRANCH  13  14
ENDBRANCH  12  13
ENDBRANCH   1  12
TORSDOF 5
ENDMDL
MODEL 2
REMARK VINA RESULT:      -7.0      3.317      4.780
REMARK  Name = 
REMARK  7 active torsions:
REMARK  status: ('A' for Active; 'I' for Inactive)
REMARK    1  A    between atoms: C_1  and  C_2
REMARK    2  A    between atoms: C_5  and  O_6
REMARK    3  A    between atoms: O_6  and  C_7
REMARK    4  A    between atoms: C_7  and  C_8
REMARK    5  A    between atoms: C_8  and  N_9
REMARK    6  A    between atoms: C_10  and  C_12
REMARK    7  A    between atoms: C_15  and  C_16
REMARK                            x       y       z     vdW  Elec       q    Type
REMARK                         _______ _______ _______ _____ _____    ______ ____
ROOT
ATOM      1  N   UNL     1       7.432   5.218  17.017  0.00  0.00    +0.000 N 
ATOM      2  C   UNL     1       6.626   5.754  16.032  0.00  0.00    +0.000 C 
ATOM      3  O   UNL     1       6.045   6.827  16.138  0.00  0.00    +0.000 OA
ATOM      4  H   UNL     1       7.605   4.222  16.983  0.00  0.00    +0.000 HD
ENDROOT
BRANCH   2   5
ATOM      5  C   UNL     1       6.460   4.932  14.798  0.00  0.00    +0.000 A 
ATOM      6  C   UNL     1       5.253   4.251  14.604  0.00  0.00    +0.000 A 
ATOM      7  C   UNL     1       5.051   3.490  13.447  0.00  0.00    +0.000 A 
ATOM      8  C   UNL     1       6.048   3.409  12.469  0.00  0.00    +0.000 A 
ATOM      9  C   UNL     1       5.834   2.611  11.216  0.00  0.00    +0.000 C 
ATOM     10  C   UNL     1       7.248   4.108  12.659  0.00  0.00    +0.000 A 
ATOM     11  C   UNL     1       7.455   4.866  13.817  0.00  0.00    +0.000 A 
ENDBRANCH   2   5
BRANCH   1  12
ATOM     12  C   UNL     1       7.614   5.892  18.295  0.00  0.00    +0.000 C 
BRANCH  12  13
ATOM     13  C   UNL     1       6.495   5.559  19.286  0.00  0.00    +0.000 C 
BRANCH  13  14
ATOM     14  O   UNL     1       6.187   4.167  19.196  0.00  0.00    +0.000 OA
BRANCH  14  19
ATOM     15  C   UNL     1       0.725   2.674  18.714  0.00  0.00    +0.000 C 
ATOM     16  C   UNL     1       2.170   3.068  18.814  0.00  0.00    +0.000 A 
ATOM     17  C   UNL     1       3.056   2.369  19.636  0.00  0.00    +0.000 A 
ATOM     18  C   UNL     1       4.394   2.765  19.732  0.00  0.00    +0.000 A 
ATOM     19  C   UNL     1       4.870   3.853  18.997  0.00  0.00    +0.000 A 
ATOM     20  C   UNL     1       3.986   4.557  18.178  0.00  0.00    +0.000 A 
ATOM     21  C   UNL     1       2.644   4.166  18.088  0.00  0.00    +0.000 A 
ENDBRANCH  14  19
ENDBRANCH  13  14
ENDBRANCH  12  13
ENDBRANCH   1  12
TORSDOF 5
ENDMDL
MODEL 3
REMARK VINA RESULT:      -6.9      1.371      1.676
REMARK  Name = 
REMARK  7 active torsions:
REMARK  status: ('A' for Active; 'I' for Inactive)
REMARK    1  A    between atoms: C_1  and  C_2
REMARK    2  A    between atoms: C_5  and  O_6
REMARK    3  A    between atoms: O_6  and  C_7
REMARK    4  A    between atoms: C_7  and  C_8
REMARK    5  A    between atoms: C_8  and  N_9
REMARK    6  A    between atoms: C_10  and  C_12
REMARK    7  A    between atoms: C_15  and  C_16
REMARK                            x       y       z     vdW  Elec       q    Type
REMARK                         _______ _______ _______ _____ _____    ______ ____
ROOT
ATOM      1  N   UNL     1       4.351   2.896  17.755  0.00  0.00    +0.000 N 
ATOM      2  C   UNL     1       5.038   3.489  18.796  0.00  0.00    +0.000 C 
ATOM      3  O   UNL     1       5.010   3.079  19.950  0.00  0.00    +0.000 OA
ATOM      4  H   UNL     1       4.174   3.462  16.935  0.00  0.00    +0.000 HD
ENDROOT
BRANCH   2   5
ATOM      5  C   UNL     1       5.823   4.711  18.455  0.00  0.00    +0.000 A 
ATOM      6  C   UNL     1       5.393   5.506  17.386  0.00  0.00    +0.000 A 
ATOM      7  C   UNL     1       6.088   6.673  17.051  0.00  0.00    +0.000 A 
ATOM      8  C   UNL     1       7.213   7.063  17.785  0.00  0.00    +0.000 A 
ATOM      9  C   UNL     1       7.954   8.323  17.447  0.00  0.00    +0.000 C 
ATOM     10  C   UNL     1       7.628   6.274  18.867  0.00  0.00    +0.000 A 
ATOM     11  C   UNL     1       6.938   5.104  19.202  0.00  0.00    +0.000 A 
ENDBRANCH   2   5
BRANCH   1  12
ATOM     12  C   UNL     1       3.492   1.741  17.976  0.00  0.00    +0.000 C 
BRANCH  12  13
ATOM     13  C   UNL     1       2.087   2.145  18.429  0.00  0.00    +0.000 C 
BRANCH  13  14
ATOM     14  O   UNL     1       1.697   3.335  17.740  0.00  0.00    +0.000 OA
BRANCH  14  19
ATOM     15  C   UNL     1       1.831   7.914  21.104  0.00  0.00    +0.000 C 
ATOM     16  C   UNL     1       1.781   6.719  20.197  0.00  0.00    +0.000 A 
ATOM     17  C   UNL     1       1.378   5.468  20.669  0.00  0.00    +0.000 A 
ATOM     18  C   UNL     1       1.358   4.361  19.814  0.00  0.00    +0.000 A 
ATOM     19  C   UNL     1       1.724   4.491  18.472  0.00  0.00    +0.000 A 
ATOM     20  C   UNL     1       2.131   5.739  17.997  0.00  0.00    +0.000 A 
ATOM     21  C   UNL     1       2.159   6.845  18.856  0.00  0.00    +0.000 A 
ENDBRANCH  14  19
ENDBRANCH  13  14
ENDBRANCH  12  13
ENDBRANCH   1  12
TORSDOF 5
ENDMDL
MODEL 4
REMARK VINA RESULT:      -6.9      1.873      2.758
REMARK  Name = 
REMARK  7 active torsions:
REMARK  status: ('A' for Active; 'I' for Inactive)
REMARK    1  A    between atoms: C_1  and  C_2
REMARK    2  A    between atoms: C_5  and  O_6
REMARK    3  A    between atoms: O_6  and  C_7
REMARK    4  A    between atoms: C_7  and  C_8
REMARK    5  A    between atoms: C_8  and  N_9
REMARK    6  A    between atoms: C_10  and  C_12
REMARK    7  A    between atoms: C_15  and  C_16
REMARK                            x       y       z     vdW  Elec       q    Type
REMARK                         _______ _______ _______ _____ _____    ______ ____
ROOT
ATOM      1  N   UNL     1       4.551   2.884  18.744  0.00  0.00    +0.000 N 
ATOM      2  C   UNL     1       5.218   4.079  18.555  0.00  0.00    +0.000 C 
ATOM      3  O   UNL     1       5.369   4.919  19.433  0.00  0.00    +0.000 OA
ATOM      4  H   UNL     1       4.203   2.413  17.919  0.00  0.00    +0.000 HD
ENDROOT
BRANCH   2   5
ATOM      5  C   UNL     1       5.743   4.328  17.181  0.00  0.00    +0.000 A 
ATOM      6  C   UNL     1       7.089   4.680  17.032  0.00  0.00    +0.000 A 
ATOM      7  C   UNL     1       7.624   4.897  15.757  0.00  0.00    +0.000 A 
ATOM      8  C   UNL     1       6.823   4.756  14.619  0.00  0.00    +0.000 A 
ATOM      9  C   UNL     1       7.391   4.967  13.246  0.00  0.00    +0.000 C 
ATOM     10  C   UNL     1       5.480   4.383  14.773  0.00  0.00    +0.000 A 
ATOM     11  C   UNL     1       4.941   4.171  16.046  0.00  0.00    +0.000 A 
ENDBRANCH   2   5
BRANCH   1  12
ATOM     12  C   UNL     1       3.931   2.558  20.021  0.00  0.00    +0.000 C 
BRANCH  12  13
ATOM     13  C   UNL     1       2.447   2.215  19.870  0.00  0.00    +0.000 C 
BRANCH  13  14
ATOM     14  O   UNL     1       1.661   3.287  20.395  0.00  0.00    +0.000 OA
BRANCH  14  19
ATOM     15  C   UNL     1       2.399   8.293  17.808  0.00  0.00    +0.000 C 
ATOM     16  C   UNL     1       2.228   6.975  18.505  0.00  0.00    +0.000 A 
ATOM     17  C   UNL     1       1.957   5.807  17.788  0.00  0.00    +0.000 A 
ATOM     18  C   UNL     1       1.779   4.591  18.457  0.00  0.00    +0.000 A 
ATOM     19  C   UNL     1       1.886   4.522  19.848  0.00  0.00    +0.000 A 
ATOM     20  C   UNL     1       2.152   5.688  20.568  0.00  0.00    +0.000 A 
ATOM     21  C   UNL     1       2.321   6.906  19.899  0.00  0.00    +0.000 A 
ENDBRANCH  14  19
ENDBRANCH  13  14
ENDBRANCH  12  13
ENDBRANCH   1  12
TORSDOF 5
ENDMDL
MODEL 5
REMARK VINA RESULT:      -6.9      3.378      4.816
REMARK  Name = 
REMARK  7 active torsions:
REMARK  status: ('A' for Active; 'I' for Inactive)
REMARK    1  A    between atoms: C_1  and  C_2
REMARK    2  A    between atoms: C_5  and  O_6
REMARK    3  A    between atoms: O_6  and  C_7
REMARK    4  A    between atoms: C_7  and  C_8
REMARK    5  A    between atoms: C_8  and  N_9
REMARK    6  A    between atoms: C_10  and  C_12
REMARK    7  A    between atoms: C_15  and  C_16
REMARK                            x       y       z     vdW  Elec       q    Type
REMARK                         _______ _______ _______ _____ _____    ______ ____
ROOT
ATOM      1  N   UNL     1       7.160   4.444  17.150  0.00  0.00    +0.000 N 
ATOM      2  C   UNL     1       7.205   5.234  16.018  0.00  0.00    +0.000 C 
ATOM      3  O   UNL     1       7.673   6.365  15.996  0.00  0.00    +0.000 OA
ATOM      4  H   UNL     1       6.493   3.684  17.159  0.00  0.00    +0.000 HD
ENDROOT
BRANCH   2   5
ATOM      5  C   UNL     1       6.614   4.644  14.782  0.00  0.00    +0.000 A 
ATOM      6  C   UNL     1       7.376   4.645  13.608  0.00  0.00    +0.000 A 
ATOM      7  C   UNL     1       6.865   4.078  12.435  0.00  0.00    +0.000 A 
ATOM      8  C   UNL     1       5.593   3.496  12.425  0.00  0.00    +0.000 A 
ATOM      9  C   UNL     1       5.043   2.869  11.178  0.00  0.00    +0.000 C 
ATOM     10  C   UNL     1       4.841   3.480  13.608  0.00  0.00    +0.000 A 
ATOM     11  C   UNL     1       5.347   4.051  14.781  0.00  0.00    +0.000 A 
ENDBRANCH   2   5
BRANCH   1  12
ATOM     12  C   UNL     1       7.640   4.936  18.434  0.00  0.00    +0.000 C 
BRANCH  12  13
ATOM     13  C   UNL     1       6.492   5.366  19.352  0.00  0.00    +0.000 C 
BRANCH  13  14
ATOM     14  O   UNL     1       5.356   5.708  18.554  0.00  0.00    +0.000 OA
BRANCH  14  19
ATOM     15  C   UNL     1       0.701   2.454  18.733  0.00  0.00    +0.000 C 
ATOM     16  C   UNL     1       1.930   3.315  18.713  0.00  0.00    +0.000 A 
ATOM     17  C   UNL     1       2.010   4.444  17.895  0.00  0.00    +0.000 A 
ATOM     18  C   UNL     1       3.172   5.222  17.875  0.00  0.00    +0.000 A 
ATOM     19  C   UNL     1       4.263   4.894  18.682  0.00  0.00    +0.000 A 
ATOM     20  C   UNL     1       4.189   3.763  19.498  0.00  0.00    +0.000 A 
ATOM     21  C   UNL     1       3.029   2.980  19.512  0.00  0.00    +0.000 A 
ENDBRANCH  14  19
ENDBRANCH  13  14
ENDBRANCH  12  13
ENDBRANCH   1  12
TORSDOF 5
ENDMDL
MODEL 6
REMARK VINA RESULT:      -6.9      0.147      1.090
REMARK  Name = 
REMARK  7 active torsions:
REMARK  status: ('A' for Active; 'I' for Inactive)
REMARK    1  A    between atoms: C_1  and  C_2
REMARK    2  A    between atoms: C_5  and  O_6
REMARK    3  A    between atoms: O_6  and  C_7
REMARK    4  A    between atoms: C_7  and  C_8
REMARK    5  A    between atoms: C_8  and  N_9
REMARK    6  A    between atoms: C_10  and  C_12
REMARK    7  A    between atoms: C_15  and  C_16
REMARK                            x       y       z     vdW  Elec       q    Type
REMARK                         _______ _______ _______ _____ _____    ______ ____
ROOT
ATOM      1  N   UNL     1       5.029   3.588  19.637  0.00  0.00    +0.000 N 
ATOM      2  C   UNL     1       5.250   4.017  18.343  0.00  0.00    +0.000 C 
ATOM      3  O   UNL     1       4.865   3.411  17.351  0.00  0.00    +0.000 OA
ATOM      4  H   UNL     1       5.635   3.959  20.358  0.00  0.00    +0.000 HD
ENDROOT
BRANCH   2   5
ATOM      5  C   UNL     1       6.031   5.279  18.193  0.00  0.00    +0.000 A 
ATOM      6  C   UNL     1       7.223   5.419  18.913  0.00  0.00    +0.000 A 
ATOM      7  C   UNL     1       7.996   6.577  18.779  0.00  0.00    +0.000 A 
ATOM      8  C   UNL     1       7.592   7.603  17.918  0.00  0.00    +0.000 A 
ATOM      9  C   UNL     1       8.422   8.842  17.753  0.00  0.00    +0.000 C 
ATOM     10  C   UNL     1       6.407   7.450  17.184  0.00  0.00    +0.000 A 
ATOM     11  C   UNL     1       5.630   6.295  17.319  0.00  0.00    +0.000 A 
ENDBRANCH   2   5
BRANCH   1  12
ATOM     12  C   UNL     1       4.343   2.333  19.912  0.00  0.00    +0.000 C 
BRANCH  12  13
ATOM     13  C   UNL     1       3.182   2.514  20.893  0.00  0.00    +0.000 C 
BRANCH  13  14
ATOM     14  O   UNL     1       2.003   2.866  20.165  0.00  0.00    +0.000 OA
BRANCH  14  19
ATOM     15  C   UNL     1       2.209   8.138  18.053  0.00  0.00    +0.000 C 
ATOM     16  C   UNL     1       2.131   6.742  18.598  0.00  0.00    +0.000 A 
ATOM     17  C   UNL     1       2.314   6.484  19.959  0.00  0.00    +0.000 A 
ATOM     18  C   UNL     1       2.258   5.174  20.445  0.00  0.00    +0.000 A 
ATOM     19  C   UNL     1       2.002   4.105  19.583  0.00  0.00    +0.000 A 
ATOM     20  C   UNL     1       1.823   4.358  18.221  0.00  0.00    +0.000 A 
ATOM     21  C   UNL     1       1.887   5.669  17.734  0.00  0.00    +0.000 A 
ENDBRANCH  14  19
ENDBRANCH  13  14
ENDBRANCH  12  13
ENDBRANCH   1  12
TORSDOF 5
ENDMDL
MODEL 7
REMARK VINA RESULT:      -6.8      1.234      1.998
REMARK  Name = 
REMARK  7 active torsions:
REMARK  status: ('A' for Active; 'I' for Inactive)
REMARK    1  A    between atoms: C_1  and  C_2
REMARK    2  A    between atoms: C_5  and  O_6
REMARK    3  A    between atoms: O_6  and  C_7
REMARK    4  A    between atoms: C_7  and  C_8
REMARK    5  A    between atoms: C_8  and  N_9
REMARK    6  A    between atoms: C_10  and  C_12
REMARK    7  A    between atoms: C_15  and  C_16
REMARK                            x       y       z     vdW  Elec       q    Type
REMARK                         _______ _______ _______ _____ _____    ______ ____
ROOT
ATOM      1  N   UNL     1       4.581   3.044  17.709  0.00  0.00    +0.000 N 
ATOM      2  C   UNL     1       5.201   3.666  18.776  0.00  0.00    +0.000 C 
ATOM      3  O   UNL     1       5.170   3.240  19.923  0.00  0.00    +0.000 OA
ATOM      4  H   UNL     1       4.389   3.608  16.892  0.00  0.00    +0.000 HD
ENDROOT
BRANCH   2   5
ATOM      5  C   UNL     1       5.912   4.941  18.469  0.00  0.00    +0.000 A 
ATOM      6  C   UNL     1       7.101   5.225  19.150  0.00  0.00    +0.000 A 
ATOM      7  C   UNL     1       7.810   6.399  18.872  0.00  0.00    +0.000 A 
ATOM      8  C   UNL     1       7.344   7.296  17.904  0.00  0.00    +0.000 A 
ATOM      9  C   UNL     1       8.107   8.548  17.584  0.00  0.00    +0.000 C 
ATOM     10  C   UNL     1       6.163   6.997  17.210  0.00  0.00    +0.000 A 
ATOM     11  C   UNL     1       5.449   5.827  17.490  0.00  0.00    +0.000 A 
ENDBRANCH   2   5
BRANCH   1  12
ATOM     12  C   UNL     1       3.795   1.832  17.894  0.00  0.00    +0.000 C 
BRANCH  12  13
ATOM     13  C   UNL     1       2.301   2.074  17.664  0.00  0.00    +0.000 C 
BRANCH  13  14
ATOM     14  O   UNL     1       1.699   2.493  18.891  0.00  0.00    +0.000 OA
BRANCH  14  19
ATOM     15  C   UNL     1       2.000   8.098  19.776  0.00  0.00    +0.000 C 
ATOM     16  C   UNL     1       1.942   6.614  19.559  0.00  0.00    +0.000 A 
ATOM     17  C   UNL     1       1.923   6.070  18.273  0.00  0.00    +0.000 A 
ATOM     18  C   UNL     1       1.846   4.685  18.092  0.00  0.00    +0.000 A 
ATOM     19  C   UNL     1       1.805   3.824  19.191  0.00  0.00    +0.000 A 
ATOM     20  C   UNL     1       1.819   4.364  20.478  0.00  0.00    +0.000 A 
ATOM     21  C   UNL     1       1.887   5.751  20.659  0.00  0.00    +0.000 A 
ENDBRANCH  14  19
ENDBRANCH  13  14
ENDBRANCH  12  13
ENDBRANCH   1  12
TORSDOF 5
ENDMDL
MODEL 8
REMARK VINA RESULT:      -6.7      1.628      4.970
REMARK  Name = 
REMARK  7 active torsions:
REMARK  status: ('A' for Active; 'I' for Inactive)
REMARK    1  A    between atoms: C_1  and  C_2
REMARK    2  A    between atoms: C_5  and  O_6
REMARK    3  A    between atoms: O_6  and  C_7
REMARK    4  A    between atoms: C_7  and  C_8
REMARK    5  A    between atoms: C_8  and  N_9
REMARK    6  A    between atoms: C_10  and  C_12
REMARK    7  A    between atoms: C_15  and  C_16
REMARK                            x       y       z     vdW  Elec       q    Type
REMARK                         _______ _______ _______ _____ _____    ______ ____
ROOT
ATOM      1  N   UNL     1       2.313   4.686  18.114  0.00  0.00    +0.000 N 
ATOM      2  C   UNL     1       2.707   5.473  19.179  0.00  0.00    +0.000 C 
ATOM      3  O   UNL     1       3.358   5.056  20.128  0.00  0.00    +0.000 OA
ATOM      4  H   UNL     1       1.536   5.016  17.557  0.00  0.00    +0.000 HD
ENDROOT
BRANCH   2   5
ATOM      5  C   UNL     1       2.269   6.898  19.140  0.00  0.00    +0.000 A 
ATOM      6  C   UNL     1       2.348   7.590  17.926  0.00  0.00    +0.000 A 
ATOM      7  C   UNL     1       1.923   8.920  17.843  0.00  0.00    +0.000 A 
ATOM      8  C   UNL     1       1.406   9.570  18.969  0.00  0.00    +0.000 A 
ATOM      9  C   UNL     1       0.929  10.991  18.887  0.00  0.00    +0.000 C 
ATOM     10  C   UNL     1       1.310   8.867  20.178  0.00  0.00    +0.000 A 
ATOM     11  C   UNL     1       1.739   7.538  20.265  0.00  0.00    +0.000 A 
ENDBRANCH   2   5
BRANCH   1  12
ATOM     12  C   UNL     1       2.617   3.262  18.073  0.00  0.00    +0.000 C 
BRANCH  12  13
ATOM     13  C   UNL     1       4.123   2.996  18.013  0.00  0.00    +0.000 C 
BRANCH  13  14
ATOM     14  O   UNL     1       4.667   3.636  16.857  0.00  0.00    +0.000 OA
BRANCH  14  19
ATOM     15  C   UNL     1       7.952   8.190  17.735  0.00  0.00    +0.000 C 
ATOM     16  C   UNL     1       7.107   6.972  17.496  0.00  0.00    +0.000 A 
ATOM     17  C   UNL     1       5.975   7.025  16.680  0.00  0.00    +0.000 A 
ATOM     18  C   UNL     1       5.187   5.886  16.487  0.00  0.00    +0.000 A 
ATOM     19  C   UNL     1       5.529   4.674  17.092  0.00  0.00    +0.000 A 
ATOM     20  C   UNL     1       6.657   4.617  17.911  0.00  0.00    +0.000 A 
ATOM     21  C   UNL     1       7.441   5.761  18.111  0.00  0.00    +0.000 A 
ENDBRANCH  14  19
ENDBRANCH  13  14
ENDBRANCH  12  13
ENDBRANCH   1  12
TORSDOF 5
ENDMDL
MODEL 9
REMARK VINA RESULT:      -6.7      3.347      6.478
REMARK  Name = 
REMARK  7 active torsions:
REMARK  status: ('A' for Active; 'I' for Inactive)
REMARK    1  A    between atoms: C_1  and  C_2
REMARK    2  A    between atoms: C_5  and  O_6
REMARK    3  A    between atoms: O_6  and  C_7
REMARK    4  A    between atoms: C_7  and  C_8
REMARK    5  A    between atoms: C_8  and  N_9
REMARK    6  A    between atoms: C_10  and  C_12
REMARK    7  A    between atoms: C_15  and  C_16
REMARK                            x       y       z     vdW  Elec       q    Type
REMARK                         _______ _______ _______ _____ _____    ______ ____
ROOT
ATOM      1  N   UNL     1       6.240   5.296  18.675  0.00  0.00    +0.000 N 
ATOM      2  C   UNL     1       4.888   5.394  18.408  0.00  0.00    +0.000 C 
ATOM      3  O   UNL     1       4.422   6.055  17.489  0.00  0.00    +0.000 OA
ATOM      4  H   UNL     1       6.509   5.007  19.606  0.00  0.00    +0.000 HD
ENDROOT
BRANCH   2   5
ATOM      5  C   UNL     1       3.980   4.659  19.337  0.00  0.00    +0.000 A 
ATOM      6  C   UNL     1       2.856   5.323  19.840  0.00  0.00    +0.000 A 
ATOM      7  C   UNL     1       1.968   4.659  20.693  0.00  0.00    +0.000 A 
ATOM      8  C   UNL     1       2.188   3.323  21.044  0.00  0.00    +0.000 A 
ATOM      9  C   UNL     1       1.232   2.595  21.943  0.00  0.00    +0.000 C 
ATOM     10  C   UNL     1       3.305   2.655  20.521  0.00  0.00    +0.000 A 
ATOM     11  C   UNL     1       4.197   3.318  19.672  0.00  0.00    +0.000 A 
ENDBRANCH   2   5
BRANCH   1  12
ATOM     12  C   UNL     1       7.221   6.026  17.884  0.00  0.00    +0.000 C 
BRANCH  12  13
ATOM     13  C   UNL     1       7.703   5.219  16.676  0.00  0.00    +0.000 C 
BRANCH  13  14
ATOM     14  O   UNL     1       7.279   5.870  15.477  0.00  0.00    +0.000 OA
BRANCH  14  19
ATOM     15  C   UNL     1       5.298   2.483  11.366  0.00  0.00    +0.000 C 
ATOM     16  C   UNL     1       5.846   3.365  12.449  0.00  0.00    +0.000 A 
ATOM     17  C   UNL     1       5.178   3.516  13.667  0.00  0.00    +0.000 A 
ATOM     18  C   UNL     1       5.693   4.360  14.657  0.00  0.00    +0.000 A 
ATOM     19  C   UNL     1       6.890   5.050  14.452  0.00  0.00    +0.000 A 
ATOM     20  C   UNL     1       7.558   4.906  13.235  0.00  0.00    +0.000 A 
ATOM     21  C   UNL     1       7.038   4.067  12.241  0.00  0.00    +0.000 A 
ENDBRANCH  14  19
ENDBRANCH  13  14
ENDBRANCH  12  13
ENDBRANCH   1  12
TORSDOF 5
ENDMDL
