MODEL 1
REMARK VINA RESULT:      -6.7      0.000      0.000
REMARK  Name = 
REMARK  11 active torsions:
REMARK  status: ('A' for Active; 'I' for Inactive)
REMARK    1  A    between atoms: N_1  and  S_2
REMARK    2  A    between atoms: S_2  and  C_5
REMARK    3  A    between atoms: C_10  and  C_12
REMARK    4  A    between atoms: C_12  and  C_13
REMARK    5  A    between atoms: C_13  and  C_14
REMARK    6  A    between atoms: C_14  and  C_15
REMARK    7  A    between atoms: C_15  and  C_16
REMARK    8  A    between atoms: C_16  and  C_17
REMARK    9  A    between atoms: C_17  and  C_18
REMARK   10  A    between atoms: C_18  and  C_19
REMARK   11  A    between atoms: C_19  and  O_21
REMARK                            x       y       z     vdW  Elec       q    Type
REMARK                         _______ _______ _______ _____ _____    ______ ____
ROOT
ATOM      1  C   UNL     1       3.286   3.936  18.739  0.00  0.00    +0.000 A 
ATOM      2  N   UNL     1       4.237   3.307  19.402  0.00  0.00    +0.000 NA
ATOM      3  N   UNL     1       5.452   3.975  19.283  0.00  0.00    +0.000 NA
ATOM      4  C   UNL     1       5.359   5.034  18.503  0.00  0.00    +0.000 A 
ATOM      5  N   UNL     1       6.420   5.870  18.223  0.00  0.00    +0.000 N 
ATOM      6  C   UNL     1       6.448   6.765  17.168  0.00  0.00    +0.000 C 
ATOM      7  O   UNL     1       5.566   6.939  16.344  0.00  0.00    +0.000 OA
ATOM      8  S   UNL     1       3.773   5.360  17.952  0.00  0.00    +0.000 S 
ATOM      9  H   UNL     1       7.244   5.712  18.784  0.00  0.00    +0.000 HD
ENDROOT
BRANCH   1  10
ATOM     10  S   UNL     1       1.607   3.435  18.566  0.00  0.00    +0.000 S 
ATOM     11  O   UNL     1       1.165   3.876  17.266  0.00  0.00    +0.000 OA
ATOM     12  O   UNL     1       0.924   3.828  19.783  0.00  0.00    +0.000 OA
BRANCH  10  13
ATOM     13  N   UNL     1       1.531   1.748  18.556  0.00  0.00    +0.000 NA
ATOM     14  H   UNL     1       0.653   1.455  18.129  0.00  0.00    +0.000 HD
ATOM     15  H   UNL     1       1.633   1.382  19.504  0.00  0.00    +0.000 HD
ENDBRANCH  10  13
ENDBRANCH   1  10
BRANCH   6  16
ATOM     16  C   UNL     1       7.773   7.502  17.025  0.00  0.00    +0.000 C 
BRANCH  16  17
ATOM     17  C   UNL     1       8.073   8.282  18.301  0.00  0.00    +0.000 C 
BRANCH  17  18
ATOM     18  C   UNL     1       8.475   9.739  18.060  0.00  0.00    +0.000 C 
BRANCH  18  19
ATOM     19  C   UNL     1       9.214  10.289  19.285  0.00  0.00    +0.000 C 
BRANCH  19  20
ATOM     20  C   UNL     1      10.448  11.101  18.890  0.00  0.00    +0.000 C 
BRANCH  20  21
ATOM     21  C   UNL     1      10.100  12.141  17.824  0.00  0.00    +0.000 C 
BRANCH  21  22
ATOM     22  C   UNL     1      11.327  12.934  17.377  0.00  0.00    +0.000 C 
BRANCH  22  23
ATOM     23  C   UNL     1      11.161  14.410  17.662  0.00  0.00    +0.000 C 
ATOM     24  O   UNL     1      11.147  15.294  16.820  0.00  0.00    +0.000 OA
BRANCH  23  25
ATOM     25  O   UNL     1      11.026  14.669  18.983  0.00  0.00    +0.000 OA
ATOM     26  H   UNL     1      10.716  13.908  19.506  0.00  0.00    +0.000 HD
ENDBRANCH  23  25
ENDBRANCH  22  23
ENDBRANCH  21  22
ENDBRANCH  20  21
ENDBRANCH  19  20
ENDBRANCH  18  19
ENDBRANCH  17  18
ENDBRANCH  16  17
ENDBRANCH   6  16
TORSDOF 11
ENDMDL
MODEL 2
REMARK VINA RESULT:      -6.5      6.432      9.130
REMARK  Name = 
REMARK  11 active torsions:
REMARK  status: ('A' for Active; 'I' for Inactive)
REMARK    1  A    between atoms: N_1  and  S_2
REMARK    2  A    between atoms: S_2  and  C_5
REMARK    3  A    between atoms: C_10  and  C_12
REMARK    4  A    between atoms: C_12  and  C_13
REMARK    5  A    between atoms: C_13  and  C_14
REMARK    6  A    between atoms: C_14  and  C_15
REMARK    7  A    between atoms: C_15  and  C_16
REMARK    8  A    between atoms: C_16  and  C_17
REMARK    9  A    between atoms: C_17  and  C_18
REMARK   10  A    between atoms: C_18  and  C_19
REMARK   11  A    between atoms: C_19  and  O_21
REMARK                            x       y       z     vdW  Elec       q    Type
REMARK                         _______ _______ _______ _____ _____    ______ ____
ROOT
ATOM      1  C   UNL     1       1.198   9.396  19.767  0.00  0.00    +0.000 A 
ATOM      2  N   UNL     1       1.326  10.089  18.652  0.00  0.00    +0.000 NA
ATOM      3  N   UNL     1       2.026   9.362  17.693  0.00  0.00    +0.000 NA
ATOM      4  C   UNL     1       2.425   8.193  18.153  0.00  0.00    +0.000 A 
ATOM      5  N   UNL     1       3.136   7.281  17.402  0.00  0.00    +0.000 N 
ATOM      6  C   UNL     1       3.850   6.222  17.935  0.00  0.00    +0.000 C 
ATOM      7  O   UNL     1       3.962   5.948  19.118  0.00  0.00    +0.000 OA
ATOM      8  S   UNL     1       1.884   7.843  19.737  0.00  0.00    +0.000 S 
ATOM      9  H   UNL     1       3.197   7.496  16.418  0.00  0.00    +0.000 HD
ENDROOT
BRANCH   1  10
ATOM     10  S   UNL     1       0.431   9.928  21.260  0.00  0.00    +0.000 S 
ATOM     11  O   UNL     1      -0.452  11.016  20.919  0.00  0.00    +0.000 OA
ATOM     12  O   UNL     1       1.486  10.075  22.244  0.00  0.00    +0.000 OA
BRANCH  10  13
ATOM     13  N   UNL     1      -0.542   8.683  21.855  0.00  0.00    +0.000 NA
ATOM     14  H   UNL     1      -1.490   8.800  21.496  0.00  0.00    +0.000 HD
ATOM     15  H   UNL     1      -0.522   8.674  22.876  0.00  0.00    +0.000 HD
ENDBRANCH  10  13
ENDBRANCH   1  10
BRANCH   6  16
ATOM     16  C   UNL     1       4.623   5.419  16.897  0.00  0.00    +0.000 C 
BRANCH  16  17
ATOM     17  C   UNL     1       4.478   3.927  17.181  0.00  0.00    +0.000 C 
BRANCH  17  18
ATOM     18  C   UNL     1       3.028   3.438  17.210  0.00  0.00    +0.000 C 
BRANCH  18  19
ATOM     19  C   UNL     1       2.962   2.032  17.818  0.00  0.00    +0.000 C 
BRANCH  19  20
ATOM     20  C   UNL     1       2.325   2.043  19.208  0.00  0.00    +0.000 C 
BRANCH  20  21
ATOM     21  C   UNL     1       0.948   2.708  19.175  0.00  0.00    +0.000 C 
BRANCH  21  22
ATOM     22  C   UNL     1       0.855   3.880  20.150  0.00  0.00    +0.000 C 
BRANCH  22  23
ATOM     23  C   UNL     1       1.814   3.708  21.308  0.00  0.00    +0.000 C 
ATOM     24  O   UNL     1       1.820   2.767  22.085  0.00  0.00    +0.000 OA
BRANCH  23  25
ATOM     25  O   UNL     1       2.694   4.731  21.407  0.00  0.00    +0.000 OA
ATOM     26  H   UNL     1       3.263   4.841  20.624  0.00  0.00    +0.000 HD
ENDBRANCH  23  25
ENDBRANCH  22  23
ENDBRANCH  21  22
ENDBRANCH  20  21
ENDBRANCH  19  20
ENDBRANCH  18  19
ENDBRANCH  17  18
ENDBRANCH  16  17
ENDBRANCH   6  16
TORSDOF 11
ENDMDL
MODEL 3
REMARK VINA RESULT:      -6.5      6.287      9.051
REMARK  Name = 
REMARK  11 active torsions:
REMARK  status: ('A' for Active; 'I' for Inactive)
REMARK    1  A    between atoms: N_1  and  S_2
REMARK    2  A    between atoms: S_2  and  C_5
REMARK    3  A    between atoms: C_10  and  C_12
REMARK    4  A    between atoms: C_12  and  C_13
REMARK    5  A    between atoms: C_13  and  C_14
REMARK    6  A    between atoms: C_14  and  C_15
REMARK    7  A    between atoms: C_15  and  C_16
REMARK    8  A    between atoms: C_16  and  C_17
REMARK    9  A    between atoms: C_17  and  C_18
REMARK   10  A    between atoms: C_18  and  C_19
REMARK   11  A    between atoms: C_19  and  O_21
REMARK                            x       y       z     vdW  Elec       q    Type
REMARK                         _______ _______ _______ _____ _____    ______ ____
ROOT
ATOM      1  C   UNL     1       6.597   4.461  14.006  0.00  0.00    +0.000 A 
ATOM      2  N   UNL     1       7.554   5.256  14.442  0.00  0.00    +0.000 NA
ATOM      3  N   UNL     1       7.324   5.634  15.761  0.00  0.00    +0.000 NA
ATOM      4  C   UNL     1       6.190   5.148  16.224  0.00  0.00    +0.000 A 
ATOM      5  N   UNL     1       5.730   5.373  17.504  0.00  0.00    +0.000 N 
ATOM      6  C   UNL     1       4.420   5.175  17.908  0.00  0.00    +0.000 C 
ATOM      7  O   UNL     1       3.500   4.789  17.207  0.00  0.00    +0.000 OA
ATOM      8  S   UNL     1       5.380   4.106  15.136  0.00  0.00    +0.000 S 
ATOM      9  H   UNL     1       6.397   5.806  18.125  0.00  0.00    +0.000 HD
ENDROOT
BRANCH   1  10
ATOM     10  S   UNL     1       6.443   3.776  12.390  0.00  0.00    +0.000 S 
ATOM     11  O   UNL     1       6.751   2.371  12.496  0.00  0.00    +0.000 OA
ATOM     12  O   UNL     1       7.164   4.655  11.491  0.00  0.00    +0.000 OA
BRANCH  10  13
ATOM     13  N   UNL     1       4.832   3.882  11.896  0.00  0.00    +0.000 NA
ATOM     14  H   UNL     1       4.758   3.566  10.930  0.00  0.00    +0.000 HD
ATOM     15  H   UNL     1       4.488   4.836  12.011  0.00  0.00    +0.000 HD
ENDBRANCH  10  13
ENDBRANCH   1  10
BRANCH   6  16
ATOM     16  C   UNL     1       4.153   5.587  19.349  0.00  0.00    +0.000 C 
BRANCH  16  17
ATOM     17  C   UNL     1       2.970   6.550  19.402  0.00  0.00    +0.000 C 
BRANCH  17  18
ATOM     18  C   UNL     1       1.821   6.073  20.295  0.00  0.00    +0.000 C 
BRANCH  18  19
ATOM     19  C   UNL     1       2.197   4.749  20.970  0.00  0.00    +0.000 C 
BRANCH  19  20
ATOM     20  C   UNL     1       1.178   3.649  20.672  0.00  0.00    +0.000 C 
BRANCH  20  21
ATOM     21  C   UNL     1       1.307   3.159  19.229  0.00  0.00    +0.000 C 
BRANCH  21  22
ATOM     22  C   UNL     1       1.953   1.776  19.150  0.00  0.00    +0.000 C 
BRANCH  22  23
ATOM     23  C   UNL     1       3.456   1.880  19.015  0.00  0.00    +0.000 C 
ATOM     24  O   UNL     1       4.237   2.053  19.937  0.00  0.00    +0.000 OA
BRANCH  23  25
ATOM     25  O   UNL     1       3.870   1.760  17.732  0.00  0.00    +0.000 OA
ATOM     26  H   UNL     1       3.446   1.030  17.246  0.00  0.00    +0.000 HD
ENDBRANCH  23  25
ENDBRANCH  22  23
ENDBRANCH  21  22
ENDBRANCH  20  21
ENDBRANCH  19  20
ENDBRANCH  18  19
ENDBRANCH  17  18
ENDBRANCH  16  17
ENDBRANCH   6  16
TORSDOF 11
ENDMDL
MODEL 4
REMARK VINA RESULT:      -6.5      1.861      2.142
REMARK  Name = 
REMARK  11 active torsions:
REMARK  status: ('A' for Active; 'I' for Inactive)
REMARK    1  A    between atoms: N_1  and  S_2
REMARK    2  A    between atoms: S_2  and  C_5
REMARK    3  A    between atoms: C_10  and  C_12
REMARK    4  A    between atoms: C_12  and  C_13
REMARK    5  A    between atoms: C_13  and  C_14
REMARK    6  A    between atoms: C_14  and  C_15
REMARK    7  A    between atoms: C_15  and  C_16
REMARK    8  A    between atoms: C_16  and  C_17
REMARK    9  A    between atoms: C_17  and  C_18
REMARK   10  A    between atoms: C_18  and  C_19
REMARK   11  A    between atoms: C_19  and  O_21
REMARK                            x       y       z     vdW  Elec       q    Type
REMARK                         _______ _______ _______ _____ _____    ______ ____
ROOT
ATOM      1  C   UNL     1       2.801   3.998  18.761  0.00  0.00    +0.000 A 
ATOM      2  N   UNL     1       2.465   4.915  17.876  0.00  0.00    +0.000 NA
ATOM      3  N   UNL     1       3.565   5.691  17.523  0.00  0.00    +0.000 NA
ATOM      4  C   UNL     1       4.647   5.349  18.193  0.00  0.00    +0.000 A 
ATOM      5  N   UNL     1       5.872   5.961  18.028  0.00  0.00    +0.000 N 
ATOM      6  C   UNL     1       6.917   5.868  18.931  0.00  0.00    +0.000 C 
ATOM      7  O   UNL     1       6.909   5.253  19.985  0.00  0.00    +0.000 OA
ATOM      8  S   UNL     1       4.438   3.992  19.213  0.00  0.00    +0.000 S 
ATOM      9  H   UNL     1       5.931   6.588  17.240  0.00  0.00    +0.000 HD
ENDROOT
BRANCH   1  10
ATOM     10  S   UNL     1       1.732   2.827  19.529  0.00  0.00    +0.000 S 
ATOM     11  O   UNL     1       2.513   2.128  20.519  0.00  0.00    +0.000 OA
ATOM     12  O   UNL     1       1.040   2.129  18.464  0.00  0.00    +0.000 OA
BRANCH  10  13
ATOM     13  N   UNL     1       0.518   3.651  20.364  0.00  0.00    +0.000 NA
ATOM     14  H   UNL     1       0.778   4.634  20.446  0.00  0.00    +0.000 HD
ATOM     15  H   UNL     1       0.363   3.223  21.278  0.00  0.00    +0.000 HD
ENDBRANCH  10  13
ENDBRANCH   1  10
BRANCH   6  16
ATOM     16  C   UNL     1       8.127   6.714  18.559  0.00  0.00    +0.000 C 
BRANCH  16  17
ATOM     17  C   UNL     1       7.778   7.632  17.391  0.00  0.00    +0.000 C 
BRANCH  17  18
ATOM     18  C   UNL     1       7.601   9.101  17.786  0.00  0.00    +0.000 C 
BRANCH  18  19
ATOM     19  C   UNL     1       8.856   9.604  18.507  0.00  0.00    +0.000 C 
BRANCH  19  20
ATOM     20  C   UNL     1       9.118  11.084  18.229  0.00  0.00    +0.000 C 
BRANCH  20  21
ATOM     21  C   UNL     1      10.575  11.316  17.826  0.00  0.00    +0.000 C 
BRANCH  21  22
ATOM     22  C   UNL     1      10.861  12.789  17.535  0.00  0.00    +0.000 C 
BRANCH  22  23
ATOM     23  C   UNL     1      10.567  13.654  18.741  0.00  0.00    +0.000 C 
ATOM     24  O   UNL     1      11.090  13.536  19.838  0.00  0.00    +0.000 OA
BRANCH  23  25
ATOM     25  O   UNL     1       9.638  14.603  18.483  0.00  0.00    +0.000 OA
ATOM     26  H   UNL     1       9.875  15.201  17.751  0.00  0.00    +0.000 HD
ENDBRANCH  23  25
ENDBRANCH  22  23
ENDBRANCH  21  22
ENDBRANCH  20  21
ENDBRANCH  19  20
ENDBRANCH  18  19
ENDBRANCH  17  18
ENDBRANCH  16  17
ENDBRANCH   6  16
TORSDOF 11
ENDMDL
MODEL 5
REMARK VINA RESULT:      -6.5      5.706      7.675
REMARK  Name = 
REMARK  11 active torsions:
REMARK  status: ('A' for Active; 'I' for Inactive)
REMARK    1  A    between atoms: N_1  and  S_2
REMARK    2  A    between atoms: S_2  and  C_5
REMARK    3  A    between atoms: C_10  and  C_12
REMARK    4  A    between atoms: C_12  and  C_13
REMARK    5  A    between atoms: C_13  and  C_14
REMARK    6  A    between atoms: C_14  and  C_15
REMARK    7  A    between atoms: C_15  and  C_16
REMARK    8  A    between atoms: C_16  and  C_17
REMARK    9  A    between atoms: C_17  and  C_18
REMARK   10  A    between atoms: C_18  and  C_19
REMARK   11  A    between atoms: C_19  and  O_21
REMARK                            x       y       z     vdW  Elec       q    Type
REMARK                         _______ _______ _______ _____ _____    ______ ____
ROOT
ATOM      1  C   UNL     1       6.638   4.707  16.182  0.00  0.00    +0.000 A 
ATOM      2  N   UNL     1       7.410   5.200  17.130  0.00  0.00    +0.000 NA
ATOM      3  N   UNL     1       7.036   4.713  18.379  0.00  0.00    +0.000 NA
ATOM      4  C   UNL     1       5.981   3.925  18.307  0.00  0.00    +0.000 A 
ATOM      5  N   UNL     1       5.412   3.312  19.403  0.00  0.00    +0.000 N 
ATOM      6  C   UNL     1       4.137   2.771  19.418  0.00  0.00    +0.000 C 
ATOM      7  O   UNL     1       3.345   2.765  18.491  0.00  0.00    +0.000 OA
ATOM      8  S   UNL     1       5.438   3.628  16.713  0.00  0.00    +0.000 S 
ATOM      9  H   UNL     1       5.952   3.374  20.253  0.00  0.00    +0.000 HD
ENDROOT
BRANCH   1  10
ATOM     10  S   UNL     1       6.707   5.076  14.461  0.00  0.00    +0.000 S 
ATOM     11  O   UNL     1       8.060   5.486  14.171  0.00  0.00    +0.000 OA
ATOM     12  O   UNL     1       5.569   5.924  14.168  0.00  0.00    +0.000 OA
BRANCH  10  13
ATOM     13  N   UNL     1       6.431   3.663  13.580  0.00  0.00    +0.000 NA
ATOM     14  H   UNL     1       6.448   2.865  14.215  0.00  0.00    +0.000 HD
ATOM     15  H   UNL     1       7.122   3.569  12.834  0.00  0.00    +0.000 HD
ENDBRANCH  10  13
ENDBRANCH   1  10
BRANCH   6  16
ATOM     16  C   UNL     1       3.714   2.237  20.779  0.00  0.00    +0.000 C 
BRANCH  16  17
ATOM     17  C   UNL     1       2.213   2.435  20.971  0.00  0.00    +0.000 C 
BRANCH  17  18
ATOM     18  C   UNL     1       1.836   3.795  21.564  0.00  0.00    +0.000 C 
BRANCH  18  19
ATOM     19  C   UNL     1       1.108   4.640  20.513  0.00  0.00    +0.000 C 
BRANCH  19  20
ATOM     20  C   UNL     1       1.623   6.080  20.483  0.00  0.00    +0.000 C 
BRANCH  20  21
ATOM     21  C   UNL     1       2.941   6.175  19.713  0.00  0.00    +0.000 C 
BRANCH  21  22
ATOM     22  C   UNL     1       2.721   6.178  18.201  0.00  0.00    +0.000 C 
BRANCH  22  23
ATOM     23  C   UNL     1       3.469   7.315  17.540  0.00  0.00    +0.000 C 
ATOM     24  O   UNL     1       4.631   7.273  17.169  0.00  0.00    +0.000 OA
BRANCH  23  25
ATOM     25  O   UNL     1       2.705   8.421  17.394  0.00  0.00    +0.000 OA
ATOM     26  H   UNL     1       3.132   9.134  16.885  0.00  0.00    +0.000 HD
ENDBRANCH  23  25
ENDBRANCH  22  23
ENDBRANCH  21  22
ENDBRANCH  20  21
ENDBRANCH  19  20
ENDBRANCH  18  19
ENDBRANCH  17  18
ENDBRANCH  16  17
ENDBRANCH   6  16
TORSDOF 11
ENDMDL
MODEL 6
REMARK VINA RESULT:      -6.4      1.045      1.278
REMARK  Name = 
REMARK  11 active torsions:
REMARK  status: ('A' for Active; 'I' for Inactive)
REMARK    1  A    between atoms: N_1  and  S_2
REMARK    2  A    between atoms: S_2  and  C_5
REMARK    3  A    between atoms: C_10  and  C_12
REMARK    4  A    between atoms: C_12  and  C_13
REMARK    5  A    between atoms: C_13  and  C_14
REMARK    6  A    between atoms: C_14  and  C_15
REMARK    7  A    between atoms: C_15  and  C_16
REMARK    8  A    between atoms: C_16  and  C_17
REMARK    9  A    between atoms: C_17  and  C_18
REMARK   10  A    between atoms: C_18  and  C_19
REMARK   11  A    between atoms: C_19  and  O_21
REMARK                            x       y       z     vdW  Elec       q    Type
REMARK                         _______ _______ _______ _____ _____    ______ ____
ROOT
ATOM      1  C   UNL     1       3.210   3.993  18.921  0.00  0.00    +0.000 A 
ATOM      2  N   UNL     1       4.080   3.711  19.871  0.00  0.00    +0.000 NA
ATOM      3  N   UNL     1       5.231   4.482  19.737  0.00  0.00    +0.000 NA
ATOM      4  C   UNL     1       5.184   5.259  18.673  0.00  0.00    +0.000 A 
ATOM      5  N   UNL     1       6.197   6.122  18.315  0.00  0.00    +0.000 N 
ATOM      6  C   UNL     1       6.333   6.684  17.056  0.00  0.00    +0.000 C 
ATOM      7  O   UNL     1       5.601   6.498  16.100  0.00  0.00    +0.000 OA
ATOM      8  S   UNL     1       3.700   5.196  17.826  0.00  0.00    +0.000 S 
ATOM      9  H   UNL     1       6.918   6.243  19.010  0.00  0.00    +0.000 HD
ENDROOT
BRANCH   1  10
ATOM     10  S   UNL     1       1.641   3.236  18.663  0.00  0.00    +0.000 S 
ATOM     11  O   UNL     1       1.873   1.819  18.526  0.00  0.00    +0.000 OA
ATOM     12  O   UNL     1       0.967   4.007  17.638  0.00  0.00    +0.000 OA
BRANCH  10  13
ATOM     13  N   UNL     1       0.695   3.439  20.047  0.00  0.00    +0.000 NA
ATOM     14  H   UNL     1       1.024   2.802  20.773  0.00  0.00    +0.000 HD
ATOM     15  H   UNL     1      -0.291   3.289  19.828  0.00  0.00    +0.000 HD
ENDBRANCH  10  13
ENDBRANCH   1  10
BRANCH   6  16
ATOM     16  C   UNL     1       7.590   7.528  16.895  0.00  0.00    +0.000 C 
BRANCH  16  17
ATOM     17  C   UNL     1       7.928   8.214  18.215  0.00  0.00    +0.000 C 
BRANCH  17  18
ATOM     18  C   UNL     1       8.630   9.565  18.053  0.00  0.00    +0.000 C 
BRANCH  18  19
ATOM     19  C   UNL     1       8.997  10.133  19.428  0.00  0.00    +0.000 C 
BRANCH  19  20
ATOM     20  C   UNL     1      10.205  11.067  19.355  0.00  0.00    +0.000 C 
BRANCH  20  21
ATOM     21  C   UNL     1      10.391  11.611  17.938  0.00  0.00    +0.000 C 
BRANCH  21  22
ATOM     22  C   UNL     1      10.502  13.135  17.920  0.00  0.00    +0.000 C 
BRANCH  22  23
ATOM     23  C   UNL     1      11.360  13.610  16.768  0.00  0.00    +0.000 C 
ATOM     24  O   UNL     1      12.333  13.022  16.323  0.00  0.00    +0.000 OA
BRANCH  23  25
ATOM     25  O   UNL     1      10.936  14.789  16.259  0.00  0.00    +0.000 OA
ATOM     26  H   UNL     1      11.330  15.571  16.687  0.00  0.00    +0.000 HD
ENDBRANCH  23  25
ENDBRANCH  22  23
ENDBRANCH  21  22
ENDBRANCH  20  21
ENDBRANCH  19  20
ENDBRANCH  18  19
ENDBRANCH  17  18
ENDBRANCH  16  17
ENDBRANCH   6  16
TORSDOF 11
ENDMDL
MODEL 7
REMARK VINA RESULT:      -6.4      6.508      9.229
REMARK  Name = 
REMARK  11 active torsions:
REMARK  status: ('A' for Active; 'I' for Inactive)
REMARK    1  A    between atoms: N_1  and  S_2
REMARK    2  A    between atoms: S_2  and  C_5
REMARK    3  A    between atoms: C_10  and  C_12
REMARK    4  A    between atoms: C_12  and  C_13
REMARK    5  A    between atoms: C_13  and  C_14
REMARK    6  A    between atoms: C_14  and  C_15
REMARK    7  A    between atoms: C_15  and  C_16
REMARK    8  A    between atoms: C_16  and  C_17
REMARK    9  A    between atoms: C_17  and  C_18
REMARK   10  A    between atoms: C_18  and  C_19
REMARK   11  A    between atoms: C_19  and  O_21
REMARK                            x       y       z     vdW  Elec       q    Type
REMARK                         _______ _______ _______ _____ _____    ______ ____
ROOT
ATOM      1  C   UNL     1       0.918   9.860  19.583  0.00  0.00    +0.000 A 
ATOM      2  N   UNL     1       1.096  10.390  18.389  0.00  0.00    +0.000 NA
ATOM      3  N   UNL     1       1.819   9.531  17.567  0.00  0.00    +0.000 NA
ATOM      4  C   UNL     1       2.185   8.433  18.198  0.00  0.00    +0.000 A 
ATOM      5  N   UNL     1       2.910   7.420  17.608  0.00  0.00    +0.000 N 
ATOM      6  C   UNL     1       3.590   6.438  18.308  0.00  0.00    +0.000 C 
ATOM      7  O   UNL     1       3.656   6.331  19.521  0.00  0.00    +0.000 OA
ATOM      8  S   UNL     1       1.583   8.311  19.794  0.00  0.00    +0.000 S 
ATOM      9  H   UNL     1       3.009   7.496  16.606  0.00  0.00    +0.000 HD
ENDROOT
BRANCH   1  10
ATOM     10  S   UNL     1       0.107  10.600  20.960  0.00  0.00    +0.000 S 
ATOM     11  O   UNL     1       0.066   9.611  22.009  0.00  0.00    +0.000 OA
ATOM     12  O   UNL     1      -1.096  11.229  20.450  0.00  0.00    +0.000 OA
BRANCH  10  13
ATOM     13  N   UNL     1       1.049  11.877  21.536  0.00  0.00    +0.000 NA
ATOM     14  H   UNL     1       1.768  12.099  20.847  0.00  0.00    +0.000 HD
ATOM     15  H   UNL     1       1.454  11.639  22.442  0.00  0.00    +0.000 HD
ENDBRANCH  10  13
ENDBRANCH   1  10
BRANCH   6  16
ATOM     16  C   UNL     1       4.388   5.493  17.421  0.00  0.00    +0.000 C 
BRANCH  16  17
ATOM     17  C   UNL     1       5.070   4.429  18.277  0.00  0.00    +0.000 C 
BRANCH  17  18
ATOM     18  C   UNL     1       4.214   3.183  18.517  0.00  0.00    +0.000 C 
BRANCH  18  19
ATOM     19  C   UNL     1       3.105   3.098  17.463  0.00  0.00    +0.000 C 
BRANCH  19  20
ATOM     20  C   UNL     1       1.768   2.676  18.075  0.00  0.00    +0.000 C 
BRANCH  20  21
ATOM     21  C   UNL     1       1.277   3.714  19.085  0.00  0.00    +0.000 C 
BRANCH  21  22
ATOM     22  C   UNL     1       0.993   3.092  20.452  0.00  0.00    +0.000 C 
BRANCH  22  23
ATOM     23  C   UNL     1       2.052   3.479  21.461  0.00  0.00    +0.000 C 
ATOM     24  O   UNL     1       2.618   2.709  22.220  0.00  0.00    +0.000 OA
BRANCH  23  25
ATOM     25  O   UNL     1       2.322   4.805  21.445  0.00  0.00    +0.000 OA
ATOM     26  H   UNL     1       2.613   5.139  20.577  0.00  0.00    +0.000 HD
ENDBRANCH  23  25
ENDBRANCH  22  23
ENDBRANCH  21  22
ENDBRANCH  20  21
ENDBRANCH  19  20
ENDBRANCH  18  19
ENDBRANCH  17  18
ENDBRANCH  16  17
ENDBRANCH   6  16
TORSDOF 11
ENDMDL
MODEL 8
REMARK VINA RESULT:      -6.3      1.031      1.297
REMARK  Name = 
REMARK  11 active torsions:
REMARK  status: ('A' for Active; 'I' for Inactive)
REMARK    1  A    between atoms: N_1  and  S_2
REMARK    2  A    between atoms: S_2  and  C_5
REMARK    3  A    between atoms: C_10  and  C_12
REMARK    4  A    between atoms: C_12  and  C_13
REMARK    5  A    between atoms: C_13  and  C_14
REMARK    6  A    between atoms: C_14  and  C_15
REMARK    7  A    between atoms: C_15  and  C_16
REMARK    8  A    between atoms: C_16  and  C_17
REMARK    9  A    between atoms: C_17  and  C_18
REMARK   10  A    between atoms: C_18  and  C_19
REMARK   11  A    between atoms: C_19  and  O_21
REMARK                            x       y       z     vdW  Elec       q    Type
REMARK                         _______ _______ _______ _____ _____    ______ ____
ROOT
ATOM      1  C   UNL     1       3.989   3.964  18.706  0.00  0.00    +0.000 A 
ATOM      2  N   UNL     1       4.947   3.422  19.431  0.00  0.00    +0.000 NA
ATOM      3  N   UNL     1       6.092   4.212  19.413  0.00  0.00    +0.000 NA
ATOM      4  C   UNL     1       5.950   5.272  18.642  0.00  0.00    +0.000 A 
ATOM      5  N   UNL     1       6.937   6.216  18.454  0.00  0.00    +0.000 N 
ATOM      6  C   UNL     1       6.952   7.131  17.415  0.00  0.00    +0.000 C 
ATOM      7  O   UNL     1       6.120   7.230  16.528  0.00  0.00    +0.000 OA
ATOM      8  S   UNL     1       4.385   5.446  17.976  0.00  0.00    +0.000 S 
ATOM      9  H   UNL     1       7.728   6.132  19.074  0.00  0.00    +0.000 HD
ENDROOT
BRANCH   1  10
ATOM     10  S   UNL     1       2.387   3.298  18.400  0.00  0.00    +0.000 S 
ATOM     11  O   UNL     1       2.405   1.929  18.851  0.00  0.00    +0.000 OA
ATOM     12  O   UNL     1       2.038   3.654  17.039  0.00  0.00    +0.000 OA
BRANCH  10  13
ATOM     13  N   UNL     1       1.259   4.109  19.360  0.00  0.00    +0.000 NA
ATOM     14  H   UNL     1       0.319   3.860  19.053  0.00  0.00    +0.000 HD
ATOM     15  H   UNL     1       1.418   5.117  19.319  0.00  0.00    +0.000 HD
ENDBRANCH  10  13
ENDBRANCH   1  10
BRANCH   6  16
ATOM     16  C   UNL     1       8.200   8.001  17.382  0.00  0.00    +0.000 C 
BRANCH  16  17
ATOM     17  C   UNL     1       7.891   9.375  17.970  0.00  0.00    +0.000 C 
BRANCH  17  18
ATOM     18  C   UNL     1       9.005   9.935  18.859  0.00  0.00    +0.000 C 
BRANCH  18  19
ATOM     19  C   UNL     1       9.762  11.040  18.115  0.00  0.00    +0.000 C 
BRANCH  19  20
ATOM     20  C   UNL     1      11.108  11.351  18.771  0.00  0.00    +0.000 C 
BRANCH  20  21
ATOM     21  C   UNL     1      11.846  12.454  18.011  0.00  0.00    +0.000 C 
BRANCH  21  22
ATOM     22  C   UNL     1      10.897  13.295  17.158  0.00  0.00    +0.000 C 
BRANCH  22  23
ATOM     23  C   UNL     1      11.068  14.772  17.440  0.00  0.00    +0.000 C 
ATOM     24  O   UNL     1      11.002  15.661  16.607  0.00  0.00    +0.000 OA
BRANCH  23  25
ATOM     25  O   UNL     1      11.311  15.024  18.747  0.00  0.00    +0.000 OA
ATOM     26  H   UNL     1      10.603  15.524  19.192  0.00  0.00    +0.000 HD
ENDBRANCH  23  25
ENDBRANCH  22  23
ENDBRANCH  21  22
ENDBRANCH  20  21
ENDBRANCH  19  20
ENDBRANCH  18  19
ENDBRANCH  17  18
ENDBRANCH  16  17
ENDBRANCH   6  16
TORSDOF 11
ENDMDL
MODEL 9
REMARK VINA RESULT:      -6.3      6.176      9.141
REMARK  Name = 
REMARK  11 active torsions:
REMARK  status: ('A' for Active; 'I' for Inactive)
REMARK    1  A    between atoms: N_1  and  S_2
REMARK    2  A    between atoms: S_2  and  C_5
REMARK    3  A    between atoms: C_10  and  C_12
REMARK    4  A    between atoms: C_12  and  C_13
REMARK    5  A    between atoms: C_13  and  C_14
REMARK    6  A    between atoms: C_14  and  C_15
REMARK    7  A    between atoms: C_15  and  C_16
REMARK    8  A    between atoms: C_16  and  C_17
REMARK    9  A    between atoms: C_17  and  C_18
REMARK   10  A    between atoms: C_18  and  C_19
REMARK   11  A    between atoms: C_19  and  O_21
REMARK                            x       y       z     vdW  Elec       q    Type
REMARK                         _______ _______ _______ _____ _____    ______ ____
ROOT
ATOM      1  C   UNL     1       1.107   9.299  19.483  0.00  0.00    +0.000 A 
ATOM      2  N   UNL     1       0.909   8.552  20.552  0.00  0.00    +0.000 NA
ATOM      3  N   UNL     1       1.739   7.435  20.539  0.00  0.00    +0.000 NA
ATOM      4  C   UNL     1       2.474   7.378  19.446  0.00  0.00    +0.000 A 
ATOM      5  N   UNL     1       3.381   6.372  19.189  0.00  0.00    +0.000 N 
ATOM      6  C   UNL     1       3.905   6.096  17.937  0.00  0.00    +0.000 C 
ATOM      7  O   UNL     1       3.643   6.682  16.900  0.00  0.00    +0.000 OA
ATOM      8  S   UNL     1       2.296   8.729  18.412  0.00  0.00    +0.000 S 
ATOM      9  H   UNL     1       3.567   5.758  19.968  0.00  0.00    +0.000 HD
ENDROOT
BRANCH   1  10
ATOM     10  S   UNL     1       0.253  10.777  19.051  0.00  0.00    +0.000 S 
ATOM     11  O   UNL     1       1.253  11.788  18.809  0.00  0.00    +0.000 OA
ATOM     12  O   UNL     1      -0.798  10.956  20.033  0.00  0.00    +0.000 OA
BRANCH  10  13
ATOM     13  N   UNL     1      -0.559  10.539  17.590  0.00  0.00    +0.000 NA
ATOM     14  H   UNL     1      -1.481  10.147  17.779  0.00  0.00    +0.000 HD
ATOM     15  H   UNL     1      -0.010   9.938  16.973  0.00  0.00    +0.000 HD
ENDBRANCH  10  13
ENDBRANCH   1  10
BRANCH   6  16
ATOM     16  C   UNL     1       4.813   4.875  17.908  0.00  0.00    +0.000 C 
BRANCH  16  17
ATOM     17  C   UNL     1       4.286   3.860  16.898  0.00  0.00    +0.000 C 
BRANCH  17  18
ATOM     18  C   UNL     1       2.888   3.328  17.223  0.00  0.00    +0.000 C 
BRANCH  18  19
ATOM     19  C   UNL     1       2.996   1.987  17.959  0.00  0.00    +0.000 C 
BRANCH  19  20
ATOM     20  C   UNL     1       2.234   2.001  19.284  0.00  0.00    +0.000 C 
BRANCH  20  21
ATOM     21  C   UNL     1       0.926   2.784  19.155  0.00  0.00    +0.000 C 
BRANCH  21  22
ATOM     22  C   UNL     1       0.790   3.852  20.240  0.00  0.00    +0.000 C 
BRANCH  22  23
ATOM     23  C   UNL     1       1.787   3.632  21.356  0.00  0.00    +0.000 C 
ATOM     24  O   UNL     1       1.762   2.707  22.152  0.00  0.00    +0.000 OA
BRANCH  23  25
ATOM     25  O   UNL     1       2.741   4.590  21.393  0.00  0.00    +0.000 OA
ATOM     26  H   UNL     1       3.110   4.747  22.281  0.00  0.00    +0.000 HD
ENDBRANCH  23  25
ENDBRANCH  22  23
ENDBRANCH  21  22
ENDBRANCH  20  21
ENDBRANCH  19  20
ENDBRANCH  18  19
ENDBRANCH  17  18
ENDBRANCH  16  17
ENDBRANCH   6  16
TORSDOF 11
ENDMDL
