MODEL 1
REMARK VINA RESULT:      -8.1      0.000      0.000
REMARK  Name = 
REMARK  7 active torsions:
REMARK  status: ('A' for Active; 'I' for Inactive)
REMARK    1  A    between atoms: C_1  and  C_2
REMARK    2  A    between atoms: C_2  and  C_3
REMARK    3  A    between atoms: C_5  and  N_6
REMARK    4  A    between atoms: N_6  and  C_7
REMARK    5  A    between atoms: C_7  and  N_9
REMARK    6  A    between atoms: N_9  and  C_10
REMARK    7  A    between atoms: C_10  and  C_11
REMARK                            x       y       z     vdW  Elec       q    Type
REMARK                         _______ _______ _______ _____ _____    ______ ____
ROOT
ATOM      1  C   UNL     1       7.763   6.685  18.120  0.00  0.00    +0.000 C 
ATOM      2  C   UNL     1       6.822   6.069  17.071  0.00  0.00    +0.000 C 
ATOM      3  C   UNL     1       5.668   7.062  16.853  0.00  0.00    +0.000 C 
ATOM      4  C   UNL     1       6.396   4.677  17.566  0.00  0.00    +0.000 C 
ATOM      5  C   UNL     1       5.534   3.939  16.541  0.00  0.00    +0.000 C 
ATOM      6  C   UNL     1       6.065   4.165  15.149  0.00  0.00    +0.000 A 
ATOM      7  C   UNL     1       5.588   3.380  14.086  0.00  0.00    +0.000 A 
ATOM      8  C   UNL     1       6.121   3.532  12.807  0.00  0.00    +0.000 A 
ATOM      9 BR   UNL     1       5.479   2.461  11.389  0.00  0.00    +0.000 Br
ATOM     10  C   UNL     1       7.128   4.465  12.569  0.00  0.00    +0.000 A 
ATOM     11  C   UNL     1       7.595   5.258  13.619  0.00  0.00    +0.000 A 
ATOM     12  C   UNL     1       7.056   5.122  14.899  0.00  0.00    +0.000 A 
ATOM     13  O   UNL     1       7.577   5.957  15.851  0.00  0.00    +0.000 OA
ENDROOT
BRANCH   5  14
ATOM     14  N   UNL     1       4.132   4.353  16.651  0.00  0.00    +0.000 N 
ATOM     15  H   UNL     1       3.869   5.127  16.066  0.00  0.00    +0.000 HD
BRANCH  14  16
ATOM     16  C   UNL     1       3.265   3.989  17.637  0.00  0.00    +0.000 C 
ATOM     17  S   UNL     1       2.970   2.434  18.162  0.00  0.00    +0.000 S 
BRANCH  16  18
ATOM     18  N   UNL     1       2.603   5.001  18.257  0.00  0.00    +0.000 N 
ATOM     19  H   UNL     1       1.613   5.037  18.040  0.00  0.00    +0.000 HD
BRANCH  18  20
ATOM     20  C   UNL     1       3.073   5.902  19.293  0.00  0.00    +0.000 C 
BRANCH  20  21
ATOM     21  C   UNL     1       2.379   7.235  19.233  0.00  0.00    +0.000 A 
ATOM     22  C   UNL     1       2.287   7.941  18.026  0.00  0.00    +0.000 A 
ATOM     23  C   UNL     1       1.605   9.159  17.974  0.00  0.00    +0.000 A 
ATOM     24  C   UNL     1       1.009   9.681  19.122  0.00  0.00    +0.000 A 
ATOM     25  C   UNL     1       1.093   8.985  20.325  0.00  0.00    +0.000 A 
ATOM     26  C   UNL     1       1.766   7.766  20.379  0.00  0.00    +0.000 A 
ENDBRANCH  20  21
ENDBRANCH  18  20
ENDBRANCH  16  18
ENDBRANCH  14  16
ENDBRANCH   5  14
TORSDOF 5
ENDMDL
MODEL 2
REMARK VINA RESULT:      -8.1      0.292      1.028
REMARK  Name = 
REMARK  7 active torsions:
REMARK  status: ('A' for Active; 'I' for Inactive)
REMARK    1  A    between atoms: C_1  and  C_2
REMARK    2  A    between atoms: C_2  and  C_3
REMARK    3  A    between atoms: C_5  and  N_6
REMARK    4  A    between atoms: N_6  and  C_7
REMARK    5  A    between atoms: C_7  and  N_9
REMARK    6  A    between atoms: N_9  and  C_10
REMARK    7  A    between atoms: C_10  and  C_11
REMARK                            x       y       z     vdW  Elec       q    Type
REMARK                         _______ _______ _______ _____ _____    ______ ____
ROOT
ATOM      1  C   UNL     1       7.875   6.543  18.399  0.00  0.00    +0.000 C 
ATOM      2  C   UNL     1       6.875   6.031  17.350  0.00  0.00    +0.000 C 
ATOM      3  C   UNL     1       5.802   7.118  17.172  0.00  0.00    +0.000 C 
ATOM      4  C   UNL     1       6.346   4.666  17.818  0.00  0.00    +0.000 C 
ATOM      5  C   UNL     1       5.414   4.024  16.788  0.00  0.00    +0.000 C 
ATOM      6  C   UNL     1       5.944   4.241  15.395  0.00  0.00    +0.000 A 
ATOM      7  C   UNL     1       5.393   3.523  14.320  0.00  0.00    +0.000 A 
ATOM      8  C   UNL     1       5.920   3.664  13.037  0.00  0.00    +0.000 A 
ATOM      9 BR   UNL     1       5.177   2.683  11.604  0.00  0.00    +0.000 Br
ATOM     10  C   UNL     1       6.996   4.520  12.807  0.00  0.00    +0.000 A 
ATOM     11  C   UNL     1       7.538   5.246  13.868  0.00  0.00    +0.000 A 
ATOM     12  C   UNL     1       7.006   5.122  15.153  0.00  0.00    +0.000 A 
ATOM     13  O   UNL     1       7.604   5.889  16.117  0.00  0.00    +0.000 OA
ENDROOT
BRANCH   5  14
ATOM     14  N   UNL     1       4.051   4.546  16.928  0.00  0.00    +0.000 N 
ATOM     15  H   UNL     1       3.906   5.466  16.551  0.00  0.00    +0.000 HD
BRANCH  14  16
ATOM     16  C   UNL     1       3.080   4.040  17.739  0.00  0.00    +0.000 C 
ATOM     17  S   UNL     1       2.501   2.476  17.723  0.00  0.00    +0.000 S 
BRANCH  16  18
ATOM     18  N   UNL     1       2.560   4.896  18.657  0.00  0.00    +0.000 N 
ATOM     19  H   UNL     1       1.638   4.633  18.988  0.00  0.00    +0.000 HD
BRANCH  18  20
ATOM     20  C   UNL     1       3.200   6.007  19.338  0.00  0.00    +0.000 C 
BRANCH  20  21
ATOM     21  C   UNL     1       2.386   7.268  19.240  0.00  0.00    +0.000 A 
ATOM     22  C   UNL     1       1.745   7.796  20.369  0.00  0.00    +0.000 A 
ATOM     23  C   UNL     1       1.025   8.989  20.276  0.00  0.00    +0.000 A 
ATOM     24  C   UNL     1       0.940   9.666  19.059  0.00  0.00    +0.000 A 
ATOM     25  C   UNL     1       1.577   9.151  17.932  0.00  0.00    +0.000 A 
ATOM     26  C   UNL     1       2.302   7.964  18.024  0.00  0.00    +0.000 A 
ENDBRANCH  20  21
ENDBRANCH  18  20
ENDBRANCH  16  18
ENDBRANCH  14  16
ENDBRANCH   5  14
TORSDOF 5
ENDMDL
MODEL 3
REMARK VINA RESULT:      -7.5      2.177      3.506
REMARK  Name = 
REMARK  7 active torsions:
REMARK  status: ('A' for Active; 'I' for Inactive)
REMARK    1  A    between atoms: C_1  and  C_2
REMARK    2  A    between atoms: C_2  and  C_3
REMARK    3  A    between atoms: C_5  and  N_6
REMARK    4  A    between atoms: N_6  and  C_7
REMARK    5  A    between atoms: C_7  and  N_9
REMARK    6  A    between atoms: N_9  and  C_10
REMARK    7  A    between atoms: C_10  and  C_11
REMARK                            x       y       z     vdW  Elec       q    Type
REMARK                         _______ _______ _______ _____ _____    ______ ____
ROOT
ATOM      1  C   UNL     1       7.895   5.939  18.962  0.00  0.00    +0.000 C 
ATOM      2  C   UNL     1       6.909   5.840  17.787  0.00  0.00    +0.000 C 
ATOM      3  C   UNL     1       6.391   7.260  17.503  0.00  0.00    +0.000 C 
ATOM      4  C   UNL     1       5.823   4.815  18.156  0.00  0.00    +0.000 C 
ATOM      5  C   UNL     1       4.845   4.571  17.006  0.00  0.00    +0.000 C 
ATOM      6  C   UNL     1       5.582   4.517  15.693  0.00  0.00    +0.000 A 
ATOM      7  C   UNL     1       4.924   4.049  14.544  0.00  0.00    +0.000 A 
ATOM      8  C   UNL     1       5.615   3.929  13.339  0.00  0.00    +0.000 A 
ATOM      9 BR   UNL     1       4.720   3.287  11.804  0.00  0.00    +0.000 Br
ATOM     10  C   UNL     1       6.962   4.276  13.261  0.00  0.00    +0.000 A 
ATOM     11  C   UNL     1       7.617   4.755  14.397  0.00  0.00    +0.000 A 
ATOM     12  C   UNL     1       6.929   4.892  15.603  0.00  0.00    +0.000 A 
ATOM     13  O   UNL     1       7.663   5.382  16.650  0.00  0.00    +0.000 OA
ENDROOT
BRANCH   5  14
ATOM     14  N   UNL     1       3.800   5.598  16.989  0.00  0.00    +0.000 N 
ATOM     15  H   UNL     1       3.998   6.399  16.416  0.00  0.00    +0.000 HD
BRANCH  14  16
ATOM     16  C   UNL     1       2.759   5.696  17.863  0.00  0.00    +0.000 C 
ATOM     17  S   UNL     1       2.691   6.683  19.206  0.00  0.00    +0.000 S 
BRANCH  16  18
ATOM     18  N   UNL     1       1.671   4.929  17.588  0.00  0.00    +0.000 N 
ATOM     19  H   UNL     1       0.966   5.402  17.032  0.00  0.00    +0.000 HD
BRANCH  18  20
ATOM     20  C   UNL     1       1.465   3.513  17.828  0.00  0.00    +0.000 C 
BRANCH  20  21
ATOM     21  C   UNL     1       1.909   3.107  19.206  0.00  0.00    +0.000 A 
ATOM     22  C   UNL     1       1.043   3.227  20.301  0.00  0.00    +0.000 A 
ATOM     23  C   UNL     1       1.452   2.809  21.570  0.00  0.00    +0.000 A 
ATOM     24  C   UNL     1       2.724   2.268  21.756  0.00  0.00    +0.000 A 
ATOM     25  C   UNL     1       3.590   2.141  20.672  0.00  0.00    +0.000 A 
ATOM     26  C   UNL     1       3.182   2.550  19.404  0.00  0.00    +0.000 A 
ENDBRANCH  20  21
ENDBRANCH  18  20
ENDBRANCH  16  18
ENDBRANCH  14  16
ENDBRANCH   5  14
TORSDOF 5
ENDMDL
MODEL 4
REMARK VINA RESULT:      -7.4      2.065      2.783
REMARK  Name = 
REMARK  7 active torsions:
REMARK  status: ('A' for Active; 'I' for Inactive)
REMARK    1  A    between atoms: C_1  and  C_2
REMARK    2  A    between atoms: C_2  and  C_3
REMARK    3  A    between atoms: C_5  and  N_6
REMARK    4  A    between atoms: N_6  and  C_7
REMARK    5  A    between atoms: C_7  and  N_9
REMARK    6  A    between atoms: N_9  and  C_10
REMARK    7  A    between atoms: C_10  and  C_11
REMARK                            x       y       z     vdW  Elec       q    Type
REMARK                         _______ _______ _______ _____ _____    ______ ____
ROOT
ATOM      1  C   UNL     1       7.928   6.905  18.189  0.00  0.00    +0.000 C 
ATOM      2  C   UNL     1       6.990   6.184  17.208  0.00  0.00    +0.000 C 
ATOM      3  C   UNL     1       5.707   7.026  17.100  0.00  0.00    +0.000 C 
ATOM      4  C   UNL     1       6.782   4.746  17.712  0.00  0.00    +0.000 C 
ATOM      5  C   UNL     1       5.937   3.913  16.745  0.00  0.00    +0.000 C 
ATOM      6  C   UNL     1       6.321   4.214  15.320  0.00  0.00    +0.000 A 
ATOM      7  C   UNL     1       5.861   3.383  14.285  0.00  0.00    +0.000 A 
ATOM      8  C   UNL     1       6.265   3.610  12.970  0.00  0.00    +0.000 A 
ATOM      9 BR   UNL     1       5.649   2.478  11.590  0.00  0.00    +0.000 Br
ATOM     10  C   UNL     1       7.126   4.664  12.669  0.00  0.00    +0.000 A 
ATOM     11  C   UNL     1       7.574   5.501  13.692  0.00  0.00    +0.000 A 
ATOM     12  C   UNL     1       7.162   5.290  15.008  0.00  0.00    +0.000 A 
ATOM     13  O   UNL     1       7.651   6.176  15.931  0.00  0.00    +0.000 OA
ENDROOT
BRANCH   5  14
ATOM     14  N   UNL     1       4.508   4.147  16.974  0.00  0.00    +0.000 N 
ATOM     15  H   UNL     1       4.256   5.104  17.149  0.00  0.00    +0.000 HD
BRANCH  14  16
ATOM     16  C   UNL     1       3.573   3.193  17.243  0.00  0.00    +0.000 C 
ATOM     17  S   UNL     1       3.854   1.720  17.973  0.00  0.00    +0.000 S 
BRANCH  16  18
ATOM     18  N   UNL     1       2.293   3.494  16.900  0.00  0.00    +0.000 N 
ATOM     19  H   UNL     1       1.996   3.082  16.023  0.00  0.00    +0.000 HD
BRANCH  18  20
ATOM     20  C   UNL     1       1.270   4.163  17.682  0.00  0.00    +0.000 C 
BRANCH  20  21
ATOM     21  C   UNL     1       1.488   3.987  19.159  0.00  0.00    +0.000 A 
ATOM     22  C   UNL     1       0.957   2.879  19.834  0.00  0.00    +0.000 A 
ATOM     23  C   UNL     1       1.200   2.704  21.199  0.00  0.00    +0.000 A 
ATOM     24  C   UNL     1       1.974   3.629  21.900  0.00  0.00    +0.000 A 
ATOM     25  C   UNL     1       2.509   4.731  21.236  0.00  0.00    +0.000 A 
ATOM     26  C   UNL     1       2.275   4.904  19.874  0.00  0.00    +0.000 A 
ENDBRANCH  20  21
ENDBRANCH  18  20
ENDBRANCH  16  18
ENDBRANCH  14  16
ENDBRANCH   5  14
TORSDOF 5
ENDMDL
MODEL 5
REMARK VINA RESULT:      -7.4      3.152      6.675
REMARK  Name = 
REMARK  7 active torsions:
REMARK  status: ('A' for Active; 'I' for Inactive)
REMARK    1  A    between atoms: C_1  and  C_2
REMARK    2  A    between atoms: C_2  and  C_3
REMARK    3  A    between atoms: C_5  and  N_6
REMARK    4  A    between atoms: N_6  and  C_7
REMARK    5  A    between atoms: C_7  and  N_9
REMARK    6  A    between atoms: N_9  and  C_10
REMARK    7  A    between atoms: C_10  and  C_11
REMARK                            x       y       z     vdW  Elec       q    Type
REMARK                         _______ _______ _______ _____ _____    ______ ____
ROOT
ATOM      1  C   UNL     1       2.410   3.152  21.787  0.00  0.00    +0.000 C 
ATOM      2  C   UNL     1       2.241   4.154  20.633  0.00  0.00    +0.000 C 
ATOM      3  C   UNL     1       1.192   3.571  19.671  0.00  0.00    +0.000 C 
ATOM      4  C   UNL     1       3.624   4.407  20.011  0.00  0.00    +0.000 C 
ATOM      5  C   UNL     1       3.575   5.472  18.913  0.00  0.00    +0.000 C 
ATOM      6  C   UNL     1       2.661   6.599  19.315  0.00  0.00    +0.000 A 
ATOM      7  C   UNL     1       2.667   7.796  18.580  0.00  0.00    +0.000 A 
ATOM      8  C   UNL     1       1.876   8.872  18.983  0.00  0.00    +0.000 A 
ATOM      9 BR   UNL     1       1.903  10.480  17.992  0.00  0.00    +0.000 Br
ATOM     10  C   UNL     1       1.070   8.768  20.115  0.00  0.00    +0.000 A 
ATOM     11  C   UNL     1       1.049   7.576  20.840  0.00  0.00    +0.000 A 
ATOM     12  C   UNL     1       1.826   6.490  20.435  0.00  0.00    +0.000 A 
ATOM     13  O   UNL     1       1.722   5.366  21.210  0.00  0.00    +0.000 OA
ENDROOT
BRANCH   5  14
ATOM     14  N   UNL     1       3.164   4.880  17.637  0.00  0.00    +0.000 N 
ATOM     15  H   UNL     1       2.257   5.161  17.309  0.00  0.00    +0.000 HD
BRANCH  14  16
ATOM     16  C   UNL     1       3.747   3.811  17.024  0.00  0.00    +0.000 C 
ATOM     17  S   UNL     1       3.448   2.204  17.355  0.00  0.00    +0.000 S 
BRANCH  16  18
ATOM     18  N   UNL     1       4.635   4.098  16.036  0.00  0.00    +0.000 N 
ATOM     19  H   UNL     1       4.226   4.580  15.244  0.00  0.00    +0.000 HD
BRANCH  18  20
ATOM     20  C   UNL     1       6.081   3.965  16.038  0.00  0.00    +0.000 C 
BRANCH  20  21
ATOM     21  C   UNL     1       6.738   5.004  16.903  0.00  0.00    +0.000 A 
ATOM     22  C   UNL     1       6.767   6.349  16.509  0.00  0.00    +0.000 A 
ATOM     23  C   UNL     1       7.345   7.312  17.339  0.00  0.00    +0.000 A 
ATOM     24  C   UNL     1       7.896   6.944  18.567  0.00  0.00    +0.000 A 
ATOM     25  C   UNL     1       7.868   5.610  18.968  0.00  0.00    +0.000 A 
ATOM     26  C   UNL     1       7.285   4.648  18.145  0.00  0.00    +0.000 A 
ENDBRANCH  20  21
ENDBRANCH  18  20
ENDBRANCH  16  18
ENDBRANCH  14  16
ENDBRANCH   5  14
TORSDOF 5
ENDMDL
MODEL 6
REMARK VINA RESULT:      -7.3      3.406      4.961
REMARK  Name = 
REMARK  7 active torsions:
REMARK  status: ('A' for Active; 'I' for Inactive)
REMARK    1  A    between atoms: C_1  and  C_2
REMARK    2  A    between atoms: C_2  and  C_3
REMARK    3  A    between atoms: C_5  and  N_6
REMARK    4  A    between atoms: N_6  and  C_7
REMARK    5  A    between atoms: C_7  and  N_9
REMARK    6  A    between atoms: N_9  and  C_10
REMARK    7  A    between atoms: C_10  and  C_11
REMARK                            x       y       z     vdW  Elec       q    Type
REMARK                         _______ _______ _______ _____ _____    ______ ____
ROOT
ATOM      1  C   UNL     1       2.054   2.030  18.452  0.00  0.00    +0.000 C 
ATOM      2  C   UNL     1       2.816   3.340  18.709  0.00  0.00    +0.000 C 
ATOM      3  C   UNL     1       2.887   3.536  20.233  0.00  0.00    +0.000 C 
ATOM      4  C   UNL     1       2.107   4.467  17.942  0.00  0.00    +0.000 C 
ATOM      5  C   UNL     1       2.851   5.799  18.055  0.00  0.00    +0.000 C 
ATOM      6  C   UNL     1       4.338   5.580  17.958  0.00  0.00    +0.000 A 
ATOM      7  C   UNL     1       5.194   6.678  17.779  0.00  0.00    +0.000 A 
ATOM      8  C   UNL     1       6.565   6.483  17.620  0.00  0.00    +0.000 A 
ATOM      9 BR   UNL     1       7.703   7.968  17.367  0.00  0.00    +0.000 Br
ATOM     10  C   UNL     1       7.100   5.196  17.641  0.00  0.00    +0.000 A 
ATOM     11  C   UNL     1       6.256   4.101  17.833  0.00  0.00    +0.000 A 
ATOM     12  C   UNL     1       4.884   4.291  18.008  0.00  0.00    +0.000 A 
ATOM     13  O   UNL     1       4.150   3.151  18.202  0.00  0.00    +0.000 OA
ENDROOT
BRANCH   5  14
ATOM     14  N   UNL     1       2.492   6.488  19.298  0.00  0.00    +0.000 N 
ATOM     15  H   UNL     1       2.325   5.886  20.086  0.00  0.00    +0.000 HD
BRANCH  14  16
ATOM     16  C   UNL     1       2.101   7.788  19.410  0.00  0.00    +0.000 C 
ATOM     17  S   UNL     1       2.021   8.901  18.170  0.00  0.00    +0.000 S 
BRANCH  16  18
ATOM     18  N   UNL     1       1.721   8.196  20.649  0.00  0.00    +0.000 N 
ATOM     19  H   UNL     1       2.404   8.782  21.116  0.00  0.00    +0.000 HD
BRANCH  18  20
ATOM     20  C   UNL     1       0.434   8.054  21.304  0.00  0.00    +0.000 C 
BRANCH  20  21
ATOM     21  C   UNL     1      -0.187   9.387  21.616  0.00  0.00    +0.000 A 
ATOM     22  C   UNL     1      -0.432  10.318  20.597  0.00  0.00    +0.000 A 
ATOM     23  C   UNL     1      -1.046  11.538  20.893  0.00  0.00    +0.000 A 
ATOM     24  C   UNL     1      -1.423  11.837  22.201  0.00  0.00    +0.000 A 
ATOM     25  C   UNL     1      -1.187  10.916  23.219  0.00  0.00    +0.000 A 
ATOM     26  C   UNL     1      -0.582   9.695  22.927  0.00  0.00    +0.000 A 
ENDBRANCH  20  21
ENDBRANCH  18  20
ENDBRANCH  16  18
ENDBRANCH  14  16
ENDBRANCH   5  14
TORSDOF 5
ENDMDL
MODEL 7
REMARK VINA RESULT:      -7.2      1.061      1.374
REMARK  Name = 
REMARK  7 active torsions:
REMARK  status: ('A' for Active; 'I' for Inactive)
REMARK    1  A    between atoms: C_1  and  C_2
REMARK    2  A    between atoms: C_2  and  C_3
REMARK    3  A    between atoms: C_5  and  N_6
REMARK    4  A    between atoms: N_6  and  C_7
REMARK    5  A    between atoms: C_7  and  N_9
REMARK    6  A    between atoms: N_9  and  C_10
REMARK    7  A    between atoms: C_10  and  C_11
REMARK                            x       y       z     vdW  Elec       q    Type
REMARK                         _______ _______ _______ _____ _____    ______ ____
ROOT
ATOM      1  C   UNL     1       7.919   5.861  18.918  0.00  0.00    +0.000 C 
ATOM      2  C   UNL     1       6.905   5.713  17.772  0.00  0.00    +0.000 C 
ATOM      3  C   UNL     1       6.243   7.087  17.567  0.00  0.00    +0.000 C 
ATOM      4  C   UNL     1       5.937   4.574  18.130  0.00  0.00    +0.000 C 
ATOM      5  C   UNL     1       4.946   4.283  17.002  0.00  0.00    +0.000 C 
ATOM      6  C   UNL     1       5.637   4.354  15.665  0.00  0.00    +0.000 A 
ATOM      7  C   UNL     1       4.985   3.871  14.518  0.00  0.00    +0.000 A 
ATOM      8  C   UNL     1       5.640   3.868  13.287  0.00  0.00    +0.000 A 
ATOM      9 BR   UNL     1       4.756   3.206  11.755  0.00  0.00    +0.000 Br
ATOM     10  C   UNL     1       6.944   4.348  13.182  0.00  0.00    +0.000 A 
ATOM     11  C   UNL     1       7.591   4.842  14.316  0.00  0.00    +0.000 A 
ATOM     12  C   UNL     1       6.937   4.862  15.548  0.00  0.00    +0.000 A 
ATOM     13  O   UNL     1       7.657   5.378  16.592  0.00  0.00    +0.000 OA
ENDROOT
BRANCH   5  14
ATOM     14  N   UNL     1       3.807   5.203  17.064  0.00  0.00    +0.000 N 
ATOM     15  H   UNL     1       3.839   5.966  16.411  0.00  0.00    +0.000 HD
BRANCH  14  16
ATOM     16  C   UNL     1       2.893   5.279  18.072  0.00  0.00    +0.000 C 
ATOM     17  S   UNL     1       1.826   4.080  18.526  0.00  0.00    +0.000 S 
BRANCH  16  18
ATOM     18  N   UNL     1       2.878   6.439  18.781  0.00  0.00    +0.000 N 
ATOM     19  H   UNL     1       3.258   6.352  19.716  0.00  0.00    +0.000 HD
BRANCH  18  20
ATOM     20  C   UNL     1       2.560   7.782  18.332  0.00  0.00    +0.000 C 
BRANCH  20  21
ATOM     21  C   UNL     1       1.673   8.504  19.308  0.00  0.00    +0.000 A 
ATOM     22  C   UNL     1       0.934   9.627  18.909  0.00  0.00    +0.000 A 
ATOM     23  C   UNL     1       0.083  10.266  19.813  0.00  0.00    +0.000 A 
ATOM     24  C   UNL     1      -0.040   9.792  21.119  0.00  0.00    +0.000 A 
ATOM     25  C   UNL     1       0.688   8.675  21.524  0.00  0.00    +0.000 A 
ATOM     26  C   UNL     1       1.532   8.030  20.621  0.00  0.00    +0.000 A 
ENDBRANCH  20  21
ENDBRANCH  18  20
ENDBRANCH  16  18
ENDBRANCH  14  16
ENDBRANCH   5  14
TORSDOF 5
ENDMDL
MODEL 8
REMARK VINA RESULT:      -7.2      2.167      3.746
REMARK  Name = 
REMARK  7 active torsions:
REMARK  status: ('A' for Active; 'I' for Inactive)
REMARK    1  A    between atoms: C_1  and  C_2
REMARK    2  A    between atoms: C_2  and  C_3
REMARK    3  A    between atoms: C_5  and  N_6
REMARK    4  A    between atoms: N_6  and  C_7
REMARK    5  A    between atoms: C_7  and  N_9
REMARK    6  A    between atoms: N_9  and  C_10
REMARK    7  A    between atoms: C_10  and  C_11
REMARK                            x       y       z     vdW  Elec       q    Type
REMARK                         _______ _______ _______ _____ _____    ______ ____
ROOT
ATOM      1  C   UNL     1       7.953   5.947  19.022  0.00  0.00    +0.000 C 
ATOM      2  C   UNL     1       6.948   5.864  17.862  0.00  0.00    +0.000 C 
ATOM      3  C   UNL     1       6.450   7.293  17.586  0.00  0.00    +0.000 C 
ATOM      4  C   UNL     1       5.852   4.857  18.245  0.00  0.00    +0.000 C 
ATOM      5  C   UNL     1       4.854   4.630  17.109  0.00  0.00    +0.000 C 
ATOM      6  C   UNL     1       5.571   4.565  15.786  0.00  0.00    +0.000 A 
ATOM      7  C   UNL     1       4.889   4.110  14.646  0.00  0.00    +0.000 A 
ATOM      8  C   UNL     1       5.560   3.980  13.430  0.00  0.00    +0.000 A 
ATOM      9 BR   UNL     1       4.633   3.355  11.908  0.00  0.00    +0.000 Br
ATOM     10  C   UNL     1       6.911   4.305  13.334  0.00  0.00    +0.000 A 
ATOM     11  C   UNL     1       7.591   4.773  14.460  0.00  0.00    +0.000 A 
ATOM     12  C   UNL     1       6.922   4.919  15.676  0.00  0.00    +0.000 A 
ATOM     13  O   UNL     1       7.678   5.396  16.713  0.00  0.00    +0.000 OA
ENDROOT
BRANCH   5  14
ATOM     14  N   UNL     1       3.825   5.674  17.108  0.00  0.00    +0.000 N 
ATOM     15  H   UNL     1       4.047   6.492  16.568  0.00  0.00    +0.000 HD
BRANCH  14  16
ATOM     16  C   UNL     1       2.768   5.757  17.964  0.00  0.00    +0.000 C 
ATOM     17  S   UNL     1       2.614   6.825  19.236  0.00  0.00    +0.000 S 
BRANCH  16  18
ATOM     18  N   UNL     1       1.739   4.900  17.733  0.00  0.00    +0.000 N 
ATOM     19  H   UNL     1       1.322   4.999  16.814  0.00  0.00    +0.000 HD
BRANCH  18  20
ATOM     20  C   UNL     1       1.285   3.777  18.533  0.00  0.00    +0.000 C 
BRANCH  20  21
ATOM     21  C   UNL     1       2.425   2.892  18.955  0.00  0.00    +0.000 A 
ATOM     22  C   UNL     1       2.908   1.891  18.100  0.00  0.00    +0.000 A 
ATOM     23  C   UNL     1       3.994   1.102  18.486  0.00  0.00    +0.000 A 
ATOM     24  C   UNL     1       4.606   1.303  19.723  0.00  0.00    +0.000 A 
ATOM     25  C   UNL     1       4.135   2.297  20.577  0.00  0.00    +0.000 A 
ATOM     26  C   UNL     1       3.057   3.092  20.192  0.00  0.00    +0.000 A 
ENDBRANCH  20  21
ENDBRANCH  18  20
ENDBRANCH  16  18
ENDBRANCH  14  16
ENDBRANCH   5  14
TORSDOF 5
ENDMDL
MODEL 9
REMARK VINA RESULT:      -7.1      1.102      1.530
REMARK  Name = 
REMARK  7 active torsions:
REMARK  status: ('A' for Active; 'I' for Inactive)
REMARK    1  A    between atoms: C_1  and  C_2
REMARK    2  A    between atoms: C_2  and  C_3
REMARK    3  A    between atoms: C_5  and  N_6
REMARK    4  A    between atoms: N_6  and  C_7
REMARK    5  A    between atoms: C_7  and  N_9
REMARK    6  A    between atoms: N_9  and  C_10
REMARK    7  A    between atoms: C_10  and  C_11
REMARK                            x       y       z     vdW  Elec       q    Type
REMARK                         _______ _______ _______ _____ _____    ______ ____
ROOT
ATOM      1  C   UNL     1       7.929   6.907  18.161  0.00  0.00    +0.000 C 
ATOM      2  C   UNL     1       6.996   6.145  17.205  0.00  0.00    +0.000 C 
ATOM      3  C   UNL     1       5.673   6.928  17.137  0.00  0.00    +0.000 C 
ATOM      4  C   UNL     1       6.869   4.698  17.709  0.00  0.00    +0.000 C 
ATOM      5  C   UNL     1       6.035   3.830  16.765  0.00  0.00    +0.000 C 
ATOM      6  C   UNL     1       6.363   4.150  15.330  0.00  0.00    +0.000 A 
ATOM      7  C   UNL     1       5.912   3.302  14.307  0.00  0.00    +0.000 A 
ATOM      8  C   UNL     1       6.266   3.549  12.981  0.00  0.00    +0.000 A 
ATOM      9 BR   UNL     1       5.662   2.393  11.616  0.00  0.00    +0.000 Br
ATOM     10  C   UNL     1       7.068   4.642  12.659  0.00  0.00    +0.000 A 
ATOM     11  C   UNL     1       7.508   5.497  13.670  0.00  0.00    +0.000 A 
ATOM     12  C   UNL     1       7.145   5.264  14.998  0.00  0.00    +0.000 A 
ATOM     13  O   UNL     1       7.619   6.170  15.908  0.00  0.00    +0.000 OA
ENDROOT
BRANCH   5  14
ATOM     14  N   UNL     1       4.605   3.997  17.036  0.00  0.00    +0.000 N 
ATOM     15  H   UNL     1       4.207   4.860  16.710  0.00  0.00    +0.000 HD
BRANCH  14  16
ATOM     16  C   UNL     1       3.861   3.253  17.903  0.00  0.00    +0.000 C 
ATOM     17  S   UNL     1       4.402   2.563  19.321  0.00  0.00    +0.000 S 
BRANCH  16  18
ATOM     18  N   UNL     1       2.552   3.087  17.579  0.00  0.00    +0.000 N 
ATOM     19  H   UNL     1       2.276   2.117  17.472  0.00  0.00    +0.000 HD
BRANCH  18  20
ATOM     20  C   UNL     1       1.487   4.073  17.539  0.00  0.00    +0.000 C 
BRANCH  20  21
ATOM     21  C   UNL     1       1.726   5.196  18.509  0.00  0.00    +0.000 A 
ATOM     22  C   UNL     1       2.138   6.457  18.055  0.00  0.00    +0.000 A 
ATOM     23  C   UNL     1       2.318   7.505  18.961  0.00  0.00    +0.000 A 
ATOM     24  C   UNL     1       2.088   7.307  20.322  0.00  0.00    +0.000 A 
ATOM     25  C   UNL     1       1.675   6.058  20.781  0.00  0.00    +0.000 A 
ATOM     26  C   UNL     1       1.487   5.012  19.879  0.00  0.00    +0.000 A 
ENDBRANCH  20  21
ENDBRANCH  18  20
ENDBRANCH  16  18
ENDBRANCH  14  16
ENDBRANCH   5  14
TORSDOF 5
ENDMDL
