MODEL 1
REMARK VINA RESULT:      -8.2      0.000      0.000
REMARK  Name = 
REMARK  4 active torsions:
REMARK  status: ('A' for Active; 'I' for Inactive)
REMARK    1  A    between atoms: C_4  and  O_5
REMARK    2  A    between atoms: C_4  and  C_6
REMARK    3  A    between atoms: C_11  and  C_12
REMARK    4  A    between atoms: C_19  and  C_20
REMARK                            x       y       z     vdW  Elec       q    Type
REMARK                         _______ _______ _______ _____ _____    ______ ____
ROOT
ATOM      1  O   UNL     1       5.104   1.146  20.156  0.00  0.00    +0.000 OA
ATOM      2  C   UNL     1       4.536   2.144  19.711  0.00  0.00    +0.000 C 
ATOM      3  C   UNL     1       3.050   2.099  19.367  0.00  0.00    +0.000 C 
ATOM      4  C   UNL     1       2.298   3.445  19.199  0.00  0.00    +0.000 C 
ATOM      5  C   UNL     1       3.261   4.565  18.947  0.00  0.00    +0.000 A 
ATOM      6  C   UNL     1       3.079   5.955  18.678  0.00  0.00    +0.000 A 
ATOM      7  N   UNL     1       4.261   6.584  18.557  0.00  0.00    +0.000 NA
ATOM      8  N   UNL     1       5.178   5.619  18.787  0.00  0.00    +0.000 N 
ATOM      9  C   UNL     1       4.617   4.413  19.057  0.00  0.00    +0.000 A 
ATOM     10  N   UNL     1       5.261   3.270  19.430  0.00  0.00    +0.000 N 
ATOM     11  H   UNL     1       6.159   5.872  18.785  0.00  0.00    +0.000 HD
ATOM     12  H   UNL     1       6.261   3.235  19.596  0.00  0.00    +0.000 HD
ENDROOT
BRANCH   6  13
ATOM     13  C   UNL     1       1.772   6.720  18.738  0.00  0.00    +0.000 C 
ATOM     14  C   UNL     1       1.556   7.830  17.701  0.00  0.00    +0.000 C 
ATOM     15  C   UNL     1       1.851   9.261  18.155  0.00  0.00    +0.000 C 
ATOM     16  N   UNL     1       1.541   9.505  19.561  0.00  0.00    +0.000 N 
ATOM     17  C   UNL     1       0.485  10.313  19.948  0.00  0.00    +0.000 A 
ATOM     18  C   UNL     1       0.553  10.985  21.171  0.00  0.00    +0.000 A 
ATOM     19  C   UNL     1      -0.479  11.824  21.586  0.00  0.00    +0.000 A 
ATOM     20  C   UNL     1      -1.591  11.996  20.772  0.00  0.00    +0.000 A 
ATOM     21  C   UNL     1      -1.591  11.302  19.576  0.00  0.00    +0.000 A 
ATOM     22 CL   UNL     1      -2.909  11.362  18.467  0.00  0.00    +0.000 Cl
ATOM     23  N   UNL     1      -0.586  10.485  19.149  0.00  0.00    +0.000 NA
ATOM     24  C   UNL     1       2.061   8.518  20.499  0.00  0.00    +0.000 C 
ATOM     25  C   UNL     1       1.464   7.159  20.174  0.00  0.00    +0.000 C 
BRANCH  20  26
ATOM     26  C   UNL     1      -2.711  12.901  21.174  0.00  0.00    +0.000 C 
ATOM     27  F   UNL     1      -2.528  13.440  22.417  0.00  0.00    +0.000 F 
ATOM     28  F   UNL     1      -2.864  13.967  20.344  0.00  0.00    +0.000 F 
ATOM     29  F   UNL     1      -3.920  12.280  21.233  0.00  0.00    +0.000 F 
ENDBRANCH  20  26
ENDBRANCH   6  13
BRANCH   4  30
ATOM     30  C   UNL     1       1.371   3.729  20.433  0.00  0.00    +0.000 C 
ATOM     31  F   UNL     1       1.959   4.484  21.386  0.00  0.00    +0.000 F 
ATOM     32  F   UNL     1       0.210   4.343  20.115  0.00  0.00    +0.000 F 
ATOM     33  F   UNL     1       1.041   2.553  21.035  0.00  0.00    +0.000 F 
ENDBRANCH   4  30
BRANCH   4  34
ATOM     34  O   UNL     1       1.512   3.293  17.982  0.00  0.00    +0.000 OA
ATOM     35  H   UNL     1       0.680   2.841  18.215  0.00  0.00    +0.000 HD
ENDBRANCH   4  34
TORSDOF 4
ENDMDL
MODEL 2
REMARK VINA RESULT:      -7.7      1.023      1.286
REMARK  Name = 
REMARK  4 active torsions:
REMARK  status: ('A' for Active; 'I' for Inactive)
REMARK    1  A    between atoms: C_4  and  O_5
REMARK    2  A    between atoms: C_4  and  C_6
REMARK    3  A    between atoms: C_11  and  C_12
REMARK    4  A    between atoms: C_19  and  C_20
REMARK                            x       y       z     vdW  Elec       q    Type
REMARK                         _______ _______ _______ _____ _____    ______ ____
ROOT
ATOM      1  O   UNL     1       4.860   0.314  19.560  0.00  0.00    +0.000 OA
ATOM      2  C   UNL     1       4.471   1.428  19.209  0.00  0.00    +0.000 C 
ATOM      3  C   UNL     1       3.227   1.574  18.336  0.00  0.00    +0.000 C 
ATOM      4  C   UNL     1       2.552   2.968  18.254  0.00  0.00    +0.000 C 
ATOM      5  C   UNL     1       3.503   4.045  18.677  0.00  0.00    +0.000 A 
ATOM      6  C   UNL     1       3.392   5.468  18.728  0.00  0.00    +0.000 A 
ATOM      7  N   UNL     1       4.511   6.024  19.223  0.00  0.00    +0.000 NA
ATOM      8  N   UNL     1       5.304   4.971  19.521  0.00  0.00    +0.000 N 
ATOM      9  C   UNL     1       4.721   3.777  19.242  0.00  0.00    +0.000 A 
ATOM     10  N   UNL     1       5.212   2.536  19.519  0.00  0.00    +0.000 N 
ATOM     11  H   UNL     1       6.204   5.148  19.951  0.00  0.00    +0.000 HD
ATOM     12  H   UNL     1       6.075   2.391  20.031  0.00  0.00    +0.000 HD
ENDROOT
BRANCH   6  13
ATOM     13  C   UNL     1       2.136   6.282  18.491  0.00  0.00    +0.000 C 
ATOM     14  C   UNL     1       2.242   7.482  17.541  0.00  0.00    +0.000 C 
ATOM     15  C   UNL     1       2.425   8.857  18.187  0.00  0.00    +0.000 C 
ATOM     16  N   UNL     1       1.736   8.997  19.468  0.00  0.00    +0.000 N 
ATOM     17  C   UNL     1       0.630   9.817  19.617  0.00  0.00    +0.000 A 
ATOM     18  C   UNL     1       0.364  10.382  20.867  0.00  0.00    +0.000 A 
ATOM     19  C   UNL     1      -0.726  11.229  21.053  0.00  0.00    +0.000 A 
ATOM     20  C   UNL     1      -1.561  11.516  19.981  0.00  0.00    +0.000 A 
ATOM     21  C   UNL     1      -1.239  10.923  18.774  0.00  0.00    +0.000 A 
ATOM     22 CL   UNL     1      -2.189  11.132  17.353  0.00  0.00    +0.000 Cl
ATOM     23  N   UNL     1      -0.170  10.101  18.571  0.00  0.00    +0.000 NA
ATOM     24  C   UNL     1       1.952   7.915  20.420  0.00  0.00    +0.000 C 
ATOM     25  C   UNL     1       1.445   6.615  19.819  0.00  0.00    +0.000 C 
BRANCH  20  26
ATOM     26  C   UNL     1      -2.732  12.433  20.136  0.00  0.00    +0.000 C 
ATOM     27  F   UNL     1      -3.150  12.533  21.434  0.00  0.00    +0.000 F 
ATOM     28  F   UNL     1      -2.468  13.710  19.749  0.00  0.00    +0.000 F 
ATOM     29  F   UNL     1      -3.831  12.037  19.440  0.00  0.00    +0.000 F 
ENDBRANCH  20  26
ENDBRANCH   6  13
BRANCH   4  30
ATOM     30  C   UNL     1       1.219   2.997  19.081  0.00  0.00    +0.000 C 
ATOM     31  F   UNL     1       0.613   1.792  19.167  0.00  0.00    +0.000 F 
ATOM     32  F   UNL     1       1.370   3.446  20.346  0.00  0.00    +0.000 F 
ATOM     33  F   UNL     1       0.324   3.825  18.474  0.00  0.00    +0.000 F 
ENDBRANCH   4  30
BRANCH   4  34
ATOM     34  O   UNL     1       2.290   3.180  16.837  0.00  0.00    +0.000 OA
ATOM     35  H   UNL     1       2.973   3.783  16.490  0.00  0.00    +0.000 HD
ENDBRANCH   4  34
TORSDOF 4
ENDMDL
MODEL 3
REMARK VINA RESULT:      -7.6      3.987      9.231
REMARK  Name = 
REMARK  4 active torsions:
REMARK  status: ('A' for Active; 'I' for Inactive)
REMARK    1  A    between atoms: C_4  and  O_5
REMARK    2  A    between atoms: C_4  and  C_6
REMARK    3  A    between atoms: C_11  and  C_12
REMARK    4  A    between atoms: C_19  and  C_20
REMARK                            x       y       z     vdW  Elec       q    Type
REMARK                         _______ _______ _______ _____ _____    ______ ____
ROOT
ATOM      1  O   UNL     1      -1.068  15.964  19.243  0.00  0.00    +0.000 OA
ATOM      2  C   UNL     1      -0.581  14.833  19.265  0.00  0.00    +0.000 C 
ATOM      3  C   UNL     1      -1.276  13.705  20.022  0.00  0.00    +0.000 C 
ATOM      4  C   UNL     1      -0.862  12.246  19.700  0.00  0.00    +0.000 C 
ATOM      5  C   UNL     1       0.478  12.207  19.032  0.00  0.00    +0.000 A 
ATOM      6  C   UNL     1       1.309  11.133  18.592  0.00  0.00    +0.000 A 
ATOM      7  N   UNL     1       2.426  11.594  18.003  0.00  0.00    +0.000 NA
ATOM      8  N   UNL     1       2.287  12.938  18.029  0.00  0.00    +0.000 N 
ATOM      9  C   UNL     1       1.123  13.336  18.603  0.00  0.00    +0.000 A 
ATOM     10  N   UNL     1       0.641  14.608  18.690  0.00  0.00    +0.000 N 
ATOM     11  H   UNL     1       3.005  13.508  17.598  0.00  0.00    +0.000 HD
ATOM     12  H   UNL     1       1.110  15.401  18.266  0.00  0.00    +0.000 HD
ENDROOT
BRANCH   6  13
ATOM     13  C   UNL     1       0.938   9.664  18.557  0.00  0.00    +0.000 C 
ATOM     14  C   UNL     1       0.924   8.908  19.892  0.00  0.00    +0.000 C 
ATOM     15  C   UNL     1       2.169   8.084  20.228  0.00  0.00    +0.000 C 
ATOM     16  N   UNL     1       2.811   7.490  19.059  0.00  0.00    +0.000 N 
ATOM     17  C   UNL     1       2.790   6.125  18.827  0.00  0.00    +0.000 A 
ATOM     18  C   UNL     1       3.834   5.540  18.105  0.00  0.00    +0.000 A 
ATOM     19  C   UNL     1       3.861   4.167  17.869  0.00  0.00    +0.000 A 
ATOM     20  C   UNL     1       2.837   3.368  18.361  0.00  0.00    +0.000 A 
ATOM     21  C   UNL     1       1.838   4.012  19.067  0.00  0.00    +0.000 A 
ATOM     22 CL   UNL     1       0.470   3.185  19.708  0.00  0.00    +0.000 Cl
ATOM     23  N   UNL     1       1.801   5.353  19.316  0.00  0.00    +0.000 NA
ATOM     24  C   UNL     1       3.044   8.396  17.941  0.00  0.00    +0.000 C 
ATOM     25  C   UNL     1       1.710   8.934  17.451  0.00  0.00    +0.000 C 
BRANCH  20  26
ATOM     26  C   UNL     1       2.838   1.888  18.144  0.00  0.00    +0.000 C 
ATOM     27  F   UNL     1       1.840   1.483  17.302  0.00  0.00    +0.000 F 
ATOM     28  F   UNL     1       3.987   1.430  17.578  0.00  0.00    +0.000 F 
ATOM     29  F   UNL     1       2.653   1.170  19.283  0.00  0.00    +0.000 F 
ENDBRANCH  20  26
ENDBRANCH   6  13
BRANCH   4  30
ATOM     30  C   UNL     1      -1.967  11.523  18.851  0.00  0.00    +0.000 C 
ATOM     31  F   UNL     1      -1.897  11.797  17.530  0.00  0.00    +0.000 F 
ATOM     32  F   UNL     1      -1.952  10.177  18.968  0.00  0.00    +0.000 F 
ATOM     33  F   UNL     1      -3.198  11.939  19.257  0.00  0.00    +0.000 F 
ENDBRANCH   4  30
BRANCH   4  34
ATOM     34  O   UNL     1      -0.698  11.602  20.996  0.00  0.00    +0.000 OA
ATOM     35  H   UNL     1      -0.646  10.639  20.851  0.00  0.00    +0.000 HD
ENDBRANCH   4  34
TORSDOF 4
ENDMDL
MODEL 4
REMARK VINA RESULT:      -7.1      4.829     10.277
REMARK  Name = 
REMARK  4 active torsions:
REMARK  status: ('A' for Active; 'I' for Inactive)
REMARK    1  A    between atoms: C_4  and  O_5
REMARK    2  A    between atoms: C_4  and  C_6
REMARK    3  A    between atoms: C_11  and  C_12
REMARK    4  A    between atoms: C_19  and  C_20
REMARK                            x       y       z     vdW  Elec       q    Type
REMARK                         _______ _______ _______ _____ _____    ______ ____
ROOT
ATOM      1  O   UNL     1      -5.127  16.912  24.597  0.00  0.00    +0.000 OA
ATOM      2  C   UNL     1      -4.379  16.169  23.962  0.00  0.00    +0.000 C 
ATOM      3  C   UNL     1      -3.593  15.071  24.672  0.00  0.00    +0.000 C 
ATOM      4  C   UNL     1      -2.993  13.928  23.811  0.00  0.00    +0.000 C 
ATOM      5  C   UNL     1      -2.892  14.341  22.375  0.00  0.00    +0.000 A 
ATOM      6  C   UNL     1      -2.371  13.690  21.216  0.00  0.00    +0.000 A 
ATOM      7  N   UNL     1      -2.536  14.449  20.119  0.00  0.00    +0.000 NA
ATOM      8  N   UNL     1      -3.188  15.544  20.565  0.00  0.00    +0.000 N 
ATOM      9  C   UNL     1      -3.447  15.497  21.897  0.00  0.00    +0.000 A 
ATOM     10  N   UNL     1      -4.174  16.391  22.626  0.00  0.00    +0.000 N 
ATOM     11  H   UNL     1      -3.459  16.254  19.895  0.00  0.00    +0.000 HD
ATOM     12  H   UNL     1      -4.651  17.181  22.206  0.00  0.00    +0.000 HD
ENDROOT
BRANCH   6  13
ATOM     13  C   UNL     1      -1.897  12.253  21.128  0.00  0.00    +0.000 C 
ATOM     14  C   UNL     1      -0.701  11.850  22.001  0.00  0.00    +0.000 C 
ATOM     15  C   UNL     1       0.671  11.833  21.324  0.00  0.00    +0.000 C 
ATOM     16  N   UNL     1       0.625  11.434  19.920  0.00  0.00    +0.000 N 
ATOM     17  C   UNL     1       1.139  10.223  19.486  0.00  0.00    +0.000 A 
ATOM     18  C   UNL     1       1.611  10.114  18.175  0.00  0.00    +0.000 A 
ATOM     19  C   UNL     1       2.156   8.920  17.707  0.00  0.00    +0.000 A 
ATOM     20  C   UNL     1       2.232   7.823  18.555  0.00  0.00    +0.000 A 
ATOM     21  C   UNL     1       1.748   8.003  19.838  0.00  0.00    +0.000 A 
ATOM     22 CL   UNL     1       1.722   6.738  21.007  0.00  0.00    +0.000 Cl
ATOM     23  N   UNL     1       1.221   9.166  20.316  0.00  0.00    +0.000 NA
ATOM     24  C   UNL     1      -0.376  12.113  19.106  0.00  0.00    +0.000 C 
ATOM     25  C   UNL     1      -1.757  11.816  19.665  0.00  0.00    +0.000 C 
BRANCH  20  26
ATOM     26  C   UNL     1       2.825   6.530  18.096  0.00  0.00    +0.000 C 
ATOM     27  F   UNL     1       1.875   5.585  17.829  0.00  0.00    +0.000 F 
ATOM     28  F   UNL     1       3.542   6.646  16.946  0.00  0.00    +0.000 F 
ATOM     29  F   UNL     1       3.651   5.953  19.011  0.00  0.00    +0.000 F 
ENDBRANCH  20  26
ENDBRANCH   6  13
BRANCH   4  30
ATOM     30  C   UNL     1      -3.812  12.601  23.990  0.00  0.00    +0.000 C 
ATOM     31  F   UNL     1      -3.060  11.485  23.873  0.00  0.00    +0.000 F 
ATOM     32  F   UNL     1      -4.456  12.511  25.174  0.00  0.00    +0.000 F 
ATOM     33  F   UNL     1      -4.762  12.518  23.018  0.00  0.00    +0.000 F 
ENDBRANCH   4  30
BRANCH   4  34
ATOM     34  O   UNL     1      -1.628  13.765  24.293  0.00  0.00    +0.000 OA
ATOM     35  H   UNL     1      -1.564  12.897  24.733  0.00  0.00    +0.000 HD
ENDBRANCH   4  34
TORSDOF 4
ENDMDL
MODEL 5
REMARK VINA RESULT:      -7.1      4.282      9.716
REMARK  Name = 
REMARK  4 active torsions:
REMARK  status: ('A' for Active; 'I' for Inactive)
REMARK    1  A    between atoms: C_4  and  O_5
REMARK    2  A    between atoms: C_4  and  C_6
REMARK    3  A    between atoms: C_11  and  C_12
REMARK    4  A    between atoms: C_19  and  C_20
REMARK                            x       y       z     vdW  Elec       q    Type
REMARK                         _______ _______ _______ _____ _____    ______ ____
ROOT
ATOM      1  O   UNL     1      -3.437  16.817  22.898  0.00  0.00    +0.000 OA
ATOM      2  C   UNL     1      -2.773  15.877  22.460  0.00  0.00    +0.000 C 
ATOM      3  C   UNL     1      -2.277  14.778  23.396  0.00  0.00    +0.000 C 
ATOM      4  C   UNL     1      -1.806  13.440  22.767  0.00  0.00    +0.000 C 
ATOM      5  C   UNL     1      -1.483  13.620  21.316  0.00  0.00    +0.000 A 
ATOM      6  C   UNL     1      -0.970  12.732  20.322  0.00  0.00    +0.000 A 
ATOM      7  N   UNL     1      -0.879  13.341  19.127  0.00  0.00    +0.000 NA
ATOM      8  N   UNL     1      -1.366  14.582  19.348  0.00  0.00    +0.000 N 
ATOM      9  C   UNL     1      -1.767  14.771  20.630  0.00  0.00    +0.000 A 
ATOM     10  N   UNL     1      -2.393  15.867  21.145  0.00  0.00    +0.000 N 
ATOM     11  H   UNL     1      -1.433  15.223  18.566  0.00  0.00    +0.000 HD
ATOM     12  H   UNL     1      -2.673  16.656  20.573  0.00  0.00    +0.000 HD
ENDROOT
BRANCH   6  13
ATOM     13  C   UNL     1      -0.756  11.239  20.473  0.00  0.00    +0.000 C 
ATOM     14  C   UNL     1       0.376  10.780  21.402  0.00  0.00    +0.000 C 
ATOM     15  C   UNL     1       1.704  10.409  20.737  0.00  0.00    +0.000 C 
ATOM     16  N   UNL     1       1.548   9.801  19.418  0.00  0.00    +0.000 N 
ATOM     17  C   UNL     1       1.831   8.465  19.191  0.00  0.00    +0.000 A 
ATOM     18  C   UNL     1       2.238   8.061  17.917  0.00  0.00    +0.000 A 
ATOM     19  C   UNL     1       2.553   6.729  17.654  0.00  0.00    +0.000 A 
ATOM     20  C   UNL     1       2.462   5.790  18.672  0.00  0.00    +0.000 A 
ATOM     21  C   UNL     1       2.054   6.259  19.907  0.00  0.00    +0.000 A 
ATOM     22 CL   UNL     1       1.842   5.227  21.270  0.00  0.00    +0.000 Cl
ATOM     23  N   UNL     1       1.752   7.560  20.186  0.00  0.00    +0.000 NA
ATOM     24  C   UNL     1       0.658  10.504  18.503  0.00  0.00    +0.000 C 
ATOM     25  C   UNL     1      -0.737  10.551  19.103  0.00  0.00    +0.000 C 
BRANCH  20  26
ATOM     26  C   UNL     1       2.807   4.354  18.434  0.00  0.00    +0.000 C 
ATOM     27  F   UNL     1       1.787   3.509  18.772  0.00  0.00    +0.000 F 
ATOM     28  F   UNL     1       3.080   4.077  17.131  0.00  0.00    +0.000 F 
ATOM     29  F   UNL     1       3.877   3.924  19.155  0.00  0.00    +0.000 F 
ENDBRANCH  20  26
ENDBRANCH   6  13
BRANCH   4  30
ATOM     30  C   UNL     1      -2.865  12.306  23.002  0.00  0.00    +0.000 C 
ATOM     31  F   UNL     1      -3.692  12.548  24.043  0.00  0.00    +0.000 F 
ATOM     32  F   UNL     1      -3.652  12.063  21.931  0.00  0.00    +0.000 F 
ATOM     33  F   UNL     1      -2.226  11.139  23.292  0.00  0.00    +0.000 F 
ENDBRANCH   4  30
BRANCH   4  34
ATOM     34  O   UNL     1      -0.551  13.126  23.436  0.00  0.00    +0.000 OA
ATOM     35  H   UNL     1      -0.588  12.197  23.728  0.00  0.00    +0.000 HD
ENDBRANCH   4  34
TORSDOF 4
ENDMDL
MODEL 6
REMARK VINA RESULT:      -7.1      4.686     10.208
REMARK  Name = 
REMARK  4 active torsions:
REMARK  status: ('A' for Active; 'I' for Inactive)
REMARK    1  A    between atoms: C_4  and  O_5
REMARK    2  A    between atoms: C_4  and  C_6
REMARK    3  A    between atoms: C_11  and  C_12
REMARK    4  A    between atoms: C_19  and  C_20
REMARK                            x       y       z     vdW  Elec       q    Type
REMARK                         _______ _______ _______ _____ _____    ______ ____
ROOT
ATOM      1  O   UNL     1      -7.278  16.099  19.687  0.00  0.00    +0.000 OA
ATOM      2  C   UNL     1      -6.334  15.389  20.035  0.00  0.00    +0.000 C 
ATOM      3  C   UNL     1      -6.572  13.949  20.482  0.00  0.00    +0.000 C 
ATOM      4  C   UNL     1      -5.357  12.986  20.522  0.00  0.00    +0.000 C 
ATOM      5  C   UNL     1      -4.071  13.753  20.558  0.00  0.00    +0.000 A 
ATOM      6  C   UNL     1      -2.705  13.348  20.653  0.00  0.00    +0.000 A 
ATOM      7  N   UNL     1      -1.881  14.409  20.610  0.00  0.00    +0.000 NA
ATOM      8  N   UNL     1      -2.706  15.467  20.447  0.00  0.00    +0.000 N 
ATOM      9  C   UNL     1      -4.013  15.109  20.377  0.00  0.00    +0.000 A 
ATOM     10  N   UNL     1      -5.076  15.922  20.115  0.00  0.00    +0.000 N 
ATOM     11  H   UNL     1      -2.298  16.389  20.348  0.00  0.00    +0.000 HD
ATOM     12  H   UNL     1      -4.970  16.904  19.887  0.00  0.00    +0.000 HD
ENDROOT
BRANCH   6  13
ATOM     13  C   UNL     1      -2.181  11.928  20.583  0.00  0.00    +0.000 C 
ATOM     14  C   UNL     1      -1.126  11.514  21.617  0.00  0.00    +0.000 C 
ATOM     15  C   UNL     1       0.335  11.557  21.164  0.00  0.00    +0.000 C 
ATOM     16  N   UNL     1       0.521  11.220  19.755  0.00  0.00    +0.000 N 
ATOM     17  C   UNL     1       1.132  10.042  19.359  0.00  0.00    +0.000 A 
ATOM     18  C   UNL     1       1.807  10.002  18.136  0.00  0.00    +0.000 A 
ATOM     19  C   UNL     1       2.453   8.842  17.712  0.00  0.00    +0.000 A 
ATOM     20  C   UNL     1       2.428   7.711  18.517  0.00  0.00    +0.000 A 
ATOM     21  C   UNL     1       1.743   7.822  19.713  0.00  0.00    +0.000 A 
ATOM     22 CL   UNL     1       1.572   6.506  20.812  0.00  0.00    +0.000 Cl
ATOM     23  N   UNL     1       1.115   8.951  20.149  0.00  0.00    +0.000 NA
ATOM     24  C   UNL     1      -0.359  11.912  18.822  0.00  0.00    +0.000 C 
ATOM     25  C   UNL     1      -1.801  11.559  19.143  0.00  0.00    +0.000 C 
BRANCH  20  26
ATOM     26  C   UNL     1       3.123   6.453  18.105  0.00  0.00    +0.000 C 
ATOM     27  F   UNL     1       3.969   5.983  19.070  0.00  0.00    +0.000 F 
ATOM     28  F   UNL     1       2.267   5.425  17.853  0.00  0.00    +0.000 F 
ATOM     29  F   UNL     1       3.896   6.594  16.995  0.00  0.00    +0.000 F 
ENDBRANCH  20  26
ENDBRANCH   6  13
BRANCH   4  30
ATOM     30  C   UNL     1      -5.406  11.969  19.327  0.00  0.00    +0.000 C 
ATOM     31  F   UNL     1      -4.695  12.370  18.250  0.00  0.00    +0.000 F 
ATOM     32  F   UNL     1      -4.965  10.732  19.644  0.00  0.00    +0.000 F 
ATOM     33  F   UNL     1      -6.691  11.830  18.900  0.00  0.00    +0.000 F 
ENDBRANCH   4  30
BRANCH   4  34
ATOM     34  O   UNL     1      -5.462  12.293  21.799  0.00  0.00    +0.000 OA
ATOM     35  H   UNL     1      -4.644  12.461  22.302  0.00  0.00    +0.000 HD
ENDBRANCH   4  34
TORSDOF 4
ENDMDL
MODEL 7
REMARK VINA RESULT:      -7.1      4.539     10.074
REMARK  Name = 
REMARK  4 active torsions:
REMARK  status: ('A' for Active; 'I' for Inactive)
REMARK    1  A    between atoms: C_4  and  O_5
REMARK    2  A    between atoms: C_4  and  C_6
REMARK    3  A    between atoms: C_11  and  C_12
REMARK    4  A    between atoms: C_19  and  C_20
REMARK                            x       y       z     vdW  Elec       q    Type
REMARK                         _______ _______ _______ _____ _____    ______ ____
ROOT
ATOM      1  O   UNL     1      -4.530  17.132  23.284  0.00  0.00    +0.000 OA
ATOM      2  C   UNL     1      -3.751  16.286  22.845  0.00  0.00    +0.000 C 
ATOM      3  C   UNL     1      -3.273  15.139  23.732  0.00  0.00    +0.000 C 
ATOM      4  C   UNL     1      -2.634  13.903  23.047  0.00  0.00    +0.000 C 
ATOM      5  C   UNL     1      -2.172  14.241  21.664  0.00  0.00    +0.000 A 
ATOM      6  C   UNL     1      -1.487  13.490  20.662  0.00  0.00    +0.000 A 
ATOM      7  N   UNL     1      -1.316  14.214  19.543  0.00  0.00    +0.000 NA
ATOM      8  N   UNL     1      -1.921  15.392  19.813  0.00  0.00    +0.000 N 
ATOM      9  C   UNL     1      -2.471  15.430  21.053  0.00  0.00    +0.000 A 
ATOM     10  N   UNL     1      -3.232  16.427  21.586  0.00  0.00    +0.000 N 
ATOM     11  H   UNL     1      -1.953  16.098  19.087  0.00  0.00    +0.000 HD
ATOM     12  H   UNL     1      -3.511  17.246  21.056  0.00  0.00    +0.000 HD
ENDROOT
BRANCH   6  13
ATOM     13  C   UNL     1      -1.173  12.007  20.706  0.00  0.00    +0.000 C 
ATOM     14  C   UNL     1       0.000  11.561  21.589  0.00  0.00    +0.000 C 
ATOM     15  C   UNL     1       1.339  11.326  20.886  0.00  0.00    +0.000 C 
ATOM     16  N   UNL     1       1.204  10.801  19.530  0.00  0.00    +0.000 N 
ATOM     17  C   UNL     1       1.570   9.505  19.207  0.00  0.00    +0.000 A 
ATOM     18  C   UNL     1       1.984   9.219  17.904  0.00  0.00    +0.000 A 
ATOM     19  C   UNL     1       2.382   7.932  17.545  0.00  0.00    +0.000 A 
ATOM     20  C   UNL     1       2.367   6.921  18.496  0.00  0.00    +0.000 A 
ATOM     21  C   UNL     1       1.947   7.275  19.765  0.00  0.00    +0.000 A 
ATOM     22 CL   UNL     1       1.823   6.140  21.055  0.00  0.00    +0.000 Cl
ATOM     23  N   UNL     1       1.565   8.531  20.137  0.00  0.00    +0.000 NA
ATOM     24  C   UNL     1       0.257  11.505  18.675  0.00  0.00    +0.000 C 
ATOM     25  C   UNL     1      -1.129  11.418  19.291  0.00  0.00    +0.000 C 
BRANCH  20  26
ATOM     26  C   UNL     1       2.802   5.531  18.155  0.00  0.00    +0.000 C 
ATOM     27  F   UNL     1       3.576   5.487  17.030  0.00  0.00    +0.000 F 
ATOM     28  F   UNL     1       3.556   4.951  19.127  0.00  0.00    +0.000 F 
ATOM     29  F   UNL     1       1.769   4.682  17.908  0.00  0.00    +0.000 F 
ENDBRANCH  20  26
ENDBRANCH   6  13
BRANCH   4  30
ATOM     30  C   UNL     1      -3.620  12.681  23.060  0.00  0.00    +0.000 C 
ATOM     31  F   UNL     1      -4.218  12.460  21.869  0.00  0.00    +0.000 F 
ATOM     32  F   UNL     1      -3.040  11.516  23.424  0.00  0.00    +0.000 F 
ATOM     33  F   UNL     1      -4.624  12.916  23.948  0.00  0.00    +0.000 F 
ENDBRANCH   4  30
BRANCH   4  34
ATOM     34  O   UNL     1      -1.437  13.614  23.825  0.00  0.00    +0.000 OA
ATOM     35  H   UNL     1      -1.435  12.661  24.032  0.00  0.00    +0.000 HD
ENDBRANCH   4  34
TORSDOF 4
ENDMDL
MODEL 8
REMARK VINA RESULT:      -6.9      4.273      6.853
REMARK  Name = 
REMARK  4 active torsions:
REMARK  status: ('A' for Active; 'I' for Inactive)
REMARK    1  A    between atoms: C_4  and  O_5
REMARK    2  A    between atoms: C_4  and  C_6
REMARK    3  A    between atoms: C_11  and  C_12
REMARK    4  A    between atoms: C_19  and  C_20
REMARK                            x       y       z     vdW  Elec       q    Type
REMARK                         _______ _______ _______ _____ _____    ______ ____
ROOT
ATOM      1  O   UNL     1       2.114   6.598  19.525  0.00  0.00    +0.000 OA
ATOM      2  C   UNL     1       1.739   7.683  19.969  0.00  0.00    +0.000 C 
ATOM      3  C   UNL     1       1.681   8.911  19.065  0.00  0.00    +0.000 C 
ATOM      4  C   UNL     1       0.843  10.128  19.537  0.00  0.00    +0.000 C 
ATOM      5  C   UNL     1       0.608  10.070  21.015  0.00  0.00    +0.000 A 
ATOM      6  C   UNL     1      -0.043  10.955  21.926  0.00  0.00    +0.000 A 
ATOM      7  N   UNL     1      -0.040  10.456  23.174  0.00  0.00    +0.000 NA
ATOM      8  N   UNL     1       0.565   9.254  23.051  0.00  0.00    +0.000 N 
ATOM      9  C   UNL     1       0.932   8.977  21.774  0.00  0.00    +0.000 A 
ATOM     10  N   UNL     1       1.466   7.814  21.304  0.00  0.00    +0.000 N 
ATOM     11  H   UNL     1       0.649   8.666  23.872  0.00  0.00    +0.000 HD
ATOM     12  H   UNL     1       1.594   6.995  21.889  0.00  0.00    +0.000 HD
ENDROOT
BRANCH   6  13
ATOM     13  C   UNL     1      -0.846  12.188  21.564  0.00  0.00    +0.000 C 
ATOM     14  C   UNL     1      -0.410  13.522  22.185  0.00  0.00    +0.000 C 
ATOM     15  C   UNL     1      -1.175  13.985  23.427  0.00  0.00    +0.000 C 
ATOM     16  N   UNL     1      -2.587  13.611  23.418  0.00  0.00    +0.000 N 
ATOM     17  C   UNL     1      -3.592  14.551  23.269  0.00  0.00    +0.000 A 
ATOM     18  C   UNL     1      -4.848  14.300  23.827  0.00  0.00    +0.000 A 
ATOM     19  C   UNL     1      -5.880  15.231  23.719  0.00  0.00    +0.000 A 
ATOM     20  C   UNL     1      -5.656  16.426  23.048  0.00  0.00    +0.000 A 
ATOM     21  C   UNL     1      -4.390  16.608  22.522  0.00  0.00    +0.000 A 
ATOM     22 CL   UNL     1      -3.951  18.009  21.620  0.00  0.00    +0.000 Cl
ATOM     23  N   UNL     1      -3.366  15.714  22.627  0.00  0.00    +0.000 NA
ATOM     24  C   UNL     1      -2.865  12.217  23.095  0.00  0.00    +0.000 C 
ATOM     25  C   UNL     1      -2.350  11.917  21.698  0.00  0.00    +0.000 C 
BRANCH  20  26
ATOM     26  C   UNL     1      -6.732  17.457  22.924  0.00  0.00    +0.000 C 
ATOM     27  F   UNL     1      -6.404  18.631  23.543  0.00  0.00    +0.000 F 
ATOM     28  F   UNL     1      -7.001  17.799  21.635  0.00  0.00    +0.000 F 
ATOM     29  F   UNL     1      -7.914  17.081  23.481  0.00  0.00    +0.000 F 
ENDBRANCH  20  26
ENDBRANCH   6  13
BRANCH   4  30
ATOM     30  C   UNL     1      -0.498  10.235  18.728  0.00  0.00    +0.000 C 
ATOM     31  F   UNL     1      -0.889  11.508  18.503  0.00  0.00    +0.000 F 
ATOM     32  F   UNL     1      -0.459   9.623  17.524  0.00  0.00    +0.000 F 
ATOM     33  F   UNL     1      -1.504   9.651  19.435  0.00  0.00    +0.000 F 
ENDBRANCH   4  30
BRANCH   4  34
ATOM     34  O   UNL     1       1.690  11.289  19.297  0.00  0.00    +0.000 OA
ATOM     35  H   UNL     1       2.087  11.195  18.412  0.00  0.00    +0.000 HD
ENDBRANCH   4  34
TORSDOF 4
ENDMDL
MODEL 9
REMARK VINA RESULT:      -6.8      4.166      6.747
REMARK  Name = 
REMARK  4 active torsions:
REMARK  status: ('A' for Active; 'I' for Inactive)
REMARK    1  A    between atoms: C_4  and  O_5
REMARK    2  A    between atoms: C_4  and  C_6
REMARK    3  A    between atoms: C_11  and  C_12
REMARK    4  A    between atoms: C_19  and  C_20
REMARK                            x       y       z     vdW  Elec       q    Type
REMARK                         _______ _______ _______ _____ _____    ______ ____
ROOT
ATOM      1  O   UNL     1       2.247   6.782  18.729  0.00  0.00    +0.000 OA
ATOM      2  C   UNL     1       1.894   7.855  19.219  0.00  0.00    +0.000 C 
ATOM      3  C   UNL     1       1.665   9.074  18.330  0.00  0.00    +0.000 C 
ATOM      4  C   UNL     1       0.852  10.260  18.911  0.00  0.00    +0.000 C 
ATOM      5  C   UNL     1       0.824  10.203  20.407  0.00  0.00    +0.000 A 
ATOM      6  C   UNL     1       0.269  11.068  21.398  0.00  0.00    +0.000 A 
ATOM      7  N   UNL     1       0.462  10.577  22.634  0.00  0.00    +0.000 NA
ATOM      8  N   UNL     1       1.091   9.399  22.431  0.00  0.00    +0.000 N 
ATOM      9  C   UNL     1       1.291   9.128  21.116  0.00  0.00    +0.000 A 
ATOM     10  N   UNL     1       1.801   7.983  20.579  0.00  0.00    +0.000 N 
ATOM     11  H   UNL     1       1.309   8.820  23.234  0.00  0.00    +0.000 HD
ATOM     12  H   UNL     1       2.039   7.174  21.141  0.00  0.00    +0.000 HD
ENDROOT
BRANCH   6  13
ATOM     13  C   UNL     1      -0.624  12.267  21.148  0.00  0.00    +0.000 C 
ATOM     14  C   UNL     1      -0.239  13.587  21.829  0.00  0.00    +0.000 C 
ATOM     15  C   UNL     1      -0.970  13.929  23.129  0.00  0.00    +0.000 C 
ATOM     16  N   UNL     1      -2.356  13.467  23.161  0.00  0.00    +0.000 N 
ATOM     17  C   UNL     1      -3.422  14.349  23.115  0.00  0.00    +0.000 A 
ATOM     18  C   UNL     1      -4.632  13.987  23.712  0.00  0.00    +0.000 A 
ATOM     19  C   UNL     1      -5.722  14.855  23.706  0.00  0.00    +0.000 A 
ATOM     20  C   UNL     1      -5.604  16.099  23.100  0.00  0.00    +0.000 A 
ATOM     21  C   UNL     1      -4.378  16.391  22.530  0.00  0.00    +0.000 A 
ATOM     22 CL   UNL     1      -4.068  17.867  21.697  0.00  0.00    +0.000 Cl
ATOM     23  N   UNL     1      -3.298  15.559  22.535  0.00  0.00    +0.000 NA
ATOM     24  C   UNL     1      -2.565  12.079  22.767  0.00  0.00    +0.000 C 
ATOM     25  C   UNL     1      -2.100  11.894  21.332  0.00  0.00    +0.000 C 
BRANCH  20  26
ATOM     26  C   UNL     1      -6.744  17.066  23.087  0.00  0.00    +0.000 C 
ATOM     27  F   UNL     1      -7.065  17.479  21.824  0.00  0.00    +0.000 F 
ATOM     28  F   UNL     1      -7.894  16.545  23.593  0.00  0.00    +0.000 F 
ATOM     29  F   UNL     1      -6.498  18.209  23.782  0.00  0.00    +0.000 F 
ENDBRANCH  20  26
ENDBRANCH   6  13
BRANCH   4  30
ATOM     30  C   UNL     1      -0.590  10.311  18.293  0.00  0.00    +0.000 C 
ATOM     31  F   UNL     1      -1.538   9.779  19.095  0.00  0.00    +0.000 F 
ATOM     32  F   UNL     1      -1.005  11.557  17.976  0.00  0.00    +0.000 F 
ATOM     33  F   UNL     1      -0.618   9.582  17.143  0.00  0.00    +0.000 F 
ENDBRANCH   4  30
BRANCH   4  34
ATOM     34  O   UNL     1       1.612  11.451  18.557  0.00  0.00    +0.000 OA
ATOM     35  H   UNL     1       2.557  11.214  18.544  0.00  0.00    +0.000 HD
ENDBRANCH   4  34
TORSDOF 4
ENDMDL
