MODEL 1
REMARK VINA RESULT:      -8.6      0.000      0.000
REMARK  Name = 
REMARK  4 active torsions:
REMARK  status: ('A' for Active; 'I' for Inactive)
REMARK    1  A    between atoms: C_4  and  C_5
REMARK    2  A    between atoms: C_7  and  C_8
REMARK    3  A    between atoms: C_8  and  C_9
REMARK    4  A    between atoms: C_9  and  C_10
REMARK                            x       y       z     vdW  Elec       q    Type
REMARK                         _______ _______ _______ _____ _____    ______ ____
ROOT
ATOM      1  C   UNL     1       3.748   6.680  18.049  0.00  0.00    +0.000 A 
ATOM      2  C   UNL     1       3.586   6.298  19.369  0.00  0.00    +0.000 A 
ATOM      3  C   UNL     1       2.447   6.700  20.040  0.00  0.00    +0.000 A 
ATOM      4  C   UNL     1       1.885   7.902  19.660  0.00  0.00    +0.000 A 
ATOM      5  C   UNL     1       1.130   8.670  20.573  0.00  0.00    +0.000 A 
ATOM      6  C   UNL     1       0.585   9.882  20.183  0.00  0.00    +0.000 A 
ATOM      7  C   UNL     1       0.737  10.283  18.855  0.00  0.00    +0.000 A 
ATOM      8  C   UNL     1       1.496   9.515  17.957  0.00  0.00    +0.000 A 
ATOM      9  C   UNL     1       2.146   8.350  18.356  0.00  0.00    +0.000 A 
ATOM     10  N   UNL     1       2.992   7.679  17.516  0.00  0.00    +0.000 NA
ENDROOT
BRANCH   1  14
ATOM     11  C   UNL     1       6.672   4.381  15.887  0.00  0.00    +0.000 A 
ATOM     12  C   UNL     1       5.392   3.883  16.055  0.00  0.00    +0.000 A 
ATOM     13  C   UNL     1       4.436   4.676  16.683  0.00  0.00    +0.000 A 
ATOM     14  C   UNL     1       4.732   5.960  17.206  0.00  0.00    +0.000 A 
ATOM     15  C   UNL     1       6.006   6.471  16.937  0.00  0.00    +0.000 A 
ATOM     16  C   UNL     1       6.969   5.683  16.291  0.00  0.00    +0.000 A 
ENDBRANCH   1  14
BRANCH   3  17
ATOM     17  C   UNL     1       1.588   5.620  20.673  0.00  0.00    +0.000 C 
BRANCH  17  18
ATOM     18  C   UNL     1       2.318   4.415  21.271  0.00  0.00    +0.000 C 
BRANCH  18  19
ATOM     19  C   UNL     1       2.238   3.211  20.346  0.00  0.00    +0.000 C 
ATOM     20  C   UNL     1       1.166   3.348  19.256  0.00  0.00    +0.000 C 
ATOM     21  C   UNL     1       1.082   2.048  18.471  0.00  0.00    +0.000 C 
ATOM     22  N   UNL     1       2.369   1.660  17.890  0.00  0.00    +0.000 NA
ATOM     23  C   UNL     1       3.443   1.609  18.889  0.00  0.00    +0.000 C 
ATOM     24  C   UNL     1       3.576   2.918  19.660  0.00  0.00    +0.000 C 
ATOM     25  H   UNL     1       2.622   2.342  17.177  0.00  0.00    +0.000 HD
ENDBRANCH  18  19
ENDBRANCH  17  18
ENDBRANCH   3  17
TORSDOF 4
ENDMDL
MODEL 2
REMARK VINA RESULT:      -8.4      1.001      1.179
REMARK  Name = 
REMARK  4 active torsions:
REMARK  status: ('A' for Active; 'I' for Inactive)
REMARK    1  A    between atoms: C_4  and  C_5
REMARK    2  A    between atoms: C_7  and  C_8
REMARK    3  A    between atoms: C_8  and  C_9
REMARK    4  A    between atoms: C_9  and  C_10
REMARK                            x       y       z     vdW  Elec       q    Type
REMARK                         _______ _______ _______ _____ _____    ______ ____
ROOT
ATOM      1  C   UNL     1       4.055   6.322  18.108  0.00  0.00    +0.000 A 
ATOM      2  C   UNL     1       3.954   5.954  19.438  0.00  0.00    +0.000 A 
ATOM      3  C   UNL     1       2.808   6.290  20.133  0.00  0.00    +0.000 A 
ATOM      4  C   UNL     1       2.156   7.445  19.749  0.00  0.00    +0.000 A 
ATOM      5  C   UNL     1       1.375   8.176  20.670  0.00  0.00    +0.000 A 
ATOM      6  C   UNL     1       0.740   9.342  20.275  0.00  0.00    +0.000 A 
ATOM      7  C   UNL     1       0.829   9.728  18.938  0.00  0.00    +0.000 A 
ATOM      8  C   UNL     1       1.614   8.997  18.031  0.00  0.00    +0.000 A 
ATOM      9  C   UNL     1       2.352   7.886  18.432  0.00  0.00    +0.000 A 
ATOM     10  N   UNL     1       3.219   7.259  17.579  0.00  0.00    +0.000 NA
ENDROOT
BRANCH   1  14
ATOM     11  C   UNL     1       7.204   4.661  15.693  0.00  0.00    +0.000 A 
ATOM     12  C   UNL     1       7.234   4.502  17.067  0.00  0.00    +0.000 A 
ATOM     13  C   UNL     1       6.165   4.972  17.824  0.00  0.00    +0.000 A 
ATOM     14  C   UNL     1       5.063   5.655  17.250  0.00  0.00    +0.000 A 
ATOM     15  C   UNL     1       5.019   5.716  15.853  0.00  0.00    +0.000 A 
ATOM     16  C   UNL     1       6.085   5.230  15.084  0.00  0.00    +0.000 A 
ENDBRANCH   1  14
BRANCH   3  17
ATOM     17  C   UNL     1       2.041   5.167  20.807  0.00  0.00    +0.000 C 
BRANCH  17  18
ATOM     18  C   UNL     1       1.091   4.351  19.926  0.00  0.00    +0.000 C 
BRANCH  18  19
ATOM     19  C   UNL     1       1.815   3.186  19.270  0.00  0.00    +0.000 C 
ATOM     20  C   UNL     1       2.132   3.422  17.786  0.00  0.00    +0.000 C 
ATOM     21  C   UNL     1       2.738   2.158  17.197  0.00  0.00    +0.000 C 
ATOM     22  N   UNL     1       3.932   1.717  17.923  0.00  0.00    +0.000 NA
ATOM     23  C   UNL     1       3.691   1.570  19.362  0.00  0.00    +0.000 C 
ATOM     24  C   UNL     1       3.124   2.841  19.986  0.00  0.00    +0.000 C 
ATOM     25  H   UNL     1       4.667   2.408  17.786  0.00  0.00    +0.000 HD
ENDBRANCH  18  19
ENDBRANCH  17  18
ENDBRANCH   3  17
TORSDOF 4
ENDMDL
MODEL 3
REMARK VINA RESULT:      -8.4      0.941      1.410
REMARK  Name = 
REMARK  4 active torsions:
REMARK  status: ('A' for Active; 'I' for Inactive)
REMARK    1  A    between atoms: C_4  and  C_5
REMARK    2  A    between atoms: C_7  and  C_8
REMARK    3  A    between atoms: C_8  and  C_9
REMARK    4  A    between atoms: C_9  and  C_10
REMARK                            x       y       z     vdW  Elec       q    Type
REMARK                         _______ _______ _______ _____ _____    ______ ____
ROOT
ATOM      1  C   UNL     1       3.909   6.493  18.103  0.00  0.00    +0.000 A 
ATOM      2  C   UNL     1       3.694   6.125  19.420  0.00  0.00    +0.000 A 
ATOM      3  C   UNL     1       2.528   6.532  20.039  0.00  0.00    +0.000 A 
ATOM      4  C   UNL     1       1.980   7.730  19.623  0.00  0.00    +0.000 A 
ATOM      5  C   UNL     1       1.187   8.506  20.497  0.00  0.00    +0.000 A 
ATOM      6  C   UNL     1       0.658   9.713  20.071  0.00  0.00    +0.000 A 
ATOM      7  C   UNL     1       0.863  10.100  18.747  0.00  0.00    +0.000 A 
ATOM      8  C   UNL     1       1.659   9.323  17.888  0.00  0.00    +0.000 A 
ATOM      9  C   UNL     1       2.294   8.164  18.326  0.00  0.00    +0.000 A 
ATOM     10  N   UNL     1       3.174   7.485  17.528  0.00  0.00    +0.000 NA
ENDROOT
BRANCH   1  14
ATOM     11  C   UNL     1       7.100   4.643  15.889  0.00  0.00    +0.000 A 
ATOM     12  C   UNL     1       7.029   4.478  17.260  0.00  0.00    +0.000 A 
ATOM     13  C   UNL     1       5.943   5.013  17.949  0.00  0.00    +0.000 A 
ATOM     14  C   UNL     1       4.927   5.766  17.309  0.00  0.00    +0.000 A 
ATOM     15  C   UNL     1       4.979   5.833  15.913  0.00  0.00    +0.000 A 
ATOM     16  C   UNL     1       6.061   5.283  15.211  0.00  0.00    +0.000 A 
ENDBRANCH   1  14
BRANCH   3  17
ATOM     17  C   UNL     1       1.645   5.458  20.649  0.00  0.00    +0.000 C 
BRANCH  17  18
ATOM     18  C   UNL     1       1.257   4.286  19.745  0.00  0.00    +0.000 C 
BRANCH  18  19
ATOM     19  C   UNL     1       2.481   3.495  19.313  0.00  0.00    +0.000 C 
ATOM     20  C   UNL     1       3.121   2.689  20.453  0.00  0.00    +0.000 C 
ATOM     21  C   UNL     1       4.401   2.041  19.949  0.00  0.00    +0.000 C 
ATOM     22  N   UNL     1       4.177   1.196  18.774  0.00  0.00    +0.000 NA
ATOM     23  C   UNL     1       3.482   1.907  17.696  0.00  0.00    +0.000 C 
ATOM     24  C   UNL     1       2.171   2.530  18.166  0.00  0.00    +0.000 C 
ATOM     25  H   UNL     1       3.611   0.397  19.053  0.00  0.00    +0.000 HD
ENDBRANCH  18  19
ENDBRANCH  17  18
ENDBRANCH   3  17
TORSDOF 4
ENDMDL
MODEL 4
REMARK VINA RESULT:      -8.2      1.003      1.260
REMARK  Name = 
REMARK  4 active torsions:
REMARK  status: ('A' for Active; 'I' for Inactive)
REMARK    1  A    between atoms: C_4  and  C_5
REMARK    2  A    between atoms: C_7  and  C_8
REMARK    3  A    between atoms: C_8  and  C_9
REMARK    4  A    between atoms: C_9  and  C_10
REMARK                            x       y       z     vdW  Elec       q    Type
REMARK                         _______ _______ _______ _____ _____    ______ ____
ROOT
ATOM      1  C   UNL     1       4.005   6.624  18.018  0.00  0.00    +0.000 A 
ATOM      2  C   UNL     1       3.801   6.214  19.324  0.00  0.00    +0.000 A 
ATOM      3  C   UNL     1       2.615   6.554  19.947  0.00  0.00    +0.000 A 
ATOM      4  C   UNL     1       2.017   7.736  19.559  0.00  0.00    +0.000 A 
ATOM      5  C   UNL     1       1.188   8.454  20.447  0.00  0.00    +0.000 A 
ATOM      6  C   UNL     1       0.607   9.647  20.050  0.00  0.00    +0.000 A 
ATOM      7  C   UNL     1       0.800  10.076  18.737  0.00  0.00    +0.000 A 
ATOM      8  C   UNL     1       1.633   9.357  17.863  0.00  0.00    +0.000 A 
ATOM      9  C   UNL     1       2.316   8.216  18.275  0.00  0.00    +0.000 A 
ATOM     10  N   UNL     1       3.229   7.598  17.465  0.00  0.00    +0.000 NA
ENDROOT
BRANCH   1  14
ATOM     11  C   UNL     1       6.812   4.461  15.580  0.00  0.00    +0.000 A 
ATOM     12  C   UNL     1       5.914   5.330  14.988  0.00  0.00    +0.000 A 
ATOM     13  C   UNL     1       5.070   6.085  15.799  0.00  0.00    +0.000 A 
ATOM     14  C   UNL     1       5.057   5.963  17.211  0.00  0.00    +0.000 A 
ATOM     15  C   UNL     1       6.040   5.147  17.781  0.00  0.00    +0.000 A 
ATOM     16  C   UNL     1       6.903   4.396  16.971  0.00  0.00    +0.000 A 
ENDBRANCH   1  14
BRANCH   3  17
ATOM     17  C   UNL     1       1.779   5.427  20.525  0.00  0.00    +0.000 C 
BRANCH  17  18
ATOM     18  C   UNL     1       1.237   4.390  19.538  0.00  0.00    +0.000 C 
BRANCH  18  19
ATOM     19  C   UNL     1       2.132   3.162  19.486  0.00  0.00    +0.000 C 
ATOM     20  C   UNL     1       2.785   2.940  18.114  0.00  0.00    +0.000 C 
ATOM     21  C   UNL     1       3.552   1.627  18.131  0.00  0.00    +0.000 C 
ATOM     22  N   UNL     1       4.552   1.577  19.200  0.00  0.00    +0.000 NA
ATOM     23  C   UNL     1       3.982   1.876  20.518  0.00  0.00    +0.000 C 
ATOM     24  C   UNL     1       3.244   3.211  20.538  0.00  0.00    +0.000 C 
ATOM     25  H   UNL     1       5.278   2.262  18.998  0.00  0.00    +0.000 HD
ENDBRANCH  18  19
ENDBRANCH  17  18
ENDBRANCH   3  17
TORSDOF 4
ENDMDL
MODEL 5
REMARK VINA RESULT:      -8.1      1.682      5.477
REMARK  Name = 
REMARK  4 active torsions:
REMARK  status: ('A' for Active; 'I' for Inactive)
REMARK    1  A    between atoms: C_4  and  C_5
REMARK    2  A    between atoms: C_7  and  C_8
REMARK    3  A    between atoms: C_8  and  C_9
REMARK    4  A    between atoms: C_9  and  C_10
REMARK                            x       y       z     vdW  Elec       q    Type
REMARK                         _______ _______ _______ _____ _____    ______ ____
ROOT
ATOM      1  C   UNL     1       4.285   4.448  17.621  0.00  0.00    +0.000 A 
ATOM      2  C   UNL     1       3.256   5.373  17.608  0.00  0.00    +0.000 A 
ATOM      3  C   UNL     1       2.569   5.616  18.782  0.00  0.00    +0.000 A 
ATOM      4  C   UNL     1       2.462   4.570  19.676  0.00  0.00    +0.000 A 
ATOM      5  C   UNL     1       1.375   4.491  20.573  0.00  0.00    +0.000 A 
ATOM      6  C   UNL     1       1.272   3.427  21.453  0.00  0.00    +0.000 A 
ATOM      7  C   UNL     1       2.300   2.485  21.482  0.00  0.00    +0.000 A 
ATOM      8  C   UNL     1       3.374   2.568  20.580  0.00  0.00    +0.000 A 
ATOM      9  C   UNL     1       3.441   3.567  19.611  0.00  0.00    +0.000 A 
ATOM     10  N   UNL     1       4.416   3.566  18.651  0.00  0.00    +0.000 NA
ENDROOT
BRANCH   1  14
ATOM     11  C   UNL     1       7.102   4.814  14.390  0.00  0.00    +0.000 A 
ATOM     12  C   UNL     1       7.492   5.119  15.681  0.00  0.00    +0.000 A 
ATOM     13  C   UNL     1       6.594   4.915  16.725  0.00  0.00    +0.000 A 
ATOM     14  C   UNL     1       5.271   4.451  16.515  0.00  0.00    +0.000 A 
ATOM     15  C   UNL     1       4.940   4.063  15.212  0.00  0.00    +0.000 A 
ATOM     16  C   UNL     1       5.846   4.252  14.159  0.00  0.00    +0.000 A 
ENDBRANCH   1  14
BRANCH   3  17
ATOM     17  C   UNL     1       2.505   7.051  19.273  0.00  0.00    +0.000 C 
BRANCH  17  18
ATOM     18  C   UNL     1       2.148   8.122  18.239  0.00  0.00    +0.000 C 
BRANCH  18  19
ATOM     19  C   UNL     1       1.444   9.301  18.890  0.00  0.00    +0.000 C 
ATOM     20  C   UNL     1       0.238   9.811  18.087  0.00  0.00    +0.000 C 
ATOM     21  C   UNL     1      -0.314  11.061  18.754  0.00  0.00    +0.000 C 
ATOM     22  N   UNL     1      -0.678  10.835  20.155  0.00  0.00    +0.000 NA
ATOM     23  C   UNL     1       0.423  10.259  20.934  0.00  0.00    +0.000 C 
ATOM     24  C   UNL     1       0.965   8.978  20.308  0.00  0.00    +0.000 C 
ATOM     25  H   UNL     1      -1.468  10.192  20.184  0.00  0.00    +0.000 HD
ENDBRANCH  18  19
ENDBRANCH  17  18
ENDBRANCH   3  17
TORSDOF 4
ENDMDL
MODEL 6
REMARK VINA RESULT:      -8.1      1.471      5.435
REMARK  Name = 
REMARK  4 active torsions:
REMARK  status: ('A' for Active; 'I' for Inactive)
REMARK    1  A    between atoms: C_4  and  C_5
REMARK    2  A    between atoms: C_7  and  C_8
REMARK    3  A    between atoms: C_8  and  C_9
REMARK    4  A    between atoms: C_9  and  C_10
REMARK                            x       y       z     vdW  Elec       q    Type
REMARK                         _______ _______ _______ _____ _____    ______ ____
ROOT
ATOM      1  C   UNL     1       3.361   6.206  17.967  0.00  0.00    +0.000 A 
ATOM      2  C   UNL     1       2.823   5.093  17.348  0.00  0.00    +0.000 A 
ATOM      3  C   UNL     1       3.681   4.122  16.866  0.00  0.00    +0.000 A 
ATOM      4  C   UNL     1       4.925   4.541  16.437  0.00  0.00    +0.000 A 
ATOM      5  C   UNL     1       5.631   3.819  15.450  0.00  0.00    +0.000 A 
ATOM      6  C   UNL     1       6.871   4.260  15.017  0.00  0.00    +0.000 A 
ATOM      7  C   UNL     1       7.431   5.380  15.631  0.00  0.00    +0.000 A 
ATOM      8  C   UNL     1       6.717   6.095  16.607  0.00  0.00    +0.000 A 
ATOM      9  C   UNL     1       5.423   5.736  16.977  0.00  0.00    +0.000 A 
ATOM     10  N   UNL     1       4.682   6.511  17.827  0.00  0.00    +0.000 NA
ENDROOT
BRANCH   1  14
ATOM     11  C   UNL     1       1.121   8.858  20.508  0.00  0.00    +0.000 A 
ATOM     12  C   UNL     1       1.386   9.220  19.200  0.00  0.00    +0.000 A 
ATOM     13  C   UNL     1       2.038   8.314  18.368  0.00  0.00    +0.000 A 
ATOM     14  C   UNL     1       2.490   7.049  18.820  0.00  0.00    +0.000 A 
ATOM     15  C   UNL     1       2.124   6.677  20.118  0.00  0.00    +0.000 A 
ATOM     16  C   UNL     1       1.453   7.579  20.956  0.00  0.00    +0.000 A 
ENDBRANCH   1  14
BRANCH   3  17
ATOM     17  C   UNL     1       3.481   2.701  17.359  0.00  0.00    +0.000 C 
BRANCH  17  18
ATOM     18  C   UNL     1       2.092   2.342  17.893  0.00  0.00    +0.000 C 
BRANCH  18  19
ATOM     19  C   UNL     1       2.102   2.217  19.408  0.00  0.00    +0.000 C 
ATOM     20  C   UNL     1       3.482   2.470  20.033  0.00  0.00    +0.000 C 
ATOM     21  C   UNL     1       3.412   2.197  21.527  0.00  0.00    +0.000 C 
ATOM     22  N   UNL     1       2.382   2.997  22.195  0.00  0.00    +0.000 NA
ATOM     23  C   UNL     1       1.065   2.854  21.567  0.00  0.00    +0.000 C 
ATOM     24  C   UNL     1       1.100   3.165  20.074  0.00  0.00    +0.000 C 
ATOM     25  H   UNL     1       2.656   3.977  22.154  0.00  0.00    +0.000 HD
ENDBRANCH  18  19
ENDBRANCH  17  18
ENDBRANCH   3  17
TORSDOF 4
ENDMDL
MODEL 7
REMARK VINA RESULT:      -8.0      1.683      5.570
REMARK  Name = 
REMARK  4 active torsions:
REMARK  status: ('A' for Active; 'I' for Inactive)
REMARK    1  A    between atoms: C_4  and  C_5
REMARK    2  A    between atoms: C_7  and  C_8
REMARK    3  A    between atoms: C_8  and  C_9
REMARK    4  A    between atoms: C_9  and  C_10
REMARK                            x       y       z     vdW  Elec       q    Type
REMARK                         _______ _______ _______ _____ _____    ______ ____
ROOT
ATOM      1  C   UNL     1       4.319   4.419  17.588  0.00  0.00    +0.000 A 
ATOM      2  C   UNL     1       3.275   5.325  17.557  0.00  0.00    +0.000 A 
ATOM      3  C   UNL     1       2.580   5.574  18.726  0.00  0.00    +0.000 A 
ATOM      4  C   UNL     1       2.489   4.539  19.636  0.00  0.00    +0.000 A 
ATOM      5  C   UNL     1       1.400   4.455  20.531  0.00  0.00    +0.000 A 
ATOM      6  C   UNL     1       1.314   3.403  21.427  0.00  0.00    +0.000 A 
ATOM      7  C   UNL     1       2.359   2.480  21.473  0.00  0.00    +0.000 A 
ATOM      8  C   UNL     1       3.434   2.569  20.573  0.00  0.00    +0.000 A 
ATOM      9  C   UNL     1       3.486   3.553  19.589  0.00  0.00    +0.000 A 
ATOM     10  N   UNL     1       4.463   3.555  18.632  0.00  0.00    +0.000 NA
ENDROOT
BRANCH   1  14
ATOM     11  C   UNL     1       7.137   4.785  14.357  0.00  0.00    +0.000 A 
ATOM     12  C   UNL     1       7.516   5.125  15.643  0.00  0.00    +0.000 A 
ATOM     13  C   UNL     1       6.620   4.921  16.688  0.00  0.00    +0.000 A 
ATOM     14  C   UNL     1       5.309   4.422  16.484  0.00  0.00    +0.000 A 
ATOM     15  C   UNL     1       4.991   4.000  15.189  0.00  0.00    +0.000 A 
ATOM     16  C   UNL     1       5.895   4.189  14.134  0.00  0.00    +0.000 A 
ENDBRANCH   1  14
BRANCH   3  17
ATOM     17  C   UNL     1       2.489   7.015  19.194  0.00  0.00    +0.000 C 
BRANCH  17  18
ATOM     18  C   UNL     1       2.220   8.076  18.124  0.00  0.00    +0.000 C 
BRANCH  18  19
ATOM     19  C   UNL     1       1.295   9.162  18.648  0.00  0.00    +0.000 C 
ATOM     20  C   UNL     1       1.034   9.067  20.158  0.00  0.00    +0.000 C 
ATOM     21  C   UNL     1       0.005  10.114  20.555  0.00  0.00    +0.000 C 
ATOM     22  N   UNL     1       0.412  11.470  20.180  0.00  0.00    +0.000 NA
ATOM     23  C   UNL     1       0.759  11.579  18.759  0.00  0.00    +0.000 C 
ATOM     24  C   UNL     1       1.824  10.567  18.346  0.00  0.00    +0.000 C 
ATOM     25  H   UNL     1       1.226  11.729  20.734  0.00  0.00    +0.000 HD
ENDBRANCH  18  19
ENDBRANCH  17  18
ENDBRANCH   3  17
TORSDOF 4
ENDMDL
MODEL 8
REMARK VINA RESULT:      -8.0      1.702      5.512
REMARK  Name = 
REMARK  4 active torsions:
REMARK  status: ('A' for Active; 'I' for Inactive)
REMARK    1  A    between atoms: C_4  and  C_5
REMARK    2  A    between atoms: C_7  and  C_8
REMARK    3  A    between atoms: C_8  and  C_9
REMARK    4  A    between atoms: C_9  and  C_10
REMARK                            x       y       z     vdW  Elec       q    Type
REMARK                         _______ _______ _______ _____ _____    ______ ____
ROOT
ATOM      1  C   UNL     1       4.235   4.702  17.600  0.00  0.00    +0.000 A 
ATOM      2  C   UNL     1       3.165   5.577  17.637  0.00  0.00    +0.000 A 
ATOM      3  C   UNL     1       2.482   5.738  18.828  0.00  0.00    +0.000 A 
ATOM      4  C   UNL     1       2.435   4.651  19.678  0.00  0.00    +0.000 A 
ATOM      5  C   UNL     1       1.363   4.484  20.582  0.00  0.00    +0.000 A 
ATOM      6  C   UNL     1       1.321   3.380  21.417  0.00  0.00    +0.000 A 
ATOM      7  C   UNL     1       2.393   2.487  21.395  0.00  0.00    +0.000 A 
ATOM      8  C   UNL     1       3.450   2.659  20.487  0.00  0.00    +0.000 A 
ATOM      9  C   UNL     1       3.459   3.699  19.561  0.00  0.00    +0.000 A 
ATOM     10  N   UNL     1       4.420   3.785  18.591  0.00  0.00    +0.000 NA
ENDROOT
BRANCH   1  14
ATOM     11  C   UNL     1       7.107   4.625  14.398  0.00  0.00    +0.000 A 
ATOM     12  C   UNL     1       5.804   4.224  14.163  0.00  0.00    +0.000 A 
ATOM     13  C   UNL     1       4.869   4.335  15.188  0.00  0.00    +0.000 A 
ATOM     14  C   UNL     1       5.207   4.798  16.485  0.00  0.00    +0.000 A 
ATOM     15  C   UNL     1       6.507   5.283  16.661  0.00  0.00    +0.000 A 
ATOM     16  C   UNL     1       7.450   5.187  15.628  0.00  0.00    +0.000 A 
ENDBRANCH   1  14
BRANCH   3  17
ATOM     17  C   UNL     1       2.356   7.146  19.380  0.00  0.00    +0.000 C 
BRANCH  17  18
ATOM     18  C   UNL     1       2.197   8.278  18.362  0.00  0.00    +0.000 C 
BRANCH  18  19
ATOM     19  C   UNL     1       1.163   9.292  18.824  0.00  0.00    +0.000 C 
ATOM     20  C   UNL     1       0.859   9.211  20.328  0.00  0.00    +0.000 C 
ATOM     21  C   UNL     1      -0.271  10.173  20.661  0.00  0.00    +0.000 C 
ATOM     22  N   UNL     1       0.028  11.550  20.262  0.00  0.00    +0.000 NA
ATOM     23  C   UNL     1       0.415  11.654  18.851  0.00  0.00    +0.000 C 
ATOM     24  C   UNL     1       1.577  10.730  18.501  0.00  0.00    +0.000 C 
ATOM     25  H   UNL     1       0.797  11.893  20.835  0.00  0.00    +0.000 HD
ENDBRANCH  18  19
ENDBRANCH  17  18
ENDBRANCH   3  17
TORSDOF 4
ENDMDL
MODEL 9
REMARK VINA RESULT:      -8.0      1.952      4.982
REMARK  Name = 
REMARK  4 active torsions:
REMARK  status: ('A' for Active; 'I' for Inactive)
REMARK    1  A    between atoms: C_4  and  C_5
REMARK    2  A    between atoms: C_7  and  C_8
REMARK    3  A    between atoms: C_8  and  C_9
REMARK    4  A    between atoms: C_9  and  C_10
REMARK                            x       y       z     vdW  Elec       q    Type
REMARK                         _______ _______ _______ _____ _____    ______ ____
ROOT
ATOM      1  C   UNL     1       2.220   5.849  19.589  0.00  0.00    +0.000 A 
ATOM      2  C   UNL     1       2.488   6.076  18.251  0.00  0.00    +0.000 A 
ATOM      3  C   UNL     1       2.707   7.374  17.830  0.00  0.00    +0.000 A 
ATOM      4  C   UNL     1       2.055   8.377  18.519  0.00  0.00    +0.000 A 
ATOM      5  C   UNL     1       1.735   9.599  17.890  0.00  0.00    +0.000 A 
ATOM      6  C   UNL     1       1.066  10.590  18.589  0.00  0.00    +0.000 A 
ATOM      7  C   UNL     1       0.788  10.380  19.939  0.00  0.00    +0.000 A 
ATOM      8  C   UNL     1       1.105   9.157  20.555  0.00  0.00    +0.000 A 
ATOM      9  C   UNL     1       1.676   8.105  19.843  0.00  0.00    +0.000 A 
ATOM     10  N   UNL     1       1.858   6.874  20.410  0.00  0.00    +0.000 NA
ENDROOT
BRANCH   1  14
ATOM     11  C   UNL     1       2.730   2.019  21.480  0.00  0.00    +0.000 A 
ATOM     12  C   UNL     1       1.552   2.722  21.657  0.00  0.00    +0.000 A 
ATOM     13  C   UNL     1       1.370   3.919  20.970  0.00  0.00    +0.000 A 
ATOM     14  C   UNL     1       2.367   4.478  20.131  0.00  0.00    +0.000 A 
ATOM     15  C   UNL     1       3.505   3.697  19.901  0.00  0.00    +0.000 A 
ATOM     16  C   UNL     1       3.687   2.483  20.577  0.00  0.00    +0.000 A 
ENDBRANCH   1  14
BRANCH   3  17
ATOM     17  C   UNL     1       4.007   7.666  17.104  0.00  0.00    +0.000 C 
BRANCH  17  18
ATOM     18  C   UNL     1       4.809   6.461  16.605  0.00  0.00    +0.000 C 
BRANCH  18  19
ATOM     19  C   UNL     1       6.205   6.443  17.206  0.00  0.00    +0.000 C 
ATOM     20  C   UNL     1       6.748   7.843  17.531  0.00  0.00    +0.000 C 
ATOM     21  C   UNL     1       8.188   7.722  18.005  0.00  0.00    +0.000 C 
ATOM     22  N   UNL     1       8.326   6.828  19.157  0.00  0.00    +0.000 NA
ATOM     23  C   UNL     1       7.734   5.508  18.917  0.00  0.00    +0.000 C 
ATOM     24  C   UNL     1       6.275   5.600  18.482  0.00  0.00    +0.000 C 
ATOM     25  H   UNL     1       7.858   7.254  19.955  0.00  0.00    +0.000 HD
ENDBRANCH  18  19
ENDBRANCH  17  18
ENDBRANCH   3  17
TORSDOF 4
ENDMDL
