MODEL 1
REMARK VINA RESULT:      -7.7      0.000      0.000
REMARK  Name = 
REMARK  9 active torsions:
REMARK  status: ('A' for Active; 'I' for Inactive)
REMARK    1  A    between atoms: S_2  and  C_4
REMARK    2  A    between atoms: S_2  and  N_10
REMARK    3  A    between atoms: N_10  and  C_11
REMARK    4  A    between atoms: N_10  and  C_22
REMARK    5  A    between atoms: C_11  and  C_12
REMARK    6  A    between atoms: C_12  and  O_13
REMARK    7  A    between atoms: C_12  and  C_14
REMARK    8  A    between atoms: C_14  and  O_15
REMARK    9  A    between atoms: O_15  and  C_16
REMARK                            x       y       z     vdW  Elec       q    Type
REMARK                         _______ _______ _______ _____ _____    ______ ____
ROOT
ATOM      1  N   UNL     1       5.458   5.426  17.171  0.00  0.00    +0.000 N 
ENDROOT
BRANCH   1   2
ATOM      2  C   UNL     1       4.964   4.234  17.793  0.00  0.00    +0.000 A 
ATOM      3  C   UNL     1       4.120   3.414  17.041  0.00  0.00    +0.000 A 
ATOM      4  C   UNL     1       3.632   2.225  17.579  0.00  0.00    +0.000 A 
ATOM      5  C   UNL     1       3.971   1.865  18.882  0.00  0.00    +0.000 A 
ATOM      6  C   UNL     1       4.810   2.684  19.638  0.00  0.00    +0.000 A 
ATOM      7  C   UNL     1       5.320   3.864  19.091  0.00  0.00    +0.000 A 
ENDBRANCH   1   2
BRANCH   1   9
ATOM      8  O   UNL     1       7.803   4.357  17.270  0.00  0.00    +0.000 OA
ATOM      9  S   UNL     1       7.059   5.401  16.592  0.00  0.00    +0.000 S 
ATOM     10  O   UNL     1       7.544   6.766  16.592  0.00  0.00    +0.000 OA
BRANCH   9  11
ATOM     11  C   UNL     1       6.901   4.907  14.885  0.00  0.00    +0.000 A 
ATOM     12  C   UNL     1       7.743   5.472  13.920  0.00  0.00    +0.000 A 
ATOM     13  C   UNL     1       7.641   5.062  12.590  0.00  0.00    +0.000 A 
ATOM     14  C   UNL     1       6.713   4.084  12.228  0.00  0.00    +0.000 A 
ATOM     15  C   UNL     1       5.900   3.496  13.201  0.00  0.00    +0.000 A 
ATOM     16  C   UNL     1       6.006   3.892  14.532  0.00  0.00    +0.000 A 
ENDBRANCH   9  11
ENDBRANCH   1   9
BRANCH   1  17
ATOM     17  C   UNL     1       4.522   6.442  16.610  0.00  0.00    +0.000 C 
BRANCH  17  18
ATOM     18  C   UNL     1       3.693   7.204  17.669  0.00  0.00    +0.000 C 
BRANCH  18  19
ATOM     19  O   UNL     1       3.372   8.530  17.214  0.00  0.00    +0.000 OA
ATOM     20  H   UNL     1       2.615   8.862  17.730  0.00  0.00    +0.000 HD
ENDBRANCH  18  19
BRANCH  18  21
ATOM     21  C   UNL     1       2.379   6.481  18.009  0.00  0.00    +0.000 C 
BRANCH  21  22
ATOM     22  O   UNL     1       2.383   6.268  19.425  0.00  0.00    +0.000 OA
BRANCH  22  23
ATOM     23  C   UNL     1       1.965   5.059  19.894  0.00  0.00    +0.000 A 
ATOM     24  C   UNL     1       2.399   4.760  21.189  0.00  0.00    +0.000 A 
ATOM     25  C   UNL     1       2.044   3.556  21.796  0.00  0.00    +0.000 A 
ATOM     26  C   UNL     1       1.232   2.653  21.116  0.00  0.00    +0.000 A 
ATOM     27  C   UNL     1       0.770   2.960  19.836  0.00  0.00    +0.000 A 
ATOM     28  C   UNL     1       1.136   4.164  19.223  0.00  0.00    +0.000 A 
ENDBRANCH  22  23
ENDBRANCH  21  22
ENDBRANCH  18  21
ENDBRANCH  17  18
ENDBRANCH   1  17
TORSDOF 9
ENDMDL
MODEL 2
REMARK VINA RESULT:      -7.6      2.054      6.986
REMARK  Name = 
REMARK  9 active torsions:
REMARK  status: ('A' for Active; 'I' for Inactive)
REMARK    1  A    between atoms: S_2  and  C_4
REMARK    2  A    between atoms: S_2  and  N_10
REMARK    3  A    between atoms: N_10  and  C_11
REMARK    4  A    between atoms: N_10  and  C_22
REMARK    5  A    between atoms: C_11  and  C_12
REMARK    6  A    between atoms: C_12  and  O_13
REMARK    7  A    between atoms: C_12  and  C_14
REMARK    8  A    between atoms: C_14  and  O_15
REMARK    9  A    between atoms: O_15  and  C_16
REMARK                            x       y       z     vdW  Elec       q    Type
REMARK                         _______ _______ _______ _____ _____    ______ ____
ROOT
ATOM      1  N   UNL     1       3.349   5.815  17.891  0.00  0.00    +0.000 N 
ENDROOT
BRANCH   1   2
ATOM      2  C   UNL     1       2.659   6.876  18.558  0.00  0.00    +0.000 A 
ATOM      3  C   UNL     1       2.279   7.982  17.795  0.00  0.00    +0.000 A 
ATOM      4  C   UNL     1       1.577   9.034  18.379  0.00  0.00    +0.000 A 
ATOM      5  C   UNL     1       1.271   8.991  19.738  0.00  0.00    +0.000 A 
ATOM      6  C   UNL     1       1.652   7.890  20.505  0.00  0.00    +0.000 A 
ATOM      7  C   UNL     1       2.335   6.824  19.915  0.00  0.00    +0.000 A 
ENDBRANCH   1   2
BRANCH   1   9
ATOM      8  O   UNL     1       3.272   3.493  16.770  0.00  0.00    +0.000 OA
ATOM      9  S   UNL     1       2.489   4.371  17.619  0.00  0.00    +0.000 S 
ATOM     10  O   UNL     1       1.135   4.731  17.252  0.00  0.00    +0.000 OA
BRANCH   9  11
ATOM     11  C   UNL     1       2.402   3.602  19.227  0.00  0.00    +0.000 A 
ATOM     12  C   UNL     1       3.569   3.109  19.823  0.00  0.00    +0.000 A 
ATOM     13  C   UNL     1       3.506   2.537  21.094  0.00  0.00    +0.000 A 
ATOM     14  C   UNL     1       2.288   2.470  21.772  0.00  0.00    +0.000 A 
ATOM     15  C   UNL     1       1.132   2.998  21.190  0.00  0.00    +0.000 A 
ATOM     16  C   UNL     1       1.191   3.581  19.926  0.00  0.00    +0.000 A 
ENDBRANCH   9  11
ENDBRANCH   1   9
BRANCH   1  17
ATOM     17  C   UNL     1       4.548   6.090  17.048  0.00  0.00    +0.000 C 
BRANCH  17  18
ATOM     18  C   UNL     1       5.899   5.914  17.776  0.00  0.00    +0.000 C 
BRANCH  18  19
ATOM     19  O   UNL     1       5.706   5.377  19.096  0.00  0.00    +0.000 OA
ATOM     20  H   UNL     1       6.275   4.594  19.200  0.00  0.00    +0.000 HD
ENDBRANCH  18  19
BRANCH  18  21
ATOM     21  C   UNL     1       6.854   4.981  17.013  0.00  0.00    +0.000 C 
BRANCH  21  22
ATOM     22  O   UNL     1       7.173   5.640  15.781  0.00  0.00    +0.000 OA
BRANCH  22  23
ATOM     23  C   UNL     1       6.884   4.997  14.615  0.00  0.00    +0.000 A 
ATOM     24  C   UNL     1       7.769   5.274  13.568  0.00  0.00    +0.000 A 
ATOM     25  C   UNL     1       7.594   4.683  12.317  0.00  0.00    +0.000 A 
ATOM     26  C   UNL     1       6.544   3.793  12.115  0.00  0.00    +0.000 A 
ATOM     27  C   UNL     1       5.676   3.490  13.164  0.00  0.00    +0.000 A 
ATOM     28  C   UNL     1       5.845   4.092  14.416  0.00  0.00    +0.000 A 
ENDBRANCH  22  23
ENDBRANCH  21  22
ENDBRANCH  18  21
ENDBRANCH  17  18
ENDBRANCH   1  17
TORSDOF 9
ENDMDL
MODEL 3
REMARK VINA RESULT:      -7.5      2.053      7.045
REMARK  Name = 
REMARK  9 active torsions:
REMARK  status: ('A' for Active; 'I' for Inactive)
REMARK    1  A    between atoms: S_2  and  C_4
REMARK    2  A    between atoms: S_2  and  N_10
REMARK    3  A    between atoms: N_10  and  C_11
REMARK    4  A    between atoms: N_10  and  C_22
REMARK    5  A    between atoms: C_11  and  C_12
REMARK    6  A    between atoms: C_12  and  O_13
REMARK    7  A    between atoms: C_12  and  C_14
REMARK    8  A    between atoms: C_14  and  O_15
REMARK    9  A    between atoms: O_15  and  C_16
REMARK                            x       y       z     vdW  Elec       q    Type
REMARK                         _______ _______ _______ _____ _____    ______ ____
ROOT
ATOM      1  N   UNL     1       3.284   5.786  17.845  0.00  0.00    +0.000 N 
ENDROOT
BRANCH   1   2
ATOM      2  C   UNL     1       2.597   6.847  18.517  0.00  0.00    +0.000 A 
ATOM      3  C   UNL     1       2.356   6.697  19.884  0.00  0.00    +0.000 A 
ATOM      4  C   UNL     1       1.721   7.707  20.602  0.00  0.00    +0.000 A 
ATOM      5  C   UNL     1       1.304   8.864  19.947  0.00  0.00    +0.000 A 
ATOM      6  C   UNL     1       1.539   9.016  18.580  0.00  0.00    +0.000 A 
ATOM      7  C   UNL     1       2.198   8.014  17.864  0.00  0.00    +0.000 A 
ENDBRANCH   1   2
BRANCH   1   9
ATOM      8  O   UNL     1       3.211   3.452  16.749  0.00  0.00    +0.000 OA
ATOM      9  S   UNL     1       2.430   4.335  17.595  0.00  0.00    +0.000 S 
ATOM     10  O   UNL     1       1.071   4.684  17.235  0.00  0.00    +0.000 OA
BRANCH   9  11
ATOM     11  C   UNL     1       2.361   3.583  19.212  0.00  0.00    +0.000 A 
ATOM     12  C   UNL     1       3.539   3.130  19.816  0.00  0.00    +0.000 A 
ATOM     13  C   UNL     1       3.489   2.572  21.094  0.00  0.00    +0.000 A 
ATOM     14  C   UNL     1       2.271   2.478  21.770  0.00  0.00    +0.000 A 
ATOM     15  C   UNL     1       1.102   2.966  21.179  0.00  0.00    +0.000 A 
ATOM     16  C   UNL     1       1.149   3.536  19.908  0.00  0.00    +0.000 A 
ENDBRANCH   9  11
ENDBRANCH   1   9
BRANCH   1  17
ATOM     17  C   UNL     1       4.467   6.065  16.981  0.00  0.00    +0.000 C 
BRANCH  17  18
ATOM     18  C   UNL     1       5.832   5.849  17.672  0.00  0.00    +0.000 C 
BRANCH  18  19
ATOM     19  O   UNL     1       5.663   5.263  18.973  0.00  0.00    +0.000 OA
ATOM     20  H   UNL     1       4.805   4.801  18.999  0.00  0.00    +0.000 HD
ENDBRANCH  18  19
BRANCH  18  21
ATOM     21  C   UNL     1       6.761   4.937  16.851  0.00  0.00    +0.000 C 
BRANCH  21  22
ATOM     22  O   UNL     1       7.095   5.658  15.660  0.00  0.00    +0.000 OA
BRANCH  22  23
ATOM     23  C   UNL     1       6.952   5.024  14.463  0.00  0.00    +0.000 A 
ATOM     24  C   UNL     1       5.816   4.215  14.369  0.00  0.00    +0.000 A 
ATOM     25  C   UNL     1       5.543   3.507  13.200  0.00  0.00    +0.000 A 
ATOM     26  C   UNL     1       6.397   3.623  12.107  0.00  0.00    +0.000 A 
ATOM     27  C   UNL     1       7.517   4.452  12.185  0.00  0.00    +0.000 A 
ATOM     28  C   UNL     1       7.796   5.154  13.363  0.00  0.00    +0.000 A 
ENDBRANCH  22  23
ENDBRANCH  21  22
ENDBRANCH  18  21
ENDBRANCH  17  18
ENDBRANCH   1  17
TORSDOF 9
ENDMDL
MODEL 4
REMARK VINA RESULT:      -7.5      1.992      7.073
REMARK  Name = 
REMARK  9 active torsions:
REMARK  status: ('A' for Active; 'I' for Inactive)
REMARK    1  A    between atoms: S_2  and  C_4
REMARK    2  A    between atoms: S_2  and  N_10
REMARK    3  A    between atoms: N_10  and  C_11
REMARK    4  A    between atoms: N_10  and  C_22
REMARK    5  A    between atoms: C_11  and  C_12
REMARK    6  A    between atoms: C_12  and  O_13
REMARK    7  A    between atoms: C_12  and  C_14
REMARK    8  A    between atoms: C_14  and  O_15
REMARK    9  A    between atoms: O_15  and  C_16
REMARK                            x       y       z     vdW  Elec       q    Type
REMARK                         _______ _______ _______ _____ _____    ______ ____
ROOT
ATOM      1  N   UNL     1       3.327   5.751  17.855  0.00  0.00    +0.000 N 
ENDROOT
BRANCH   1   2
ATOM      2  C   UNL     1       2.672   6.801  18.575  0.00  0.00    +0.000 A 
ATOM      3  C   UNL     1       2.355   7.966  17.874  0.00  0.00    +0.000 A 
ATOM      4  C   UNL     1       1.690   9.012  18.510  0.00  0.00    +0.000 A 
ATOM      5  C   UNL     1       1.358   8.901  19.859  0.00  0.00    +0.000 A 
ATOM      6  C   UNL     1       1.676   7.740  20.565  0.00  0.00    +0.000 A 
ATOM      7  C   UNL     1       2.322   6.682  19.921  0.00  0.00    +0.000 A 
ENDBRANCH   1   2
BRANCH   1   9
ATOM      8  O   UNL     1       3.227   3.417  16.763  0.00  0.00    +0.000 OA
ATOM      9  S   UNL     1       2.450   4.314  17.596  0.00  0.00    +0.000 S 
ATOM     10  O   UNL     1       1.103   4.687  17.216  0.00  0.00    +0.000 OA
BRANCH   9  11
ATOM     11  C   UNL     1       2.345   3.568  19.213  0.00  0.00    +0.000 A 
ATOM     12  C   UNL     1       3.505   3.091  19.833  0.00  0.00    +0.000 A 
ATOM     13  C   UNL     1       3.427   2.536  21.112  0.00  0.00    +0.000 A 
ATOM     14  C   UNL     1       2.199   2.470  21.772  0.00  0.00    +0.000 A 
ATOM     15  C   UNL     1       1.049   2.982  21.165  0.00  0.00    +0.000 A 
ATOM     16  C   UNL     1       1.123   3.548  19.894  0.00  0.00    +0.000 A 
ENDBRANCH   9  11
ENDBRANCH   1   9
BRANCH   1  17
ATOM     17  C   UNL     1       4.485   6.040  16.962  0.00  0.00    +0.000 C 
BRANCH  17  18
ATOM     18  C   UNL     1       5.866   5.720  17.576  0.00  0.00    +0.000 C 
BRANCH  18  19
ATOM     19  O   UNL     1       5.958   4.331  17.937  0.00  0.00    +0.000 OA
ATOM     20  H   UNL     1       5.382   4.169  18.706  0.00  0.00    +0.000 HD
ENDBRANCH  18  19
BRANCH  18  21
ATOM     21  C   UNL     1       7.020   6.044  16.612  0.00  0.00    +0.000 C 
BRANCH  21  22
ATOM     22  O   UNL     1       7.413   4.804  16.013  0.00  0.00    +0.000 OA
BRANCH  22  23
ATOM     23  C   UNL     1       7.221   4.649  14.673  0.00  0.00    +0.000 A 
ATOM     24  C   UNL     1       6.206   3.748  14.334  0.00  0.00    +0.000 A 
ATOM     25  C   UNL     1       5.900   3.494  12.998  0.00  0.00    +0.000 A 
ATOM     26  C   UNL     1       6.594   4.159  11.992  0.00  0.00    +0.000 A 
ATOM     27  C   UNL     1       7.587   5.082  12.324  0.00  0.00    +0.000 A 
ATOM     28  C   UNL     1       7.902   5.328  13.665  0.00  0.00    +0.000 A 
ENDBRANCH  22  23
ENDBRANCH  21  22
ENDBRANCH  18  21
ENDBRANCH  17  18
ENDBRANCH   1  17
TORSDOF 9
ENDMDL
MODEL 5
REMARK VINA RESULT:      -7.5      3.039      4.482
REMARK  Name = 
REMARK  9 active torsions:
REMARK  status: ('A' for Active; 'I' for Inactive)
REMARK    1  A    between atoms: S_2  and  C_4
REMARK    2  A    between atoms: S_2  and  N_10
REMARK    3  A    between atoms: N_10  and  C_11
REMARK    4  A    between atoms: N_10  and  C_22
REMARK    5  A    between atoms: C_11  and  C_12
REMARK    6  A    between atoms: C_12  and  O_13
REMARK    7  A    between atoms: C_12  and  C_14
REMARK    8  A    between atoms: C_14  and  O_15
REMARK    9  A    between atoms: O_15  and  C_16
REMARK                            x       y       z     vdW  Elec       q    Type
REMARK                         _______ _______ _______ _____ _____    ______ ____
ROOT
ATOM      1  N   UNL     1       3.783   5.313  18.983  0.00  0.00    +0.000 N 
ENDROOT
BRANCH   1   2
ATOM      2  C   UNL     1       2.698   4.442  19.319  0.00  0.00    +0.000 A 
ATOM      3  C   UNL     1       2.040   3.795  18.271  0.00  0.00    +0.000 A 
ATOM      4  C   UNL     1       0.997   2.910  18.533  0.00  0.00    +0.000 A 
ATOM      5  C   UNL     1       0.594   2.687  19.849  0.00  0.00    +0.000 A 
ATOM      6  C   UNL     1       1.246   3.334  20.899  0.00  0.00    +0.000 A 
ATOM      7  C   UNL     1       2.308   4.203  20.638  0.00  0.00    +0.000 A 
ENDBRANCH   1   2
BRANCH   1   9
ATOM      8  O   UNL     1       5.292   3.271  19.435  0.00  0.00    +0.000 OA
ATOM      9  S   UNL     1       5.351   4.651  18.993  0.00  0.00    +0.000 S 
ATOM     10  O   UNL     1       6.221   5.598  19.659  0.00  0.00    +0.000 OA
BRANCH   9  11
ATOM     11  C   UNL     1       5.829   4.629  17.274  0.00  0.00    +0.000 A 
ATOM     12  C   UNL     1       7.056   5.181  16.889  0.00  0.00    +0.000 A 
ATOM     13  C   UNL     1       7.443   5.135  15.549  0.00  0.00    +0.000 A 
ATOM     14  C   UNL     1       6.616   4.529  14.601  0.00  0.00    +0.000 A 
ATOM     15  C   UNL     1       5.409   3.945  14.996  0.00  0.00    +0.000 A 
ATOM     16  C   UNL     1       5.023   3.977  16.334  0.00  0.00    +0.000 A 
ENDBRANCH   9  11
ENDBRANCH   1   9
BRANCH   1  17
ATOM     17  C   UNL     1       3.550   6.561  18.201  0.00  0.00    +0.000 C 
BRANCH  17  18
ATOM     18  C   UNL     1       2.378   7.430  18.711  0.00  0.00    +0.000 C 
BRANCH  18  19
ATOM     19  O   UNL     1       2.422   7.563  20.142  0.00  0.00    +0.000 OA
ATOM     20  H   UNL     1       3.167   8.143  20.379  0.00  0.00    +0.000 HD
ENDBRANCH  18  19
BRANCH  18  21
ATOM     21  C   UNL     1       2.390   8.840  18.096  0.00  0.00    +0.000 C 
BRANCH  21  22
ATOM     22  O   UNL     1       1.062   9.090  17.621  0.00  0.00    +0.000 OA
BRANCH  22  23
ATOM     23  C   UNL     1       0.274   9.942  18.334  0.00  0.00    +0.000 A 
ATOM     24  C   UNL     1      -1.028  10.075  17.842  0.00  0.00    +0.000 A 
ATOM     25  C   UNL     1      -1.944  10.914  18.474  0.00  0.00    +0.000 A 
ATOM     26  C   UNL     1      -1.567  11.609  19.620  0.00  0.00    +0.000 A 
ATOM     27  C   UNL     1      -0.278  11.457  20.133  0.00  0.00    +0.000 A 
ATOM     28  C   UNL     1       0.644  10.624  19.491  0.00  0.00    +0.000 A 
ENDBRANCH  22  23
ENDBRANCH  21  22
ENDBRANCH  18  21
ENDBRANCH  17  18
ENDBRANCH   1  17
TORSDOF 9
ENDMDL
MODEL 6
REMARK VINA RESULT:      -7.5      3.092      4.435
REMARK  Name = 
REMARK  9 active torsions:
REMARK  status: ('A' for Active; 'I' for Inactive)
REMARK    1  A    between atoms: S_2  and  C_4
REMARK    2  A    between atoms: S_2  and  N_10
REMARK    3  A    between atoms: N_10  and  C_11
REMARK    4  A    between atoms: N_10  and  C_22
REMARK    5  A    between atoms: C_11  and  C_12
REMARK    6  A    between atoms: C_12  and  O_13
REMARK    7  A    between atoms: C_12  and  C_14
REMARK    8  A    between atoms: C_14  and  O_15
REMARK    9  A    between atoms: O_15  and  C_16
REMARK                            x       y       z     vdW  Elec       q    Type
REMARK                         _______ _______ _______ _____ _____    ______ ____
ROOT
ATOM      1  N   UNL     1       3.760   5.282  19.045  0.00  0.00    +0.000 N 
ENDROOT
BRANCH   1   2
ATOM      2  C   UNL     1       2.691   4.379  19.350  0.00  0.00    +0.000 A 
ATOM      3  C   UNL     1       2.079   3.718  18.283  0.00  0.00    +0.000 A 
ATOM      4  C   UNL     1       1.055   2.803  18.516  0.00  0.00    +0.000 A 
ATOM      5  C   UNL     1       0.625   2.563  19.820  0.00  0.00    +0.000 A 
ATOM      6  C   UNL     1       1.232   3.224  20.889  0.00  0.00    +0.000 A 
ATOM      7  C   UNL     1       2.275   4.124  20.658  0.00  0.00    +0.000 A 
ENDBRANCH   1   2
BRANCH   1   9
ATOM      8  O   UNL     1       5.309   3.257  19.431  0.00  0.00    +0.000 OA
ATOM      9  S   UNL     1       5.338   4.645  19.012  0.00  0.00    +0.000 S 
ATOM     10  O   UNL     1       6.207   5.595  19.677  0.00  0.00    +0.000 OA
BRANCH   9  11
ATOM     11  C   UNL     1       5.781   4.659  17.283  0.00  0.00    +0.000 A 
ATOM     12  C   UNL     1       7.006   5.208  16.887  0.00  0.00    +0.000 A 
ATOM     13  C   UNL     1       7.366   5.191  15.539  0.00  0.00    +0.000 A 
ATOM     14  C   UNL     1       6.514   4.617  14.594  0.00  0.00    +0.000 A 
ATOM     15  C   UNL     1       5.309   4.036  14.999  0.00  0.00    +0.000 A 
ATOM     16  C   UNL     1       4.950   4.039  16.345  0.00  0.00    +0.000 A 
ENDBRANCH   9  11
ENDBRANCH   1   9
BRANCH   1  17
ATOM     17  C   UNL     1       3.501   6.560  18.322  0.00  0.00    +0.000 C 
BRANCH  17  18
ATOM     18  C   UNL     1       2.265   7.341  18.822  0.00  0.00    +0.000 C 
BRANCH  18  19
ATOM     19  O   UNL     1       2.356   7.601  20.233  0.00  0.00    +0.000 OA
ATOM     20  H   UNL     1       1.643   7.116  20.686  0.00  0.00    +0.000 HD
ENDBRANCH  18  19
BRANCH  18  21
ATOM     21  C   UNL     1       2.095   8.687  18.096  0.00  0.00    +0.000 C 
BRANCH  21  22
ATOM     22  O   UNL     1       1.527   9.596  19.045  0.00  0.00    +0.000 OA
BRANCH  22  23
ATOM     23  C   UNL     1       0.280  10.086  18.799  0.00  0.00    +0.000 A 
ATOM     24  C   UNL     1      -0.147  11.062  19.705  0.00  0.00    +0.000 A 
ATOM     25  C   UNL     1      -1.403  11.653  19.573  0.00  0.00    +0.000 A 
ATOM     26  C   UNL     1      -2.230  11.284  18.516  0.00  0.00    +0.000 A 
ATOM     27  C   UNL     1      -1.797  10.333  17.591  0.00  0.00    +0.000 A 
ATOM     28  C   UNL     1      -0.541   9.733  17.732  0.00  0.00    +0.000 A 
ENDBRANCH  22  23
ENDBRANCH  21  22
ENDBRANCH  18  21
ENDBRANCH  17  18
ENDBRANCH   1  17
TORSDOF 9
ENDMDL
MODEL 7
REMARK VINA RESULT:      -7.4      3.116      4.743
REMARK  Name = 
REMARK  9 active torsions:
REMARK  status: ('A' for Active; 'I' for Inactive)
REMARK    1  A    between atoms: S_2  and  C_4
REMARK    2  A    between atoms: S_2  and  N_10
REMARK    3  A    between atoms: N_10  and  C_11
REMARK    4  A    between atoms: N_10  and  C_22
REMARK    5  A    between atoms: C_11  and  C_12
REMARK    6  A    between atoms: C_12  and  O_13
REMARK    7  A    between atoms: C_12  and  C_14
REMARK    8  A    between atoms: C_14  and  O_15
REMARK    9  A    between atoms: O_15  and  C_16
REMARK                            x       y       z     vdW  Elec       q    Type
REMARK                         _______ _______ _______ _____ _____    ______ ____
ROOT
ATOM      1  N   UNL     1       3.812   5.341  18.980  0.00  0.00    +0.000 N 
ENDROOT
BRANCH   1   2
ATOM      2  C   UNL     1       2.726   4.444  19.239  0.00  0.00    +0.000 A 
ATOM      3  C   UNL     1       2.320   4.287  20.565  0.00  0.00    +0.000 A 
ATOM      4  C   UNL     1       1.249   3.453  20.879  0.00  0.00    +0.000 A 
ATOM      5  C   UNL     1       0.594   2.756  19.865  0.00  0.00    +0.000 A 
ATOM      6  C   UNL     1       1.000   2.907  18.539  0.00  0.00    +0.000 A 
ATOM      7  C   UNL     1       2.058   3.761  18.221  0.00  0.00    +0.000 A 
ENDBRANCH   1   2
BRANCH   1   9
ATOM      8  O   UNL     1       5.339   3.317  19.452  0.00  0.00    +0.000 OA
ATOM      9  S   UNL     1       5.384   4.688  18.981  0.00  0.00    +0.000 S 
ATOM     10  O   UNL     1       6.257   5.653  19.616  0.00  0.00    +0.000 OA
BRANCH   9  11
ATOM     11  C   UNL     1       5.838   4.634  17.256  0.00  0.00    +0.000 A 
ATOM     12  C   UNL     1       4.987   4.014  16.335  0.00  0.00    +0.000 A 
ATOM     13  C   UNL     1       5.327   4.000  14.981  0.00  0.00    +0.000 A 
ATOM     14  C   UNL     1       6.504   4.614  14.549  0.00  0.00    +0.000 A 
ATOM     15  C   UNL     1       7.332   5.266  15.467  0.00  0.00    +0.000 A 
ATOM     16  C   UNL     1       6.991   5.293  16.818  0.00  0.00    +0.000 A 
ENDBRANCH   9  11
ENDBRANCH   1   9
BRANCH   1  17
ATOM     17  C   UNL     1       3.586   6.633  18.271  0.00  0.00    +0.000 C 
BRANCH  17  18
ATOM     18  C   UNL     1       2.320   7.398  18.717  0.00  0.00    +0.000 C 
BRANCH  18  19
ATOM     19  O   UNL     1       2.337   7.640  20.134  0.00  0.00    +0.000 OA
ATOM     20  H   UNL     1       1.797   8.428  20.322  0.00  0.00    +0.000 HD
ENDBRANCH  18  19
BRANCH  18  21
ATOM     21  C   UNL     1       2.175   8.751  18.000  0.00  0.00    +0.000 C 
BRANCH  21  22
ATOM     22  O   UNL     1       1.548   9.642  18.929  0.00  0.00    +0.000 OA
BRANCH  22  23
ATOM     23  C   UNL     1       0.402  10.270  18.543  0.00  0.00    +0.000 A 
ATOM     24  C   UNL     1       0.372  11.641  18.821  0.00  0.00    +0.000 A 
ATOM     25  C   UNL     1      -0.739  12.410  18.479  0.00  0.00    +0.000 A 
ATOM     26  C   UNL     1      -1.819  11.814  17.835  0.00  0.00    +0.000 A 
ATOM     27  C   UNL     1      -1.782  10.453  17.528  0.00  0.00    +0.000 A 
ATOM     28  C   UNL     1      -0.672   9.679  17.881  0.00  0.00    +0.000 A 
ENDBRANCH  22  23
ENDBRANCH  21  22
ENDBRANCH  18  21
ENDBRANCH  17  18
ENDBRANCH   1  17
TORSDOF 9
ENDMDL
MODEL 8
REMARK VINA RESULT:      -7.4      2.013      7.122
REMARK  Name = 
REMARK  9 active torsions:
REMARK  status: ('A' for Active; 'I' for Inactive)
REMARK    1  A    between atoms: S_2  and  C_4
REMARK    2  A    between atoms: S_2  and  N_10
REMARK    3  A    between atoms: N_10  and  C_11
REMARK    4  A    between atoms: N_10  and  C_22
REMARK    5  A    between atoms: C_11  and  C_12
REMARK    6  A    between atoms: C_12  and  O_13
REMARK    7  A    between atoms: C_12  and  C_14
REMARK    8  A    between atoms: C_14  and  O_15
REMARK    9  A    between atoms: O_15  and  C_16
REMARK                            x       y       z     vdW  Elec       q    Type
REMARK                         _______ _______ _______ _____ _____    ______ ____
ROOT
ATOM      1  N   UNL     1       3.346   5.591  17.818  0.00  0.00    +0.000 N 
ENDROOT
BRANCH   1   2
ATOM      2  C   UNL     1       2.719   6.723  18.431  0.00  0.00    +0.000 A 
ATOM      3  C   UNL     1       2.434   7.823  17.620  0.00  0.00    +0.000 A 
ATOM      4  C   UNL     1       1.797   8.943  18.150  0.00  0.00    +0.000 A 
ATOM      5  C   UNL     1       1.463   8.973  19.502  0.00  0.00    +0.000 A 
ATOM      6  C   UNL     1       1.750   7.878  20.318  0.00  0.00    +0.000 A 
ATOM      7  C   UNL     1       2.367   6.745  19.782  0.00  0.00    +0.000 A 
ENDBRANCH   1   2
BRANCH   1   9
ATOM      8  O   UNL     1       3.143   3.209  16.852  0.00  0.00    +0.000 OA
ATOM      9  S   UNL     1       2.412   4.178  17.645  0.00  0.00    +0.000 S 
ATOM     10  O   UNL     1       1.075   4.582  17.261  0.00  0.00    +0.000 OA
BRANCH   9  11
ATOM     11  C   UNL     1       2.299   3.521  19.300  0.00  0.00    +0.000 A 
ATOM     12  C   UNL     1       1.058   3.481  19.946  0.00  0.00    +0.000 A 
ATOM     13  C   UNL     1       0.964   2.938  21.228  0.00  0.00    +0.000 A 
ATOM     14  C   UNL     1       2.101   2.426  21.856  0.00  0.00    +0.000 A 
ATOM     15  C   UNL     1       3.331   2.434  21.193  0.00  0.00    +0.000 A 
ATOM     16  C   UNL     1       3.428   2.963  19.908  0.00  0.00    +0.000 A 
ENDBRANCH   9  11
ENDBRANCH   1   9
BRANCH   1  17
ATOM     17  C   UNL     1       4.542   5.757  16.943  0.00  0.00    +0.000 C 
BRANCH  17  18
ATOM     18  C   UNL     1       5.852   5.189  17.532  0.00  0.00    +0.000 C 
BRANCH  18  19
ATOM     19  O   UNL     1       5.710   3.795  17.853  0.00  0.00    +0.000 OA
ATOM     20  H   UNL     1       5.988   3.657  18.776  0.00  0.00    +0.000 HD
ENDBRANCH  18  19
BRANCH  18  21
ATOM     21  C   UNL     1       7.038   5.340  16.564  0.00  0.00    +0.000 C 
BRANCH  21  22
ATOM     22  O   UNL     1       6.505   5.863  15.342  0.00  0.00    +0.000 OA
BRANCH  22  23
ATOM     23  C   UNL     1       6.600   5.097  14.220  0.00  0.00    +0.000 A 
ATOM     24  C   UNL     1       5.551   4.188  14.050  0.00  0.00    +0.000 A 
ATOM     25  C   UNL     1       5.518   3.340  12.944  0.00  0.00    +0.000 A 
ATOM     26  C   UNL     1       6.526   3.415  11.988  0.00  0.00    +0.000 A 
ATOM     27  C   UNL     1       7.559   4.341  12.136  0.00  0.00    +0.000 A 
ATOM     28  C   UNL     1       7.598   5.183  13.252  0.00  0.00    +0.000 A 
ENDBRANCH  22  23
ENDBRANCH  21  22
ENDBRANCH  18  21
ENDBRANCH  17  18
ENDBRANCH   1  17
TORSDOF 9
ENDMDL
MODEL 9
REMARK VINA RESULT:      -7.4      2.014      7.149
REMARK  Name = 
REMARK  9 active torsions:
REMARK  status: ('A' for Active; 'I' for Inactive)
REMARK    1  A    between atoms: S_2  and  C_4
REMARK    2  A    between atoms: S_2  and  N_10
REMARK    3  A    between atoms: N_10  and  C_11
REMARK    4  A    between atoms: N_10  and  C_22
REMARK    5  A    between atoms: C_11  and  C_12
REMARK    6  A    between atoms: C_12  and  O_13
REMARK    7  A    between atoms: C_12  and  C_14
REMARK    8  A    between atoms: C_14  and  O_15
REMARK    9  A    between atoms: O_15  and  C_16
REMARK                            x       y       z     vdW  Elec       q    Type
REMARK                         _______ _______ _______ _____ _____    ______ ____
ROOT
ATOM      1  N   UNL     1       3.288   5.824  17.829  0.00  0.00    +0.000 N 
ENDROOT
BRANCH   1   2
ATOM      2  C   UNL     1       2.585   6.899  18.461  0.00  0.00    +0.000 A 
ATOM      3  C   UNL     1       2.330   6.789  19.830  0.00  0.00    +0.000 A 
ATOM      4  C   UNL     1       1.678   7.815  20.509  0.00  0.00    +0.000 A 
ATOM      5  C   UNL     1       1.257   8.947  19.814  0.00  0.00    +0.000 A 
ATOM      6  C   UNL     1       1.506   9.059  18.445  0.00  0.00    +0.000 A 
ATOM      7  C   UNL     1       2.181   8.041  17.768  0.00  0.00    +0.000 A 
ENDBRANCH   1   2
BRANCH   1   9
ATOM      8  O   UNL     1       3.255   3.451  16.820  0.00  0.00    +0.000 OA
ATOM      9  S   UNL     1       2.449   4.359  17.613  0.00  0.00    +0.000 S 
ATOM     10  O   UNL     1       1.097   4.685  17.209  0.00  0.00    +0.000 OA
BRANCH   9  11
ATOM     11  C   UNL     1       2.347   3.667  19.255  0.00  0.00    +0.000 A 
ATOM     12  C   UNL     1       1.106   3.590  19.898  0.00  0.00    +0.000 A 
ATOM     13  C   UNL     1       1.021   3.019  21.169  0.00  0.00    +0.000 A 
ATOM     14  C   UNL     1       2.166   2.517  21.788  0.00  0.00    +0.000 A 
ATOM     15  C   UNL     1       3.397   2.561  21.127  0.00  0.00    +0.000 A 
ATOM     16  C   UNL     1       3.485   3.118  19.854  0.00  0.00    +0.000 A 
ENDBRANCH   9  11
ENDBRANCH   1   9
BRANCH   1  17
ATOM     17  C   UNL     1       4.479   6.087  16.971  0.00  0.00    +0.000 C 
BRANCH  17  18
ATOM     18  C   UNL     1       5.837   5.928  17.691  0.00  0.00    +0.000 C 
BRANCH  18  19
ATOM     19  O   UNL     1       5.919   4.658  18.360  0.00  0.00    +0.000 OA
ATOM     20  H   UNL     1       5.572   4.759  19.264  0.00  0.00    +0.000 HD
ENDBRANCH  18  19
BRANCH  18  21
ATOM     21  C   UNL     1       7.026   6.038  16.720  0.00  0.00    +0.000 C 
BRANCH  21  22
ATOM     22  O   UNL     1       7.196   4.743  16.133  0.00  0.00    +0.000 OA
BRANCH  22  23
ATOM     23  C   UNL     1       7.133   4.640  14.776  0.00  0.00    +0.000 A 
ATOM     24  C   UNL     1       6.170   3.741  14.308  0.00  0.00    +0.000 A 
ATOM     25  C   UNL     1       5.995   3.536  12.940  0.00  0.00    +0.000 A 
ATOM     26  C   UNL     1       6.770   4.250  12.031  0.00  0.00    +0.000 A 
ATOM     27  C   UNL     1       7.712   5.171  12.491  0.00  0.00    +0.000 A 
ATOM     28  C   UNL     1       7.895   5.367  13.864  0.00  0.00    +0.000 A 
ENDBRANCH  22  23
ENDBRANCH  21  22
ENDBRANCH  18  21
ENDBRANCH  17  18
ENDBRANCH   1  17
TORSDOF 9
ENDMDL
