MODEL 1
REMARK VINA RESULT:      -7.2      0.000      0.000
REMARK  Name = 
REMARK  5 active torsions:
REMARK  status: ('A' for Active; 'I' for Inactive)
REMARK    1  A    between atoms: C_1  and  C_2
REMARK    2  A    between atoms: C_2  and  C_3
REMARK    3  A    between atoms: C_3  and  C_4
REMARK    4  A    between atoms: C_6  and  C_7
REMARK    5  A    between atoms: C_13  and  O_14
REMARK                            x       y       z     vdW  Elec       q    Type
REMARK                         _______ _______ _______ _____ _____    ______ ____
ROOT
ATOM      1  C   UNL     1       5.640   4.871  16.972  0.00  0.00    +0.000 A 
ATOM      2  C   UNL     1       4.257   4.671  17.122  0.00  0.00    +0.000 A 
ATOM      3  C   UNL     1       3.664   4.757  18.382  0.00  0.00    +0.000 A 
ATOM      4 BR   UNL     1       1.799   4.502  18.565  0.00  0.00    +0.000 Br
ATOM      5  C   UNL     1       4.431   5.032  19.511  0.00  0.00    +0.000 A 
ATOM      6  C   UNL     1       5.805   5.232  19.381  0.00  0.00    +0.000 A 
ATOM      7  C   UNL     1       6.402   5.157  18.120  0.00  0.00    +0.000 A 
ENDROOT
BRANCH   1  10
ATOM      8  C   UNL     1       6.700   4.249  13.537  0.00  0.00    +0.000 A 
ATOM      9  C   UNL     1       5.871   3.914  14.574  0.00  0.00    +0.000 A 
ATOM     10  C   UNL     1       6.244   4.771  15.640  0.00  0.00    +0.000 A 
ATOM     11  N   UNL     1       7.286   5.536  15.272  0.00  0.00    +0.000 NA
ATOM     12  O   UNL     1       7.553   5.221  13.950  0.00  0.00    +0.000 OA
BRANCH   8  13
ATOM     13  C   UNL     1       6.795   3.802  12.129  0.00  0.00    +0.000 C 
BRANCH  13  15
ATOM     14  C   UNL     1       4.469   3.230  11.386  0.00  0.00    +0.000 C 
ATOM     15  C   UNL     1       5.819   2.673  11.807  0.00  0.00    +0.000 C 
ENDBRANCH  13  15
ENDBRANCH   8  13
ENDBRANCH   1  10
BRANCH   7  16
ATOM     16  O   UNL     1       7.754   5.354  18.025  0.00  0.00    +0.000 OA
ATOM     17  H   UNL     1       7.999   5.472  17.092  0.00  0.00    +0.000 HD
ENDBRANCH   7  16
TORSDOF 4
ENDMDL
MODEL 2
REMARK VINA RESULT:      -7.1      1.592      1.714
REMARK  Name = 
REMARK  5 active torsions:
REMARK  status: ('A' for Active; 'I' for Inactive)
REMARK    1  A    between atoms: C_1  and  C_2
REMARK    2  A    between atoms: C_2  and  C_3
REMARK    3  A    between atoms: C_3  and  C_4
REMARK    4  A    between atoms: C_6  and  C_7
REMARK    5  A    between atoms: C_13  and  O_14
REMARK                            x       y       z     vdW  Elec       q    Type
REMARK                         _______ _______ _______ _____ _____    ______ ____
ROOT
ATOM      1  C   UNL     1       4.997   5.430  17.249  0.00  0.00    +0.000 A 
ATOM      2  C   UNL     1       4.122   6.521  17.119  0.00  0.00    +0.000 A 
ATOM      3  C   UNL     1       3.322   6.916  18.191  0.00  0.00    +0.000 A 
ATOM      4 BR   UNL     1       2.162   8.398  18.006  0.00  0.00    +0.000 Br
ATOM      5  C   UNL     1       3.369   6.232  19.403  0.00  0.00    +0.000 A 
ATOM      6  C   UNL     1       4.230   5.146  19.550  0.00  0.00    +0.000 A 
ATOM      7  C   UNL     1       5.041   4.752  18.482  0.00  0.00    +0.000 A 
ENDROOT
BRANCH   1  10
ATOM      8  C   UNL     1       6.544   4.327  14.134  0.00  0.00    +0.000 A 
ATOM      9  C   UNL     1       5.402   4.463  14.878  0.00  0.00    +0.000 A 
ATOM     10  C   UNL     1       5.825   5.027  16.108  0.00  0.00    +0.000 A 
ATOM     11  N   UNL     1       7.162   5.161  16.117  0.00  0.00    +0.000 NA
ATOM     12  O   UNL     1       7.604   4.742  14.873  0.00  0.00    +0.000 OA
BRANCH   8  13
ATOM     13  C   UNL     1       6.803   3.880  12.747  0.00  0.00    +0.000 C 
BRANCH  13  15
ATOM     14  C   UNL     1       6.011   1.912  11.409  0.00  0.00    +0.000 C 
ATOM     15  C   UNL     1       5.595   3.190  12.119  0.00  0.00    +0.000 C 
ENDBRANCH  13  15
ENDBRANCH   8  13
ENDBRANCH   1  10
BRANCH   7  16
ATOM     16  O   UNL     1       5.874   3.679  18.655  0.00  0.00    +0.000 OA
ATOM     17  H   UNL     1       6.376   3.524  17.838  0.00  0.00    +0.000 HD
ENDBRANCH   7  16
TORSDOF 4
ENDMDL
MODEL 3
REMARK VINA RESULT:      -6.8      1.224      1.281
REMARK  Name = 
REMARK  5 active torsions:
REMARK  status: ('A' for Active; 'I' for Inactive)
REMARK    1  A    between atoms: C_1  and  C_2
REMARK    2  A    between atoms: C_2  and  C_3
REMARK    3  A    between atoms: C_3  and  C_4
REMARK    4  A    between atoms: C_6  and  C_7
REMARK    5  A    between atoms: C_13  and  O_14
REMARK                            x       y       z     vdW  Elec       q    Type
REMARK                         _______ _______ _______ _____ _____    ______ ____
ROOT
ATOM      1  C   UNL     1       6.387   4.905  16.565  0.00  0.00    +0.000 A 
ATOM      2  C   UNL     1       5.517   4.012  17.214  0.00  0.00    +0.000 A 
ATOM      3  C   UNL     1       5.227   4.168  18.570  0.00  0.00    +0.000 A 
ATOM      4 BR   UNL     1       4.041   2.968  19.424  0.00  0.00    +0.000 Br
ATOM      5  C   UNL     1       5.799   5.204  19.304  0.00  0.00    +0.000 A 
ATOM      6  C   UNL     1       6.665   6.099  18.678  0.00  0.00    +0.000 A 
ATOM      7  C   UNL     1       6.952   5.952  17.318  0.00  0.00    +0.000 A 
ENDROOT
BRANCH   1  10
ATOM      8  C   UNL     1       6.692   4.040  13.035  0.00  0.00    +0.000 A 
ATOM      9  C   UNL     1       6.141   3.754  14.255  0.00  0.00    +0.000 A 
ATOM     10  C   UNL     1       6.683   4.720  15.142  0.00  0.00    +0.000 A 
ATOM     11  N   UNL     1       7.561   5.501  14.490  0.00  0.00    +0.000 NA
ATOM     12  O   UNL     1       7.547   5.085  13.169  0.00  0.00    +0.000 OA
BRANCH   8  13
ATOM     13  C   UNL     1       6.500   3.476  11.679  0.00  0.00    +0.000 C 
BRANCH  13  15
ATOM     14  C   UNL     1       4.056   3.196  11.188  0.00  0.00    +0.000 C 
ATOM     15  C   UNL     1       5.335   2.492  11.615  0.00  0.00    +0.000 C 
ENDBRANCH  13  15
ENDBRANCH   8  13
ENDBRANCH   1  10
BRANCH   7  16
ATOM     16  O   UNL     1       7.810   6.844  16.731  0.00  0.00    +0.000 OA
ATOM     17  H   UNL     1       8.220   7.396  17.417  0.00  0.00    +0.000 HD
ENDBRANCH   7  16
TORSDOF 4
ENDMDL
MODEL 4
REMARK VINA RESULT:      -6.7      2.266      3.079
REMARK  Name = 
REMARK  5 active torsions:
REMARK  status: ('A' for Active; 'I' for Inactive)
REMARK    1  A    between atoms: C_1  and  C_2
REMARK    2  A    between atoms: C_2  and  C_3
REMARK    3  A    between atoms: C_3  and  C_4
REMARK    4  A    between atoms: C_6  and  C_7
REMARK    5  A    between atoms: C_13  and  O_14
REMARK                            x       y       z     vdW  Elec       q    Type
REMARK                         _______ _______ _______ _____ _____    ______ ____
ROOT
ATOM      1  C   UNL     1       4.248   4.047  19.167  0.00  0.00    +0.000 A 
ATOM      2  C   UNL     1       3.398   5.137  19.424  0.00  0.00    +0.000 A 
ATOM      3  C   UNL     1       2.418   5.049  20.413  0.00  0.00    +0.000 A 
ATOM      4 BR   UNL     1       1.294   6.530  20.759  0.00  0.00    +0.000 Br
ATOM      5  C   UNL     1       2.258   3.881  21.154  0.00  0.00    +0.000 A 
ATOM      6  C   UNL     1       3.091   2.790  20.913  0.00  0.00    +0.000 A 
ATOM      7  C   UNL     1       4.081   2.876  19.929  0.00  0.00    +0.000 A 
ENDROOT
BRANCH   1  10
ATOM      8  C   UNL     1       6.332   4.294  16.183  0.00  0.00    +0.000 A 
ATOM      9  C   UNL     1       5.092   4.063  16.716  0.00  0.00    +0.000 A 
ATOM     10  C   UNL     1       5.268   4.158  18.120  0.00  0.00    +0.000 A 
ATOM     11  N   UNL     1       6.563   4.374  18.408  0.00  0.00    +0.000 NA
ATOM     12  O   UNL     1       7.219   4.480  17.193  0.00  0.00    +0.000 OA
BRANCH   8  13
ATOM     13  C   UNL     1       6.832   4.414  14.795  0.00  0.00    +0.000 C 
BRANCH  13  15
ATOM     14  C   UNL     1       6.244   3.427  12.566  0.00  0.00    +0.000 C 
ATOM     15  C   UNL     1       5.730   4.219  13.757  0.00  0.00    +0.000 C 
ENDBRANCH  13  15
ENDBRANCH   8  13
ENDBRANCH   1  10
BRANCH   7  16
ATOM     16  O   UNL     1       4.881   1.786  19.712  0.00  0.00    +0.000 OA
ATOM     17  H   UNL     1       4.327   1.007  19.538  0.00  0.00    +0.000 HD
ENDBRANCH   7  16
TORSDOF 4
ENDMDL
MODEL 5
REMARK VINA RESULT:      -6.7      1.540      1.666
REMARK  Name = 
REMARK  5 active torsions:
REMARK  status: ('A' for Active; 'I' for Inactive)
REMARK    1  A    between atoms: C_1  and  C_2
REMARK    2  A    between atoms: C_2  and  C_3
REMARK    3  A    between atoms: C_3  and  C_4
REMARK    4  A    between atoms: C_6  and  C_7
REMARK    5  A    between atoms: C_13  and  O_14
REMARK                            x       y       z     vdW  Elec       q    Type
REMARK                         _______ _______ _______ _____ _____    ______ ____
ROOT
ATOM      1  C   UNL     1       5.122   4.958  17.043  0.00  0.00    +0.000 A 
ATOM      2  C   UNL     1       5.023   3.848  17.898  0.00  0.00    +0.000 A 
ATOM      3  C   UNL     1       4.307   3.938  19.092  0.00  0.00    +0.000 A 
ATOM      4 BR   UNL     1       4.168   2.429  20.224  0.00  0.00    +0.000 Br
ATOM      5  C   UNL     1       3.688   5.130  19.462  0.00  0.00    +0.000 A 
ATOM      6  C   UNL     1       3.777   6.242  18.627  0.00  0.00    +0.000 A 
ATOM      7  C   UNL     1       4.485   6.154  17.425  0.00  0.00    +0.000 A 
ENDROOT
BRANCH   1  10
ATOM      8  C   UNL     1       6.564   4.340  13.750  0.00  0.00    +0.000 A 
ATOM      9  C   UNL     1       5.586   4.045  14.662  0.00  0.00    +0.000 A 
ATOM     10  C   UNL     1       5.882   4.844  15.795  0.00  0.00    +0.000 A 
ATOM     11  N   UNL     1       7.018   5.533  15.588  0.00  0.00    +0.000 NA
ATOM     12  O   UNL     1       7.428   5.231  14.300  0.00  0.00    +0.000 OA
BRANCH   8  13
ATOM     13  C   UNL     1       6.804   3.922  12.350  0.00  0.00    +0.000 C 
BRANCH  13  15
ATOM     14  C   UNL     1       4.539   3.311  11.465  0.00  0.00    +0.000 C 
ATOM     15  C   UNL     1       5.890   2.780  11.916  0.00  0.00    +0.000 C 
ENDBRANCH  13  15
ENDBRANCH   8  13
ENDBRANCH   1  10
BRANCH   7  16
ATOM     16  O   UNL     1       4.558   7.265  16.627  0.00  0.00    +0.000 OA
ATOM     17  H   UNL     1       5.489   7.462  16.431  0.00  0.00    +0.000 HD
ENDBRANCH   7  16
TORSDOF 4
ENDMDL
MODEL 6
REMARK VINA RESULT:      -6.6      1.478      1.612
REMARK  Name = 
REMARK  5 active torsions:
REMARK  status: ('A' for Active; 'I' for Inactive)
REMARK    1  A    between atoms: C_1  and  C_2
REMARK    2  A    between atoms: C_2  and  C_3
REMARK    3  A    between atoms: C_3  and  C_4
REMARK    4  A    between atoms: C_6  and  C_7
REMARK    5  A    between atoms: C_13  and  O_14
REMARK                            x       y       z     vdW  Elec       q    Type
REMARK                         _______ _______ _______ _____ _____    ______ ____
ROOT
ATOM      1  C   UNL     1       4.758   4.990  16.661  0.00  0.00    +0.000 A 
ATOM      2  C   UNL     1       3.923   3.903  16.971  0.00  0.00    +0.000 A 
ATOM      3  C   UNL     1       2.998   3.999  18.012  0.00  0.00    +0.000 A 
ATOM      4 BR   UNL     1       1.869   2.534  18.405  0.00  0.00    +0.000 Br
ATOM      5  C   UNL     1       2.895   5.164  18.766  0.00  0.00    +0.000 A 
ATOM      6  C   UNL     1       3.716   6.252  18.474  0.00  0.00    +0.000 A 
ATOM      7  C   UNL     1       4.637   6.165  17.426  0.00  0.00    +0.000 A 
ENDROOT
BRANCH   1  10
ATOM      8  C   UNL     1       6.733   4.405  13.650  0.00  0.00    +0.000 A 
ATOM      9  C   UNL     1       5.582   4.156  14.348  0.00  0.00    +0.000 A 
ATOM     10  C   UNL     1       5.726   4.868  15.567  0.00  0.00    +0.000 A 
ATOM     11  N   UNL     1       6.932   5.459  15.614  0.00  0.00    +0.000 NA
ATOM     12  O   UNL     1       7.549   5.184  14.405  0.00  0.00    +0.000 OA
BRANCH   8  13
ATOM     13  C   UNL     1       7.195   4.035  12.293  0.00  0.00    +0.000 C 
BRANCH  13  15
ATOM     14  C   UNL     1       7.268   1.841  11.081  0.00  0.00    +0.000 C 
ATOM     15  C   UNL     1       6.367   2.910  11.679  0.00  0.00    +0.000 C 
ENDBRANCH  13  15
ENDBRANCH   8  13
ENDBRANCH   1  10
BRANCH   7  16
ATOM     16  O   UNL     1       5.434   7.248  17.165  0.00  0.00    +0.000 OA
ATOM     17  H   UNL     1       4.912   7.934  16.717  0.00  0.00    +0.000 HD
ENDBRANCH   7  16
TORSDOF 4
ENDMDL
MODEL 7
REMARK VINA RESULT:      -6.6      3.281      6.010
REMARK  Name = 
REMARK  5 active torsions:
REMARK  status: ('A' for Active; 'I' for Inactive)
REMARK    1  A    between atoms: C_1  and  C_2
REMARK    2  A    between atoms: C_2  and  C_3
REMARK    3  A    between atoms: C_3  and  C_4
REMARK    4  A    between atoms: C_6  and  C_7
REMARK    5  A    between atoms: C_13  and  O_14
REMARK                            x       y       z     vdW  Elec       q    Type
REMARK                         _______ _______ _______ _____ _____    ______ ____
ROOT
ATOM      1  C   UNL     1       4.886   4.560  16.676  0.00  0.00    +0.000 A 
ATOM      2  C   UNL     1       4.939   4.087  15.354  0.00  0.00    +0.000 A 
ATOM      3  C   UNL     1       6.092   4.259  14.589  0.00  0.00    +0.000 A 
ATOM      4 BR   UNL     1       6.153   3.601  12.817  0.00  0.00    +0.000 Br
ATOM      5  C   UNL     1       7.205   4.909  15.116  0.00  0.00    +0.000 A 
ATOM      6  C   UNL     1       7.170   5.386  16.425  0.00  0.00    +0.000 A 
ATOM      7  C   UNL     1       6.021   5.208  17.199  0.00  0.00    +0.000 A 
ENDROOT
BRANCH   1  10
ATOM      8  C   UNL     1       1.980   3.522  18.622  0.00  0.00    +0.000 A 
ATOM      9  C   UNL     1       3.058   3.155  17.862  0.00  0.00    +0.000 A 
ATOM     10  C   UNL     1       3.663   4.374  17.462  0.00  0.00    +0.000 A 
ATOM     11  N   UNL     1       2.941   5.415  17.913  0.00  0.00    +0.000 NA
ATOM     12  O   UNL     1       1.903   4.876  18.655  0.00  0.00    +0.000 OA
BRANCH   8  13
ATOM     13  C   UNL     1       0.979   2.755  19.397  0.00  0.00    +0.000 C 
BRANCH  13  15
ATOM     14  C   UNL     1       2.381   2.768  21.477  0.00  0.00    +0.000 C 
ATOM     15  C   UNL     1       1.016   3.085  20.887  0.00  0.00    +0.000 C 
ENDBRANCH  13  15
ENDBRANCH   8  13
ENDBRANCH   1  10
BRANCH   7  16
ATOM     16  O   UNL     1       6.015   5.692  18.481  0.00  0.00    +0.000 OA
ATOM     17  H   UNL     1       6.930   5.815  18.784  0.00  0.00    +0.000 HD
ENDBRANCH   7  16
TORSDOF 4
ENDMDL
MODEL 8
REMARK VINA RESULT:      -6.6      3.167      6.118
REMARK  Name = 
REMARK  5 active torsions:
REMARK  status: ('A' for Active; 'I' for Inactive)
REMARK    1  A    between atoms: C_1  and  C_2
REMARK    2  A    between atoms: C_2  and  C_3
REMARK    3  A    between atoms: C_3  and  C_4
REMARK    4  A    between atoms: C_6  and  C_7
REMARK    5  A    between atoms: C_13  and  O_14
REMARK                            x       y       z     vdW  Elec       q    Type
REMARK                         _______ _______ _______ _____ _____    ______ ____
ROOT
ATOM      1  C   UNL     1       5.066   4.731  17.454  0.00  0.00    +0.000 A 
ATOM      2  C   UNL     1       4.928   4.463  16.082  0.00  0.00    +0.000 A 
ATOM      3  C   UNL     1       6.055   4.326  15.272  0.00  0.00    +0.000 A 
ATOM      4 BR   UNL     1       5.852   3.949  13.431  0.00  0.00    +0.000 Br
ATOM      5  C   UNL     1       7.334   4.462  15.806  0.00  0.00    +0.000 A 
ATOM      6  C   UNL     1       7.491   4.729  17.165  0.00  0.00    +0.000 A 
ATOM      7  C   UNL     1       6.364   4.857  17.983  0.00  0.00    +0.000 A 
ENDROOT
BRANCH   1  10
ATOM      8  C   UNL     1       2.002   4.514  19.423  0.00  0.00    +0.000 A 
ATOM      9  C   UNL     1       2.863   3.909  18.547  0.00  0.00    +0.000 A 
ATOM     10  C   UNL     1       3.868   4.875  18.287  0.00  0.00    +0.000 A 
ATOM     11  N   UNL     1       3.583   6.020  18.931  0.00  0.00    +0.000 NA
ATOM     12  O   UNL     1       2.428   5.781  19.657  0.00  0.00    +0.000 OA
BRANCH   8  13
ATOM     13  C   UNL     1       0.798   4.047  20.147  0.00  0.00    +0.000 C 
BRANCH  13  15
ATOM     14  C   UNL     1       2.203   3.009  21.946  0.00  0.00    +0.000 C 
ATOM     15  C   UNL     1       1.061   2.787  20.968  0.00  0.00    +0.000 C 
ENDBRANCH  13  15
ENDBRANCH   8  13
ENDBRANCH   1  10
BRANCH   7  16
ATOM     16  O   UNL     1       6.550   5.124  19.313  0.00  0.00    +0.000 OA
ATOM     17  H   UNL     1       6.156   4.412  19.844  0.00  0.00    +0.000 HD
ENDBRANCH   7  16
TORSDOF 4
ENDMDL
MODEL 9
REMARK VINA RESULT:      -6.5      1.123      1.218
REMARK  Name = 
REMARK  5 active torsions:
REMARK  status: ('A' for Active; 'I' for Inactive)
REMARK    1  A    between atoms: C_1  and  C_2
REMARK    2  A    between atoms: C_2  and  C_3
REMARK    3  A    between atoms: C_3  and  C_4
REMARK    4  A    between atoms: C_6  and  C_7
REMARK    5  A    between atoms: C_13  and  O_14
REMARK                            x       y       z     vdW  Elec       q    Type
REMARK                         _______ _______ _______ _____ _____    ______ ____
ROOT
ATOM      1  C   UNL     1       4.752   4.500  17.341  0.00  0.00    +0.000 A 
ATOM      2  C   UNL     1       3.624   3.671  17.466  0.00  0.00    +0.000 A 
ATOM      3  C   UNL     1       2.808   3.755  18.594  0.00  0.00    +0.000 A 
ATOM      4 BR   UNL     1       1.284   2.645  18.739  0.00  0.00    +0.000 Br
ATOM      5  C   UNL     1       3.101   4.653  19.618  0.00  0.00    +0.000 A 
ATOM      6  C   UNL     1       4.215   5.482  19.512  0.00  0.00    +0.000 A 
ATOM      7  C   UNL     1       5.031   5.409  18.379  0.00  0.00    +0.000 A 
ENDROOT
BRANCH   1  10
ATOM      8  C   UNL     1       6.354   4.164  14.081  0.00  0.00    +0.000 A 
ATOM      9  C   UNL     1       5.207   4.078  14.824  0.00  0.00    +0.000 A 
ATOM     10  C   UNL     1       5.600   4.393  16.150  0.00  0.00    +0.000 A 
ATOM     11  N   UNL     1       6.928   4.595  16.201  0.00  0.00    +0.000 NA
ATOM     12  O   UNL     1       7.390   4.472  14.902  0.00  0.00    +0.000 OA
BRANCH   8  13
ATOM     13  C   UNL     1       6.636   4.033  12.634  0.00  0.00    +0.000 C 
BRANCH  13  15
ATOM     14  C   UNL     1       4.532   3.336  11.462  0.00  0.00    +0.000 C 
ATOM     15  C   UNL     1       5.879   2.874  11.992  0.00  0.00    +0.000 C 
ENDBRANCH  13  15
ENDBRANCH   8  13
ENDBRANCH   1  10
BRANCH   7  16
ATOM     16  O   UNL     1       6.122   6.234  18.306  0.00  0.00    +0.000 OA
ATOM     17  H   UNL     1       6.113   6.850  19.056  0.00  0.00    +0.000 HD
ENDBRANCH   7  16
TORSDOF 4
ENDMDL
