MODEL 1
REMARK VINA RESULT:      -8.5      0.000      0.000
REMARK  Name = 
REMARK  6 active torsions:
REMARK  status: ('A' for Active; 'I' for Inactive)
REMARK    1  A    between atoms: C_1  and  N_2
REMARK    2  A    between atoms: C_8  and  S_9
REMARK    3  A    between atoms: S_9  and  C_10
REMARK    4  A    between atoms: C_10  and  C_11
REMARK    5  A    between atoms: N_23  and  C_24
REMARK    6  A    between atoms: N_25  and  C_26
REMARK                            x       y       z     vdW  Elec       q    Type
REMARK                         _______ _______ _______ _____ _____    ______ ____
ROOT
ATOM      1  C   UNL     1       8.240   6.779  18.504  0.00  0.00    +0.000 C 
ATOM      2  N   UNL     1       7.191   5.883  18.055  0.00  0.00    +0.000 N 
ATOM      3  C   UNL     1       6.511   5.133  19.018  0.00  0.00    +0.000 A 
ATOM      4  O   UNL     1       6.756   5.186  20.218  0.00  0.00    +0.000 OA
ATOM      5  C   UNL     1       5.492   4.294  18.460  0.00  0.00    +0.000 A 
ATOM      6  C   UNL     1       5.224   4.236  17.134  0.00  0.00    +0.000 A 
ATOM      7  N   UNL     1       4.205   3.373  16.859  0.00  0.00    +0.000 NA
ATOM      8  C   UNL     1       3.838   2.896  18.037  0.00  0.00    +0.000 A 
ATOM      9  N   UNL     1       4.609   3.432  19.056  0.00  0.00    +0.000 N 
ATOM     10  C   UNL     1       4.587   3.235  20.487  0.00  0.00    +0.000 C 
ATOM     11  N   UNL     1       5.926   4.999  16.221  0.00  0.00    +0.000 N 
ATOM     12  C   UNL     1       5.644   4.953  14.807  0.00  0.00    +0.000 C 
ATOM     13  C   UNL     1       6.938   5.851  16.672  0.00  0.00    +0.000 A 
ATOM     14  O   UNL     1       7.585   6.552  15.886  0.00  0.00    +0.000 OA
ENDROOT
BRANCH   8  15
ATOM     15  S   UNL     1       2.555   1.735  18.260  0.00  0.00    +0.000 S 
BRANCH  15  16
ATOM     16  C   UNL     1       1.078   2.790  18.588  0.00  0.00    +0.000 C 
BRANCH  16  17
ATOM     17  C   UNL     1       1.263   3.721  19.804  0.00  0.00    +0.000 C 
ATOM     18  O   UNL     1       1.098   3.322  20.960  0.00  0.00    +0.000 OA
ATOM     19  N   UNL     1       1.698   5.033  19.547  0.00  0.00    +0.000 N 
ATOM     20  C   UNL     1       1.921   5.575  18.197  0.00  0.00    +0.000 C 
ATOM     21  C   UNL     1       2.616   6.945  18.148  0.00  0.00    +0.000 C 
ATOM     22  C   UNL     1       1.918   7.899  19.078  0.00  0.00    +0.000 A 
ATOM     23  C   UNL     1       1.718   9.247  18.762  0.00  0.00    +0.000 A 
ATOM     24  C   UNL     1       1.054  10.081  19.663  0.00  0.00    +0.000 A 
ATOM     25  C   UNL     1       0.602   9.576  20.882  0.00  0.00    +0.000 A 
ATOM     26  C   UNL     1       0.824   8.239  21.211  0.00  0.00    +0.000 A 
ATOM     27  C   UNL     1       1.482   7.392  20.313  0.00  0.00    +0.000 A 
ATOM     28  C   UNL     1       1.805   5.961  20.680  0.00  0.00    +0.000 C 
ENDBRANCH  16  17
ENDBRANCH  15  16
ENDBRANCH   8  15
TORSDOF 3
ENDMDL
MODEL 2
REMARK VINA RESULT:      -7.7      5.643      9.469
REMARK  Name = 
REMARK  6 active torsions:
REMARK  status: ('A' for Active; 'I' for Inactive)
REMARK    1  A    between atoms: C_1  and  N_2
REMARK    2  A    between atoms: C_8  and  S_9
REMARK    3  A    between atoms: S_9  and  C_10
REMARK    4  A    between atoms: C_10  and  C_11
REMARK    5  A    between atoms: N_23  and  C_24
REMARK    6  A    between atoms: N_25  and  C_26
REMARK                            x       y       z     vdW  Elec       q    Type
REMARK                         _______ _______ _______ _____ _____    ______ ____
ROOT
ATOM      1  C   UNL     1      -6.252  12.829  19.174  0.00  0.00    +0.000 C 
ATOM      2  N   UNL     1      -4.933  12.372  18.778  0.00  0.00    +0.000 N 
ATOM      3  C   UNL     1      -3.903  12.444  19.719  0.00  0.00    +0.000 A 
ATOM      4  O   UNL     1      -4.051  12.876  20.857  0.00  0.00    +0.000 OA
ATOM      5  C   UNL     1      -2.651  11.958  19.219  0.00  0.00    +0.000 A 
ATOM      6  C   UNL     1      -2.489  11.482  17.962  0.00  0.00    +0.000 A 
ATOM      7  N   UNL     1      -1.210  11.070  17.735  0.00  0.00    +0.000 NA
ATOM      8  C   UNL     1      -0.575  11.292  18.874  0.00  0.00    +0.000 A 
ATOM      9  N   UNL     1      -1.424  11.846  19.819  0.00  0.00    +0.000 N 
ATOM     10  C   UNL     1      -1.208  12.250  21.190  0.00  0.00    +0.000 C 
ATOM     11  N   UNL     1      -3.542  11.431  17.068  0.00  0.00    +0.000 N 
ATOM     12  C   UNL     1      -3.385  10.919  15.728  0.00  0.00    +0.000 C 
ATOM     13  C   UNL     1      -4.803  11.882  17.466  0.00  0.00    +0.000 A 
ATOM     14  O   UNL     1      -5.770  11.849  16.696  0.00  0.00    +0.000 OA
ENDROOT
BRANCH   8  15
ATOM     15  S   UNL     1       1.113  10.939  19.132  0.00  0.00    +0.000 S 
BRANCH  15  16
ATOM     16  C   UNL     1       1.100   9.183  19.695  0.00  0.00    +0.000 C 
BRANCH  16  17
ATOM     17  C   UNL     1       2.009   8.273  18.843  0.00  0.00    +0.000 C 
ATOM     18  O   UNL     1       2.551   8.677  17.811  0.00  0.00    +0.000 OA
ATOM     19  N   UNL     1       2.252   6.975  19.327  0.00  0.00    +0.000 N 
ATOM     20  C   UNL     1       1.645   6.429  20.552  0.00  0.00    +0.000 C 
ATOM     21  C   UNL     1       2.223   5.085  21.025  0.00  0.00    +0.000 C 
ATOM     22  C   UNL     1       2.253   4.115  19.877  0.00  0.00    +0.000 A 
ATOM     23  C   UNL     1       1.953   2.757  20.030  0.00  0.00    +0.000 A 
ATOM     24  C   UNL     1       1.990   1.908  18.922  0.00  0.00    +0.000 A 
ATOM     25  C   UNL     1       2.336   2.408  17.667  0.00  0.00    +0.000 A 
ATOM     26  C   UNL     1       2.661   3.756  17.516  0.00  0.00    +0.000 A 
ATOM     27  C   UNL     1       2.622   4.618  18.617  0.00  0.00    +0.000 A 
ATOM     28  C   UNL     1       3.048   6.064  18.496  0.00  0.00    +0.000 C 
ENDBRANCH  16  17
ENDBRANCH  15  16
ENDBRANCH   8  15
TORSDOF 3
ENDMDL
MODEL 3
REMARK VINA RESULT:      -7.5      4.648      6.265
REMARK  Name = 
REMARK  6 active torsions:
REMARK  status: ('A' for Active; 'I' for Inactive)
REMARK    1  A    between atoms: C_1  and  N_2
REMARK    2  A    between atoms: C_8  and  S_9
REMARK    3  A    between atoms: S_9  and  C_10
REMARK    4  A    between atoms: C_10  and  C_11
REMARK    5  A    between atoms: N_23  and  C_24
REMARK    6  A    between atoms: N_25  and  C_26
REMARK                            x       y       z     vdW  Elec       q    Type
REMARK                         _______ _______ _______ _____ _____    ______ ____
ROOT
ATOM      1  C   UNL     1       3.337   2.731  20.521  0.00  0.00    +0.000 C 
ATOM      2  N   UNL     1       3.277   3.956  19.745  0.00  0.00    +0.000 N 
ATOM      3  C   UNL     1       2.595   5.047  20.290  0.00  0.00    +0.000 A 
ATOM      4  O   UNL     1       2.040   5.024  21.383  0.00  0.00    +0.000 OA
ATOM      5  C   UNL     1       2.610   6.200  19.440  0.00  0.00    +0.000 A 
ATOM      6  C   UNL     1       3.223   6.224  18.233  0.00  0.00    +0.000 A 
ATOM      7  N   UNL     1       3.105   7.439  17.626  0.00  0.00    +0.000 NA
ATOM      8  C   UNL     1       2.413   8.177  18.478  0.00  0.00    +0.000 A 
ATOM      9  N   UNL     1       2.079   7.452  19.611  0.00  0.00    +0.000 N 
ATOM     10  C   UNL     1       1.351   7.812  20.806  0.00  0.00    +0.000 C 
ATOM     11  N   UNL     1       3.886   5.117  17.738  0.00  0.00    +0.000 N 
ATOM     12  C   UNL     1       4.550   5.131  16.457  0.00  0.00    +0.000 C 
ATOM     13  C   UNL     1       3.927   3.945  18.497  0.00  0.00    +0.000 A 
ATOM     14  O   UNL     1       4.513   2.935  18.090  0.00  0.00    +0.000 OA
ENDROOT
BRANCH   8  15
ATOM     15  S   UNL     1       1.974   9.841  18.191  0.00  0.00    +0.000 S 
BRANCH  15  16
ATOM     16  C   UNL     1       0.146   9.766  17.962  0.00  0.00    +0.000 C 
BRANCH  16  17
ATOM     17  C   UNL     1      -0.596  10.918  18.670  0.00  0.00    +0.000 C 
ATOM     18  O   UNL     1      -0.042  11.626  19.515  0.00  0.00    +0.000 OA
ATOM     19  N   UNL     1      -1.917  11.176  18.264  0.00  0.00    +0.000 N 
ATOM     20  C   UNL     1      -2.637  10.379  17.258  0.00  0.00    +0.000 C 
ATOM     21  C   UNL     1      -3.978  10.970  16.792  0.00  0.00    +0.000 C 
ATOM     22  C   UNL     1      -4.812  11.337  17.989  0.00  0.00    +0.000 A 
ATOM     23  C   UNL     1      -6.197  11.144  18.030  0.00  0.00    +0.000 A 
ATOM     24  C   UNL     1      -6.914  11.497  19.174  0.00  0.00    +0.000 A 
ATOM     25  C   UNL     1      -6.256  12.052  20.271  0.00  0.00    +0.000 A 
ATOM     26  C   UNL     1      -4.879  12.270  20.223  0.00  0.00    +0.000 A 
ATOM     27  C   UNL     1      -4.148  11.915  19.085  0.00  0.00    +0.000 A 
ATOM     28  C   UNL     1      -2.670  12.215  18.977  0.00  0.00    +0.000 C 
ENDBRANCH  16  17
ENDBRANCH  15  16
ENDBRANCH   8  15
TORSDOF 3
ENDMDL
MODEL 4
REMARK VINA RESULT:      -7.5      5.854      9.954
REMARK  Name = 
REMARK  6 active torsions:
REMARK  status: ('A' for Active; 'I' for Inactive)
REMARK    1  A    between atoms: C_1  and  N_2
REMARK    2  A    between atoms: C_8  and  S_9
REMARK    3  A    between atoms: S_9  and  C_10
REMARK    4  A    between atoms: C_10  and  C_11
REMARK    5  A    between atoms: N_23  and  C_24
REMARK    6  A    between atoms: N_25  and  C_26
REMARK                            x       y       z     vdW  Elec       q    Type
REMARK                         _______ _______ _______ _____ _____    ______ ____
ROOT
ATOM      1  C   UNL     1      -6.905  11.449  18.674  0.00  0.00    +0.000 C 
ATOM      2  N   UNL     1      -5.516  11.736  18.980  0.00  0.00    +0.000 N 
ATOM      3  C   UNL     1      -4.531  11.109  18.212  0.00  0.00    +0.000 A 
ATOM      4  O   UNL     1      -4.776  10.328  17.299  0.00  0.00    +0.000 OA
ATOM      5  C   UNL     1      -3.200  11.475  18.598  0.00  0.00    +0.000 A 
ATOM      6  C   UNL     1      -2.932  12.338  19.606  0.00  0.00    +0.000 A 
ATOM      7  N   UNL     1      -1.592  12.529  19.768  0.00  0.00    +0.000 NA
ATOM      8  C   UNL     1      -1.028  11.775  18.839  0.00  0.00    +0.000 A 
ATOM      9  N   UNL     1      -1.982  11.100  18.095  0.00  0.00    +0.000 N 
ATOM     10  C   UNL     1      -1.867  10.183  16.984  0.00  0.00    +0.000 C 
ATOM     11  N   UNL     1      -3.943  12.932  20.337  0.00  0.00    +0.000 N 
ATOM     12  C   UNL     1      -3.670  13.859  21.408  0.00  0.00    +0.000 C 
ATOM     13  C   UNL     1      -5.275  12.638  20.032  0.00  0.00    +0.000 A 
ATOM     14  O   UNL     1      -6.206  13.152  20.660  0.00  0.00    +0.000 OA
ENDROOT
BRANCH   8  15
ATOM     15  S   UNL     1       0.696  11.650  18.603  0.00  0.00    +0.000 S 
BRANCH  15  16
ATOM     16  C   UNL     1       1.142  10.117  19.526  0.00  0.00    +0.000 C 
BRANCH  16  17
ATOM     17  C   UNL     1       1.775   9.036  18.626  0.00  0.00    +0.000 C 
ATOM     18  O   UNL     1       2.143   9.282  17.475  0.00  0.00    +0.000 OA
ATOM     19  N   UNL     1       1.979   7.767  19.195  0.00  0.00    +0.000 N 
ATOM     20  C   UNL     1       1.572   7.404  20.562  0.00  0.00    +0.000 C 
ATOM     21  C   UNL     1       2.097   6.050  21.064  0.00  0.00    +0.000 C 
ATOM     22  C   UNL     1       1.809   4.985  20.041  0.00  0.00    +0.000 A 
ATOM     23  C   UNL     1       1.414   3.690  20.393  0.00  0.00    +0.000 A 
ATOM     24  C   UNL     1       1.152   2.749  19.396  0.00  0.00    +0.000 A 
ATOM     25  C   UNL     1       1.295   3.093  18.052  0.00  0.00    +0.000 A 
ATOM     26  C   UNL     1       1.714   4.375  17.699  0.00  0.00    +0.000 A 
ATOM     27  C   UNL     1       1.974   5.329  18.689  0.00  0.00    +0.000 A 
ATOM     28  C   UNL     1       2.506   6.700  18.335  0.00  0.00    +0.000 C 
ENDBRANCH  16  17
ENDBRANCH  15  16
ENDBRANCH   8  15
TORSDOF 3
ENDMDL
MODEL 5
REMARK VINA RESULT:      -7.3      4.119      5.586
REMARK  Name = 
REMARK  6 active torsions:
REMARK  status: ('A' for Active; 'I' for Inactive)
REMARK    1  A    between atoms: C_1  and  N_2
REMARK    2  A    between atoms: C_8  and  S_9
REMARK    3  A    between atoms: S_9  and  C_10
REMARK    4  A    between atoms: C_10  and  C_11
REMARK    5  A    between atoms: N_23  and  C_24
REMARK    6  A    between atoms: N_25  and  C_26
REMARK                            x       y       z     vdW  Elec       q    Type
REMARK                         _______ _______ _______ _____ _____    ______ ____
ROOT
ATOM      1  C   UNL     1       4.230   1.763  17.577  0.00  0.00    +0.000 C 
ATOM      2  N   UNL     1       3.960   3.176  17.765  0.00  0.00    +0.000 N 
ATOM      3  C   UNL     1       3.086   3.547  18.790  0.00  0.00    +0.000 A 
ATOM      4  O   UNL     1       2.532   2.745  19.535  0.00  0.00    +0.000 OA
ATOM      5  C   UNL     1       2.903   4.965  18.886  0.00  0.00    +0.000 A 
ATOM      6  C   UNL     1       3.515   5.849  18.064  0.00  0.00    +0.000 A 
ATOM      7  N   UNL     1       3.187   7.137  18.367  0.00  0.00    +0.000 NA
ATOM      8  C   UNL     1       2.364   7.043  19.398  0.00  0.00    +0.000 A 
ATOM      9  N   UNL     1       2.154   5.720  19.750  0.00  0.00    +0.000 N 
ATOM     10  C   UNL     1       1.359   5.116  20.795  0.00  0.00    +0.000 C 
ATOM     11  N   UNL     1       4.372   5.430  17.064  0.00  0.00    +0.000 N 
ATOM     12  C   UNL     1       5.037   6.362  16.185  0.00  0.00    +0.000 C 
ATOM     13  C   UNL     1       4.615   4.065  16.894  0.00  0.00    +0.000 A 
ATOM     14  O   UNL     1       5.377   3.652  16.013  0.00  0.00    +0.000 OA
ENDROOT
BRANCH   8  15
ATOM     15  S   UNL     1       1.636   8.417  20.190  0.00  0.00    +0.000 S 
BRANCH  15  16
ATOM     16  C   UNL     1       1.114   9.491  18.785  0.00  0.00    +0.000 C 
BRANCH  16  17
ATOM     17  C   UNL     1       0.301  10.721  19.240  0.00  0.00    +0.000 C 
ATOM     18  O   UNL     1       0.692  11.459  20.147  0.00  0.00    +0.000 OA
ATOM     19  N   UNL     1      -0.877  11.010  18.529  0.00  0.00    +0.000 N 
ATOM     20  C   UNL     1      -1.400  10.178  17.433  0.00  0.00    +0.000 C 
ATOM     21  C   UNL     1      -2.564  10.795  16.642  0.00  0.00    +0.000 C 
ATOM     22  C   UNL     1      -3.622  11.280  17.594  0.00  0.00    +0.000 A 
ATOM     23  C   UNL     1      -4.990  11.152  17.330  0.00  0.00    +0.000 A 
ATOM     24  C   UNL     1      -5.924  11.615  18.259  0.00  0.00    +0.000 A 
ATOM     25  C   UNL     1      -5.496  12.214  19.443  0.00  0.00    +0.000 A 
ATOM     26  C   UNL     1      -4.133  12.367  19.698  0.00  0.00    +0.000 A 
ATOM     27  C   UNL     1      -3.188  11.902  18.778  0.00  0.00    +0.000 A 
ATOM     28  C   UNL     1      -1.708  12.127  18.993  0.00  0.00    +0.000 C 
ENDBRANCH  16  17
ENDBRANCH  15  16
ENDBRANCH   8  15
TORSDOF 3
ENDMDL
MODEL 6
REMARK VINA RESULT:      -7.1      4.441      6.258
REMARK  Name = 
REMARK  6 active torsions:
REMARK  status: ('A' for Active; 'I' for Inactive)
REMARK    1  A    between atoms: C_1  and  N_2
REMARK    2  A    between atoms: C_8  and  S_9
REMARK    3  A    between atoms: S_9  and  C_10
REMARK    4  A    between atoms: C_10  and  C_11
REMARK    5  A    between atoms: N_23  and  C_24
REMARK    6  A    between atoms: N_25  and  C_26
REMARK                            x       y       z     vdW  Elec       q    Type
REMARK                         _______ _______ _______ _____ _____    ______ ____
ROOT
ATOM      1  C   UNL     1       4.908   3.756  16.684  0.00  0.00    +0.000 C 
ATOM      2  N   UNL     1       4.107   4.364  17.729  0.00  0.00    +0.000 N 
ATOM      3  C   UNL     1       3.836   5.732  17.637  0.00  0.00    +0.000 A 
ATOM      4  O   UNL     1       4.243   6.446  16.727  0.00  0.00    +0.000 OA
ATOM      5  C   UNL     1       3.030   6.219  18.718  0.00  0.00    +0.000 A 
ATOM      6  C   UNL     1       2.582   5.429  19.722  0.00  0.00    +0.000 A 
ATOM      7  N   UNL     1       1.828   6.126  20.619  0.00  0.00    +0.000 NA
ATOM      8  C   UNL     1       1.807   7.364  20.153  0.00  0.00    +0.000 A 
ATOM      9  N   UNL     1       2.541   7.471  18.984  0.00  0.00    +0.000 N 
ATOM     10  C   UNL     1       2.806   8.592  18.110  0.00  0.00    +0.000 C 
ATOM     11  N   UNL     1       2.878   4.081  19.767  0.00  0.00    +0.000 N 
ATOM     12  C   UNL     1       2.400   3.226  20.828  0.00  0.00    +0.000 C 
ATOM     13  C   UNL     1       3.657   3.514  18.755  0.00  0.00    +0.000 A 
ATOM     14  O   UNL     1       3.939   2.310  18.759  0.00  0.00    +0.000 OA
ENDROOT
BRANCH   8  15
ATOM     15  S   UNL     1       0.969   8.682  20.931  0.00  0.00    +0.000 S 
BRANCH  15  16
ATOM     16  C   UNL     1       0.487   9.771  19.523  0.00  0.00    +0.000 C 
BRANCH  16  17
ATOM     17  C   UNL     1      -0.425  10.939  19.952  0.00  0.00    +0.000 C 
ATOM     18  O   UNL     1      -0.182  11.622  20.948  0.00  0.00    +0.000 OA
ATOM     19  N   UNL     1      -1.517  11.239  19.117  0.00  0.00    +0.000 N 
ATOM     20  C   UNL     1      -1.864  10.471  17.911  0.00  0.00    +0.000 C 
ATOM     21  C   UNL     1      -2.945  11.104  17.020  0.00  0.00    +0.000 C 
ATOM     22  C   UNL     1      -4.132  11.486  17.861  0.00  0.00    +0.000 A 
ATOM     23  C   UNL     1      -5.450  11.332  17.416  0.00  0.00    +0.000 A 
ATOM     24  C   UNL     1      -6.511  11.697  18.247  0.00  0.00    +0.000 A 
ATOM     25  C   UNL     1      -6.260  12.223  19.514  0.00  0.00    +0.000 A 
ATOM     26  C   UNL     1      -4.947  12.402  19.950  0.00  0.00    +0.000 A 
ATOM     27  C   UNL     1      -3.876  12.035  19.128  0.00  0.00    +0.000 A 
ATOM     28  C   UNL     1      -2.445  12.293  19.545  0.00  0.00    +0.000 C 
ENDBRANCH  16  17
ENDBRANCH  15  16
ENDBRANCH   8  15
TORSDOF 3
ENDMDL
MODEL 7
REMARK VINA RESULT:      -7.0      3.445      5.749
REMARK  Name = 
REMARK  6 active torsions:
REMARK  status: ('A' for Active; 'I' for Inactive)
REMARK    1  A    between atoms: C_1  and  N_2
REMARK    2  A    between atoms: C_8  and  S_9
REMARK    3  A    between atoms: S_9  and  C_10
REMARK    4  A    between atoms: C_10  and  C_11
REMARK    5  A    between atoms: N_23  and  C_24
REMARK    6  A    between atoms: N_25  and  C_26
REMARK                            x       y       z     vdW  Elec       q    Type
REMARK                         _______ _______ _______ _____ _____    ______ ____
ROOT
ATOM      1  C   UNL     1       4.091   1.413  18.360  0.00  0.00    +0.000 C 
ATOM      2  N   UNL     1       3.528   2.739  18.537  0.00  0.00    +0.000 N 
ATOM      3  C   UNL     1       4.090   3.794  17.813  0.00  0.00    +0.000 A 
ATOM      4  O   UNL     1       5.035   3.661  17.043  0.00  0.00    +0.000 OA
ATOM      5  C   UNL     1       3.448   5.051  18.061  0.00  0.00    +0.000 A 
ATOM      6  C   UNL     1       2.405   5.195  18.912  0.00  0.00    +0.000 A 
ATOM      7  N   UNL     1       1.966   6.484  18.964  0.00  0.00    +0.000 NA
ATOM      8  C   UNL     1       2.749   7.142  18.125  0.00  0.00    +0.000 A 
ATOM      9  N   UNL     1       3.684   6.299  17.548  0.00  0.00    +0.000 N 
ATOM     10  C   UNL     1       4.731   6.539  16.581  0.00  0.00    +0.000 C 
ATOM     11  N   UNL     1       1.885   4.119  19.605  0.00  0.00    +0.000 N 
ATOM     12  C   UNL     1       0.769   4.257  20.509  0.00  0.00    +0.000 C 
ATOM     13  C   UNL     1       2.445   2.851  19.427  0.00  0.00    +0.000 A 
ATOM     14  O   UNL     1       2.004   1.864  20.027  0.00  0.00    +0.000 OA
ENDROOT
BRANCH   8  15
ATOM     15  S   UNL     1       2.615   8.853  17.808  0.00  0.00    +0.000 S 
BRANCH  15  16
ATOM     16  C   UNL     1       0.914   9.262  18.392  0.00  0.00    +0.000 C 
BRANCH  16  17
ATOM     17  C   UNL     1       0.885   9.771  19.848  0.00  0.00    +0.000 C 
ATOM     18  O   UNL     1       1.593   9.270  20.726  0.00  0.00    +0.000 OA
ATOM     19  N   UNL     1       0.065  10.879  20.124  0.00  0.00    +0.000 N 
ATOM     20  C   UNL     1      -0.799  11.530  19.127  0.00  0.00    +0.000 C 
ATOM     21  C   UNL     1      -1.428  12.860  19.573  0.00  0.00    +0.000 C 
ATOM     22  C   UNL     1      -2.076  12.685  20.919  0.00  0.00    +0.000 A 
ATOM     23  C   UNL     1      -3.290  13.295  21.254  0.00  0.00    +0.000 A 
ATOM     24  C   UNL     1      -3.846  13.087  22.518  0.00  0.00    +0.000 A 
ATOM     25  C   UNL     1      -3.189  12.283  23.449  0.00  0.00    +0.000 A 
ATOM     26  C   UNL     1      -1.966  11.696  23.127  0.00  0.00    +0.000 A 
ATOM     27  C   UNL     1      -1.402  11.892  21.862  0.00  0.00    +0.000 A 
ATOM     28  C   UNL     1      -0.040  11.332  21.516  0.00  0.00    +0.000 C 
ENDBRANCH  16  17
ENDBRANCH  15  16
ENDBRANCH   8  15
TORSDOF 3
ENDMDL
MODEL 8
REMARK VINA RESULT:      -6.9      3.878      5.863
REMARK  Name = 
REMARK  6 active torsions:
REMARK  status: ('A' for Active; 'I' for Inactive)
REMARK    1  A    between atoms: C_1  and  N_2
REMARK    2  A    between atoms: C_8  and  S_9
REMARK    3  A    between atoms: S_9  and  C_10
REMARK    4  A    between atoms: C_10  and  C_11
REMARK    5  A    between atoms: N_23  and  C_24
REMARK    6  A    between atoms: N_25  and  C_26
REMARK                            x       y       z     vdW  Elec       q    Type
REMARK                         _______ _______ _______ _____ _____    ______ ____
ROOT
ATOM      1  C   UNL     1       4.791   1.592  19.684  0.00  0.00    +0.000 C 
ATOM      2  N   UNL     1       4.074   2.843  19.523  0.00  0.00    +0.000 N 
ATOM      3  C   UNL     1       4.709   3.880  18.835  0.00  0.00    +0.000 A 
ATOM      4  O   UNL     1       5.838   3.793  18.365  0.00  0.00    +0.000 OA
ATOM      5  C   UNL     1       3.903   5.061  18.731  0.00  0.00    +0.000 A 
ATOM      6  C   UNL     1       2.656   5.155  19.250  0.00  0.00    +0.000 A 
ATOM      7  N   UNL     1       2.096   6.374  19.007  0.00  0.00    +0.000 NA
ATOM      8  C   UNL     1       3.012   7.038  18.321  0.00  0.00    +0.000 A 
ATOM      9  N   UNL     1       4.148   6.269  18.131  0.00  0.00    +0.000 N 
ATOM     10  C   UNL     1       5.394   6.540  17.450  0.00  0.00    +0.000 C 
ATOM     11  N   UNL     1       2.073   4.100  19.923  0.00  0.00    +0.000 N 
ATOM     12  C   UNL     1       0.741   4.185  20.475  0.00  0.00    +0.000 C 
ATOM     13  C   UNL     1       2.781   2.905  20.074  0.00  0.00    +0.000 A 
ATOM     14  O   UNL     1       2.291   1.937  20.666  0.00  0.00    +0.000 OA
ENDROOT
BRANCH   8  15
ATOM     15  S   UNL     1       2.804   8.672  17.749  0.00  0.00    +0.000 S 
BRANCH  15  16
ATOM     16  C   UNL     1       0.983   8.938  17.871  0.00  0.00    +0.000 C 
BRANCH  16  17
ATOM     17  C   UNL     1       0.615  10.305  18.486  0.00  0.00    +0.000 C 
ATOM     18  O   UNL     1       1.431  10.969  19.129  0.00  0.00    +0.000 OA
ATOM     19  N   UNL     1      -0.675  10.799  18.224  0.00  0.00    +0.000 N 
ATOM     20  C   UNL     1      -1.696  10.065  17.460  0.00  0.00    +0.000 C 
ATOM     21  C   UNL     1      -2.948  10.878  17.092  0.00  0.00    +0.000 C 
ATOM     22  C   UNL     1      -3.483  11.565  18.318  0.00  0.00    +0.000 A 
ATOM     23  C   UNL     1      -4.853  11.692  18.573  0.00  0.00    +0.000 A 
ATOM     24  C   UNL     1      -5.287  12.334  19.734  0.00  0.00    +0.000 A 
ATOM     25  C   UNL     1      -4.359  12.858  20.633  0.00  0.00    +0.000 A 
ATOM     26  C   UNL     1      -2.993  12.757  20.369  0.00  0.00    +0.000 A 
ATOM     27  C   UNL     1      -2.546  12.111  19.212  0.00  0.00    +0.000 A 
ATOM     28  C   UNL     1      -1.075  12.058  18.863  0.00  0.00    +0.000 C 
ENDBRANCH  16  17
ENDBRANCH  15  16
ENDBRANCH   8  15
TORSDOF 3
ENDMDL
MODEL 9
REMARK VINA RESULT:      -6.8      4.061      6.204
REMARK  Name = 
REMARK  6 active torsions:
REMARK  status: ('A' for Active; 'I' for Inactive)
REMARK    1  A    between atoms: C_1  and  N_2
REMARK    2  A    between atoms: C_8  and  S_9
REMARK    3  A    between atoms: S_9  and  C_10
REMARK    4  A    between atoms: C_10  and  C_11
REMARK    5  A    between atoms: N_23  and  C_24
REMARK    6  A    between atoms: N_25  and  C_26
REMARK                            x       y       z     vdW  Elec       q    Type
REMARK                         _______ _______ _______ _____ _____    ______ ____
ROOT
ATOM      1  C   UNL     1       4.482   2.957  17.017  0.00  0.00    +0.000 C 
ATOM      2  N   UNL     1       3.780   3.837  17.932  0.00  0.00    +0.000 N 
ATOM      3  C   UNL     1       3.740   5.201  17.632  0.00  0.00    +0.000 A 
ATOM      4  O   UNL     1       4.269   5.695  16.642  0.00  0.00    +0.000 OA
ATOM      5  C   UNL     1       3.012   5.968  18.600  0.00  0.00    +0.000 A 
ATOM      6  C   UNL     1       2.428   5.421  19.691  0.00  0.00    +0.000 A 
ATOM      7  N   UNL     1       1.789   6.358  20.448  0.00  0.00    +0.000 NA
ATOM      8  C   UNL     1       1.978   7.499  19.806  0.00  0.00    +0.000 A 
ATOM      9  N   UNL     1       2.734   7.309  18.661  0.00  0.00    +0.000 N 
ATOM     10  C   UNL     1       3.190   8.228  17.643  0.00  0.00    +0.000 C 
ATOM     11  N   UNL     1       2.497   4.065  19.944  0.00  0.00    +0.000 N 
ATOM     12  C   UNL     1       1.872   3.468  21.100  0.00  0.00    +0.000 C 
ATOM     13  C   UNL     1       3.184   3.234  19.054  0.00  0.00    +0.000 A 
ATOM     14  O   UNL     1       3.264   2.016  19.245  0.00  0.00    +0.000 OA
ENDROOT
BRANCH   8  15
ATOM     15  S   UNL     1       1.359   9.036  20.352  0.00  0.00    +0.000 S 
BRANCH  15  16
ATOM     16  C   UNL     1       0.074   8.564  21.587  0.00  0.00    +0.000 C 
BRANCH  16  17
ATOM     17  C   UNL     1      -0.205   9.676  22.619  0.00  0.00    +0.000 C 
ATOM     18  O   UNL     1       0.190   9.596  23.785  0.00  0.00    +0.000 OA
ATOM     19  N   UNL     1      -0.873  10.825  22.159  0.00  0.00    +0.000 N 
ATOM     20  C   UNL     1      -1.366  10.992  20.782  0.00  0.00    +0.000 C 
ATOM     21  C   UNL     1      -1.853  12.406  20.429  0.00  0.00    +0.000 C 
ATOM     22  C   UNL     1      -2.813  12.888  21.482  0.00  0.00    +0.000 A 
ATOM     23  C   UNL     1      -3.955  13.636  21.174  0.00  0.00    +0.000 A 
ATOM     24  C   UNL     1      -4.813  14.047  22.196  0.00  0.00    +0.000 A 
ATOM     25  C   UNL     1      -4.529  13.722  23.522  0.00  0.00    +0.000 A 
ATOM     26  C   UNL     1      -3.378  12.999  23.835  0.00  0.00    +0.000 A 
ATOM     27  C   UNL     1      -2.513  12.577  22.819  0.00  0.00    +0.000 A 
ATOM     28  C   UNL     1      -1.219  11.862  23.138  0.00  0.00    +0.000 C 
ENDBRANCH  16  17
ENDBRANCH  15  16
ENDBRANCH   8  15
TORSDOF 3
ENDMDL
