MODEL 1
REMARK VINA RESULT:      -7.1      0.000      0.000
REMARK  Name = 
REMARK  8 active torsions:
REMARK  status: ('A' for Active; 'I' for Inactive)
REMARK    1  A    between atoms: C_1  and  N_2
REMARK    2  A    between atoms: N_2  and  C_3
REMARK    3  A    between atoms: N_2  and  C_17
REMARK    4  A    between atoms: C_3  and  C_4
REMARK    5  A    between atoms: C_4  and  C_5
REMARK    6  A    between atoms: C_5  and  N_6
REMARK    7  A    between atoms: C_7  and  C_9
REMARK    8  A    between atoms: C_17  and  C_18
REMARK                            x       y       z     vdW  Elec       q    Type
REMARK                         _______ _______ _______ _____ _____    ______ ____
ROOT
ATOM      1  C   UNL     1       7.429   4.834  18.122  0.00  0.00    +0.000 C 
ENDROOT
BRANCH   1   2
ATOM      2  N   UNL     1       7.446   4.868  16.668  0.00  0.00    +0.000 N 
ATOM      3  C   UNL     1       6.505   4.186  15.917  0.00  0.00    +0.000 C 
ATOM      4  O   UNL     1       5.564   3.573  16.401  0.00  0.00    +0.000 OA
ATOM      5  H   UNL     1       8.167   5.414  16.218  0.00  0.00    +0.000 HD
BRANCH   3   6
ATOM      6  C   UNL     1       6.666   4.249  14.440  0.00  0.00    +0.000 A 
ATOM      7  C   UNL     1       7.435   5.237  13.816  0.00  0.00    +0.000 A 
ATOM      8  C   UNL     1       7.563   5.237  12.425  0.00  0.00    +0.000 A 
ATOM      9 CL   UNL     1       8.509   6.456  11.662  0.00  0.00    +0.000 Cl
ATOM     10  C   UNL     1       6.939   4.262  11.651  0.00  0.00    +0.000 A 
ATOM     11  C   UNL     1       6.190   3.271  12.277  0.00  0.00    +0.000 A 
ATOM     12 CL   UNL     1       5.424   2.059  11.328  0.00  0.00    +0.000 Cl
ATOM     13  C   UNL     1       6.053   3.253  13.663  0.00  0.00    +0.000 A 
ENDBRANCH   3   6
ENDBRANCH   1   2
BRANCH   1  14
ATOM     14  C   UNL     1       6.580   5.970  18.686  0.00  0.00    +0.000 C 
BRANCH  14  15
ATOM     15  C   UNL     1       5.168   5.505  19.078  0.00  0.00    +0.000 C 
BRANCH  15  17
ATOM     16  C   UNL     1       4.587   7.058  17.301  0.00  0.00    +0.000 C 
ATOM     17  N   UNL     1       4.131   5.915  18.106  0.00  0.00    +0.000 NA
BRANCH  17  18
ATOM     18  C   UNL     1       2.866   6.246  18.806  0.00  0.00    +0.000 C 
BRANCH  18  19
ATOM     19  C   UNL     1       2.126   5.016  19.308  0.00  0.00    +0.000 A 
ATOM     20  C   UNL     1       2.027   4.758  20.684  0.00  0.00    +0.000 A 
ATOM     21  C   UNL     1       1.466   3.564  21.143  0.00  0.00    +0.000 A 
ATOM     22  C   UNL     1       0.992   2.620  20.234  0.00  0.00    +0.000 A 
ATOM     23  C   UNL     1       1.048   2.882  18.867  0.00  0.00    +0.000 A 
ATOM     24  C   UNL     1       1.603   4.077  18.404  0.00  0.00    +0.000 A 
ENDBRANCH  18  19
ENDBRANCH  17  18
ENDBRANCH  15  17
ENDBRANCH  14  15
ENDBRANCH   1  14
TORSDOF 7
ENDMDL
MODEL 2
REMARK VINA RESULT:      -7.1      2.654      4.695
REMARK  Name = 
REMARK  8 active torsions:
REMARK  status: ('A' for Active; 'I' for Inactive)
REMARK    1  A    between atoms: C_1  and  N_2
REMARK    2  A    between atoms: N_2  and  C_3
REMARK    3  A    between atoms: N_2  and  C_17
REMARK    4  A    between atoms: C_3  and  C_4
REMARK    5  A    between atoms: C_4  and  C_5
REMARK    6  A    between atoms: C_5  and  N_6
REMARK    7  A    between atoms: C_7  and  C_9
REMARK    8  A    between atoms: C_17  and  C_18
REMARK                            x       y       z     vdW  Elec       q    Type
REMARK                         _______ _______ _______ _____ _____    ______ ____
ROOT
ATOM      1  C   UNL     1       2.933   1.458  18.808  0.00  0.00    +0.000 C 
ENDROOT
BRANCH   1   2
ATOM      2  N   UNL     1       4.036   2.306  18.381  0.00  0.00    +0.000 N 
ATOM      3  C   UNL     1       3.872   3.266  17.401  0.00  0.00    +0.000 C 
ATOM      4  O   UNL     1       2.798   3.525  16.875  0.00  0.00    +0.000 OA
ATOM      5  H   UNL     1       4.931   2.174  18.831  0.00  0.00    +0.000 HD
BRANCH   3   6
ATOM      6  C   UNL     1       5.090   4.027  17.009  0.00  0.00    +0.000 A 
ATOM      7  C   UNL     1       5.508   4.128  15.678  0.00  0.00    +0.000 A 
ATOM      8  C   UNL     1       6.650   4.868  15.367  0.00  0.00    +0.000 A 
ATOM      9 CL   UNL     1       7.161   4.988  13.727  0.00  0.00    +0.000 Cl
ATOM     10  C   UNL     1       7.377   5.512  16.365  0.00  0.00    +0.000 A 
ATOM     11  C   UNL     1       6.947   5.424  17.685  0.00  0.00    +0.000 A 
ATOM     12 CL   UNL     1       7.834   6.224  18.922  0.00  0.00    +0.000 Cl
ATOM     13  C   UNL     1       5.808   4.692  18.015  0.00  0.00    +0.000 A 
ENDBRANCH   3   6
ENDBRANCH   1   2
BRANCH   1  14
ATOM     14  C   UNL     1       2.101   2.145  19.887  0.00  0.00    +0.000 C 
BRANCH  14  15
ATOM     15  C   UNL     1       2.897   3.223  20.641  0.00  0.00    +0.000 C 
BRANCH  15  17
ATOM     16  C   UNL     1       1.000   4.509  19.834  0.00  0.00    +0.000 C 
ATOM     17  N   UNL     1       2.247   4.551  20.613  0.00  0.00    +0.000 NA
BRANCH  17  18
ATOM     18  C   UNL     1       3.172   5.568  20.057  0.00  0.00    +0.000 C 
BRANCH  18  19
ATOM     19  C   UNL     1       2.456   6.814  19.559  0.00  0.00    +0.000 A 
ATOM     20  C   UNL     1       2.486   7.155  18.199  0.00  0.00    +0.000 A 
ATOM     21  C   UNL     1       1.946   8.365  17.759  0.00  0.00    +0.000 A 
ATOM     22  C   UNL     1       1.364   9.244  18.671  0.00  0.00    +0.000 A 
ATOM     23  C   UNL     1       1.293   8.899  20.020  0.00  0.00    +0.000 A 
ATOM     24  C   UNL     1       1.827   7.687  20.462  0.00  0.00    +0.000 A 
ENDBRANCH  18  19
ENDBRANCH  17  18
ENDBRANCH  15  17
ENDBRANCH  14  15
ENDBRANCH   1  14
TORSDOF 7
ENDMDL
MODEL 3
REMARK VINA RESULT:      -7.1      6.345      8.771
REMARK  Name = 
REMARK  8 active torsions:
REMARK  status: ('A' for Active; 'I' for Inactive)
REMARK    1  A    between atoms: C_1  and  N_2
REMARK    2  A    between atoms: N_2  and  C_3
REMARK    3  A    between atoms: N_2  and  C_17
REMARK    4  A    between atoms: C_3  and  C_4
REMARK    5  A    between atoms: C_4  and  C_5
REMARK    6  A    between atoms: C_5  and  N_6
REMARK    7  A    between atoms: C_7  and  C_9
REMARK    8  A    between atoms: C_17  and  C_18
REMARK                            x       y       z     vdW  Elec       q    Type
REMARK                         _______ _______ _______ _____ _____    ______ ____
ROOT
ATOM      1  C   UNL     1       2.264   9.381  18.048  0.00  0.00    +0.000 C 
ENDROOT
BRANCH   1   2
ATOM      2  N   UNL     1       0.930   9.852  17.708  0.00  0.00    +0.000 N 
ATOM      3  C   UNL     1       0.025  10.225  18.684  0.00  0.00    +0.000 C 
ATOM      4  O   UNL     1       0.287  10.257  19.878  0.00  0.00    +0.000 OA
ATOM      5  H   UNL     1       0.685   9.905  16.729  0.00  0.00    +0.000 HD
BRANCH   3   6
ATOM      6  C   UNL     1      -1.327  10.630  18.212  0.00  0.00    +0.000 A 
ATOM      7  C   UNL     1      -1.817  10.264  16.954  0.00  0.00    +0.000 A 
ATOM      8  C   UNL     1      -3.100  10.660  16.571  0.00  0.00    +0.000 A 
ATOM      9 CL   UNL     1      -3.698  10.208  15.021  0.00  0.00    +0.000 Cl
ATOM     10  C   UNL     1      -3.902  11.410  17.428  0.00  0.00    +0.000 A 
ATOM     11  C   UNL     1      -3.417  11.756  18.685  0.00  0.00    +0.000 A 
ATOM     12 CL   UNL     1      -4.405  12.675  19.752  0.00  0.00    +0.000 Cl
ATOM     13  C   UNL     1      -2.140  11.369  19.086  0.00  0.00    +0.000 A 
ENDBRANCH   3   6
ENDBRANCH   1   2
BRANCH   1  14
ATOM     14  C   UNL     1       2.417   7.895  17.735  0.00  0.00    +0.000 C 
BRANCH  14  15
ATOM     15  C   UNL     1       3.888   7.447  17.730  0.00  0.00    +0.000 C 
BRANCH  15  17
ATOM     16  C   UNL     1       5.333   5.493  17.688  0.00  0.00    +0.000 C 
ATOM     17  N   UNL     1       4.072   6.055  18.195  0.00  0.00    +0.000 NA
BRANCH  17  18
ATOM     18  C   UNL     1       2.924   5.214  17.779  0.00  0.00    +0.000 C 
BRANCH  18  19
ATOM     19  C   UNL     1       2.361   4.373  18.913  0.00  0.00    +0.000 A 
ATOM     20  C   UNL     1       1.386   3.396  18.658  0.00  0.00    +0.000 A 
ATOM     21  C   UNL     1       0.770   2.716  19.711  0.00  0.00    +0.000 A 
ATOM     22  C   UNL     1       1.126   2.999  21.028  0.00  0.00    +0.000 A 
ATOM     23  C   UNL     1       2.120   3.939  21.294  0.00  0.00    +0.000 A 
ATOM     24  C   UNL     1       2.742   4.617  20.242  0.00  0.00    +0.000 A 
ENDBRANCH  18  19
ENDBRANCH  17  18
ENDBRANCH  15  17
ENDBRANCH  14  15
ENDBRANCH   1  14
TORSDOF 7
ENDMDL
MODEL 4
REMARK VINA RESULT:      -7.1      2.713      4.844
REMARK  Name = 
REMARK  8 active torsions:
REMARK  status: ('A' for Active; 'I' for Inactive)
REMARK    1  A    between atoms: C_1  and  N_2
REMARK    2  A    between atoms: N_2  and  C_3
REMARK    3  A    between atoms: N_2  and  C_17
REMARK    4  A    between atoms: C_3  and  C_4
REMARK    5  A    between atoms: C_4  and  C_5
REMARK    6  A    between atoms: C_5  and  N_6
REMARK    7  A    between atoms: C_7  and  C_9
REMARK    8  A    between atoms: C_17  and  C_18
REMARK                            x       y       z     vdW  Elec       q    Type
REMARK                         _______ _______ _______ _____ _____    ______ ____
ROOT
ATOM      1  C   UNL     1       1.575   2.256  18.389  0.00  0.00    +0.000 C 
ENDROOT
BRANCH   1   2
ATOM      2  N   UNL     1       2.687   3.004  17.822  0.00  0.00    +0.000 N 
ATOM      3  C   UNL     1       3.969   2.885  18.325  0.00  0.00    +0.000 C 
ATOM      4  O   UNL     1       4.280   2.109  19.218  0.00  0.00    +0.000 OA
ATOM      5  H   UNL     1       2.493   3.613  17.039  0.00  0.00    +0.000 HD
BRANCH   3   6
ATOM      6  C   UNL     1       5.008   3.748  17.700  0.00  0.00    +0.000 A 
ATOM      7  C   UNL     1       5.853   4.564  18.460  0.00  0.00    +0.000 A 
ATOM      8  C   UNL     1       6.820   5.341  17.820  0.00  0.00    +0.000 A 
ATOM      9 CL   UNL     1       7.857   6.345  18.759  0.00  0.00    +0.000 Cl
ATOM     10  C   UNL     1       6.959   5.312  16.435  0.00  0.00    +0.000 A 
ATOM     11  C   UNL     1       6.128   4.485  15.685  0.00  0.00    +0.000 A 
ATOM     12 CL   UNL     1       6.299   4.436  13.975  0.00  0.00    +0.000 Cl
ATOM     13  C   UNL     1       5.158   3.700  16.305  0.00  0.00    +0.000 A 
ENDBRANCH   3   6
ENDBRANCH   1   2
BRANCH   1  14
ATOM     14  C   UNL     1       0.926   3.025  19.536  0.00  0.00    +0.000 C 
BRANCH  14  15
ATOM     15  C   UNL     1       1.150   4.542  19.423  0.00  0.00    +0.000 C 
BRANCH  15  17
ATOM     16  C   UNL     1       2.363   4.098  21.481  0.00  0.00    +0.000 C 
ATOM     17  N   UNL     1       2.151   5.054  20.385  0.00  0.00    +0.000 NA
BRANCH  17  18
ATOM     18  C   UNL     1       1.729   6.372  20.918  0.00  0.00    +0.000 C 
BRANCH  18  19
ATOM     19  C   UNL     1       1.877   7.498  19.907  0.00  0.00    +0.000 A 
ATOM     20  C   UNL     1       1.191   8.708  20.086  0.00  0.00    +0.000 A 
ATOM     21  C   UNL     1       1.218   9.692  19.095  0.00  0.00    +0.000 A 
ATOM     22  C   UNL     1       1.936   9.480  17.919  0.00  0.00    +0.000 A 
ATOM     23  C   UNL     1       2.653   8.298  17.746  0.00  0.00    +0.000 A 
ATOM     24  C   UNL     1       2.633   7.314  18.738  0.00  0.00    +0.000 A 
ENDBRANCH  18  19
ENDBRANCH  17  18
ENDBRANCH  15  17
ENDBRANCH  14  15
ENDBRANCH   1  14
TORSDOF 7
ENDMDL
MODEL 5
REMARK VINA RESULT:      -7.0      6.365      8.691
REMARK  Name = 
REMARK  8 active torsions:
REMARK  status: ('A' for Active; 'I' for Inactive)
REMARK    1  A    between atoms: C_1  and  N_2
REMARK    2  A    between atoms: N_2  and  C_3
REMARK    3  A    between atoms: N_2  and  C_17
REMARK    4  A    between atoms: C_3  and  C_4
REMARK    5  A    between atoms: C_4  and  C_5
REMARK    6  A    between atoms: C_5  and  N_6
REMARK    7  A    between atoms: C_7  and  C_9
REMARK    8  A    between atoms: C_17  and  C_18
REMARK                            x       y       z     vdW  Elec       q    Type
REMARK                         _______ _______ _______ _____ _____    ______ ____
ROOT
ATOM      1  C   UNL     1       2.087   9.360  18.037  0.00  0.00    +0.000 C 
ENDROOT
BRANCH   1   2
ATOM      2  N   UNL     1       0.777   9.842  17.627  0.00  0.00    +0.000 N 
ATOM      3  C   UNL     1      -0.267   9.953  18.527  0.00  0.00    +0.000 C 
ATOM      4  O   UNL     1      -0.159   9.729  19.725  0.00  0.00    +0.000 OA
ATOM      5  H   UNL     1       0.653  10.101  16.658  0.00  0.00    +0.000 HD
BRANCH   3   6
ATOM      6  C   UNL     1      -1.574  10.399  17.973  0.00  0.00    +0.000 A 
ATOM      7  C   UNL     1      -1.990  10.058  16.681  0.00  0.00    +0.000 A 
ATOM      8  C   UNL     1      -3.234  10.492  16.220  0.00  0.00    +0.000 A 
ATOM      9 CL   UNL     1      -3.741  10.071  14.629  0.00  0.00    +0.000 Cl
ATOM     10  C   UNL     1      -4.070  11.257  17.030  0.00  0.00    +0.000 A 
ATOM     11  C   UNL     1      -3.659  11.579  18.320  0.00  0.00    +0.000 A 
ATOM     12 CL   UNL     1      -4.689  12.515  19.330  0.00  0.00    +0.000 Cl
ATOM     13  C   UNL     1      -2.422  11.152  18.800  0.00  0.00    +0.000 A 
ENDBRANCH   3   6
ENDBRANCH   1   2
BRANCH   1  14
ATOM     14  C   UNL     1       2.294   7.908  17.614  0.00  0.00    +0.000 C 
BRANCH  14  15
ATOM     15  C   UNL     1       3.034   7.087  18.684  0.00  0.00    +0.000 C 
BRANCH  15  17
ATOM     16  C   UNL     1       4.743   6.728  16.994  0.00  0.00    +0.000 C 
ATOM     17  N   UNL     1       4.001   6.125  18.111  0.00  0.00    +0.000 NA
BRANCH  17  18
ATOM     18  C   UNL     1       3.304   4.894  17.667  0.00  0.00    +0.000 C 
BRANCH  18  19
ATOM     19  C   UNL     1       2.666   4.126  18.814  0.00  0.00    +0.000 A 
ATOM     20  C   UNL     1       3.447   3.669  19.886  0.00  0.00    +0.000 A 
ATOM     21  C   UNL     1       2.891   2.851  20.871  0.00  0.00    +0.000 A 
ATOM     22  C   UNL     1       1.548   2.486  20.800  0.00  0.00    +0.000 A 
ATOM     23  C   UNL     1       0.751   2.964  19.762  0.00  0.00    +0.000 A 
ATOM     24  C   UNL     1       1.303   3.788  18.778  0.00  0.00    +0.000 A 
ENDBRANCH  18  19
ENDBRANCH  17  18
ENDBRANCH  15  17
ENDBRANCH  14  15
ENDBRANCH   1  14
TORSDOF 7
ENDMDL
MODEL 6
REMARK VINA RESULT:      -6.9      5.501      7.442
REMARK  Name = 
REMARK  8 active torsions:
REMARK  status: ('A' for Active; 'I' for Inactive)
REMARK    1  A    between atoms: C_1  and  N_2
REMARK    2  A    between atoms: N_2  and  C_3
REMARK    3  A    between atoms: N_2  and  C_17
REMARK    4  A    between atoms: C_3  and  C_4
REMARK    5  A    between atoms: C_4  and  C_5
REMARK    6  A    between atoms: C_5  and  N_6
REMARK    7  A    between atoms: C_7  and  C_9
REMARK    8  A    between atoms: C_17  and  C_18
REMARK                            x       y       z     vdW  Elec       q    Type
REMARK                         _______ _______ _______ _____ _____    ______ ____
ROOT
ATOM      1  C   UNL     1       1.469   8.398  21.011  0.00  0.00    +0.000 C 
ENDROOT
BRANCH   1   2
ATOM      2  N   UNL     1       2.125   7.570  20.010  0.00  0.00    +0.000 N 
ATOM      3  C   UNL     1       2.072   6.190  20.066  0.00  0.00    +0.000 C 
ATOM      4  O   UNL     1       1.427   5.567  20.899  0.00  0.00    +0.000 OA
ATOM      5  H   UNL     1       2.619   8.038  19.263  0.00  0.00    +0.000 HD
BRANCH   3   6
ATOM      6  C   UNL     1       2.834   5.455  19.020  0.00  0.00    +0.000 A 
ATOM      7  C   UNL     1       2.826   4.059  18.936  0.00  0.00    +0.000 A 
ATOM      8  C   UNL     1       3.547   3.424  17.924  0.00  0.00    +0.000 A 
ATOM      9 CL   UNL     1       3.536   1.705  17.825  0.00  0.00    +0.000 Cl
ATOM     10  C   UNL     1       4.272   4.163  16.992  0.00  0.00    +0.000 A 
ATOM     11  C   UNL     1       4.263   5.551  17.068  0.00  0.00    +0.000 A 
ATOM     12 CL   UNL     1       5.147   6.472  15.916  0.00  0.00    +0.000 Cl
ATOM     13  C   UNL     1       3.546   6.204  18.070  0.00  0.00    +0.000 A 
ENDBRANCH   3   6
ENDBRANCH   1   2
BRANCH   1  14
ATOM     14  C   UNL     1       0.396   9.277  20.376  0.00  0.00    +0.000 C 
BRANCH  14  15
ATOM     15  C   UNL     1       0.979  10.565  19.769  0.00  0.00    +0.000 C 
BRANCH  15  17
ATOM     16  C   UNL     1       0.266  12.712  18.881  0.00  0.00    +0.000 C 
ATOM     17  N   UNL     1       0.035  11.260  18.866  0.00  0.00    +0.000 NA
BRANCH  17  18
ATOM     18  C   UNL     1      -1.365  10.952  19.244  0.00  0.00    +0.000 C 
BRANCH  18  19
ATOM     19  C   UNL     1      -2.280  10.772  18.043  0.00  0.00    +0.000 A 
ATOM     20  C   UNL     1      -1.918   9.910  16.997  0.00  0.00    +0.000 A 
ATOM     21  C   UNL     1      -2.688   9.844  15.834  0.00  0.00    +0.000 A 
ATOM     22  C   UNL     1      -3.830  10.633  15.706  0.00  0.00    +0.000 A 
ATOM     23  C   UNL     1      -4.222  11.465  16.754  0.00  0.00    +0.000 A 
ATOM     24  C   UNL     1      -3.457  11.528  17.921  0.00  0.00    +0.000 A 
ENDBRANCH  18  19
ENDBRANCH  17  18
ENDBRANCH  15  17
ENDBRANCH  14  15
ENDBRANCH   1  14
TORSDOF 7
ENDMDL
MODEL 7
REMARK VINA RESULT:      -6.8      6.688      9.113
REMARK  Name = 
REMARK  8 active torsions:
REMARK  status: ('A' for Active; 'I' for Inactive)
REMARK    1  A    between atoms: C_1  and  N_2
REMARK    2  A    between atoms: N_2  and  C_3
REMARK    3  A    between atoms: N_2  and  C_17
REMARK    4  A    between atoms: C_3  and  C_4
REMARK    5  A    between atoms: C_4  and  C_5
REMARK    6  A    between atoms: C_5  and  N_6
REMARK    7  A    between atoms: C_7  and  C_9
REMARK    8  A    between atoms: C_17  and  C_18
REMARK                            x       y       z     vdW  Elec       q    Type
REMARK                         _______ _______ _______ _____ _____    ______ ____
ROOT
ATOM      1  C   UNL     1       2.027   9.583  17.835  0.00  0.00    +0.000 C 
ENDROOT
BRANCH   1   2
ATOM      2  N   UNL     1       0.637  10.010  17.891  0.00  0.00    +0.000 N 
ATOM      3  C   UNL     1       0.229  11.042  18.715  0.00  0.00    +0.000 C 
ATOM      4  O   UNL     1       0.994  11.712  19.395  0.00  0.00    +0.000 OA
ATOM      5  H   UNL     1      -0.026   9.528  17.299  0.00  0.00    +0.000 HD
BRANCH   3   6
ATOM      6  C   UNL     1      -1.228  11.343  18.728  0.00  0.00    +0.000 A 
ATOM      7  C   UNL     1      -1.853  11.950  19.822  0.00  0.00    +0.000 A 
ATOM      8  C   UNL     1      -3.221  12.223  19.771  0.00  0.00    +0.000 A 
ATOM      9 CL   UNL     1      -3.986  12.969  21.121  0.00  0.00    +0.000 Cl
ATOM     10  C   UNL     1      -3.973  11.903  18.643  0.00  0.00    +0.000 A 
ATOM     11  C   UNL     1      -3.343  11.316  17.551  0.00  0.00    +0.000 A 
ATOM     12 CL   UNL     1      -4.262  10.926  16.150  0.00  0.00    +0.000 Cl
ATOM     13  C   UNL     1      -1.978  11.038  17.581  0.00  0.00    +0.000 A 
ENDBRANCH   3   6
ENDBRANCH   1   2
BRANCH   1  14
ATOM     14  C   UNL     1       2.152   8.087  18.111  0.00  0.00    +0.000 C 
BRANCH  14  15
ATOM     15  C   UNL     1       3.523   7.530  17.692  0.00  0.00    +0.000 C 
BRANCH  15  17
ATOM     16  C   UNL     1       5.058   5.646  17.709  0.00  0.00    +0.000 C 
ATOM     17  N   UNL     1       3.776   6.165  18.206  0.00  0.00    +0.000 NA
BRANCH  17  18
ATOM     18  C   UNL     1       2.666   5.257  17.830  0.00  0.00    +0.000 C 
BRANCH  18  19
ATOM     19  C   UNL     1       2.117   4.469  19.008  0.00  0.00    +0.000 A 
ATOM     20  C   UNL     1       2.498   4.792  20.319  0.00  0.00    +0.000 A 
ATOM     21  C   UNL     1       2.103   3.990  21.392  0.00  0.00    +0.000 A 
ATOM     22  C   UNL     1       1.318   2.860  21.167  0.00  0.00    +0.000 A 
ATOM     23  C   UNL     1       0.900   2.550  19.874  0.00  0.00    +0.000 A 
ATOM     24  C   UNL     1       1.289   3.354  18.800  0.00  0.00    +0.000 A 
ENDBRANCH  18  19
ENDBRANCH  17  18
ENDBRANCH  15  17
ENDBRANCH  14  15
ENDBRANCH   1  14
TORSDOF 7
ENDMDL
MODEL 8
REMARK VINA RESULT:      -6.8      5.579      7.467
REMARK  Name = 
REMARK  8 active torsions:
REMARK  status: ('A' for Active; 'I' for Inactive)
REMARK    1  A    between atoms: C_1  and  N_2
REMARK    2  A    between atoms: N_2  and  C_3
REMARK    3  A    between atoms: N_2  and  C_17
REMARK    4  A    between atoms: C_3  and  C_4
REMARK    5  A    between atoms: C_4  and  C_5
REMARK    6  A    between atoms: C_5  and  N_6
REMARK    7  A    between atoms: C_7  and  C_9
REMARK    8  A    between atoms: C_17  and  C_18
REMARK                            x       y       z     vdW  Elec       q    Type
REMARK                         _______ _______ _______ _____ _____    ______ ____
ROOT
ATOM      1  C   UNL     1       1.660   8.426  21.254  0.00  0.00    +0.000 C 
ENDROOT
BRANCH   1   2
ATOM      2  N   UNL     1       1.927   7.186  20.541  0.00  0.00    +0.000 N 
ATOM      3  C   UNL     1       2.405   7.187  19.244  0.00  0.00    +0.000 C 
ATOM      4  O   UNL     1       2.703   8.202  18.629  0.00  0.00    +0.000 OA
ATOM      5  H   UNL     1       1.757   6.317  21.029  0.00  0.00    +0.000 HD
BRANCH   3   6
ATOM      6  C   UNL     1       2.580   5.856  18.602  0.00  0.00    +0.000 A 
ATOM      7  C   UNL     1       3.622   5.593  17.706  0.00  0.00    +0.000 A 
ATOM      8  C   UNL     1       3.746   4.320  17.147  0.00  0.00    +0.000 A 
ATOM      9 CL   UNL     1       5.029   4.001  16.044  0.00  0.00    +0.000 Cl
ATOM     10  C   UNL     1       2.849   3.305  17.472  0.00  0.00    +0.000 A 
ATOM     11  C   UNL     1       1.825   3.567  18.377  0.00  0.00    +0.000 A 
ATOM     12 CL   UNL     1       0.719   2.317  18.792  0.00  0.00    +0.000 Cl
ATOM     13  C   UNL     1       1.686   4.830  18.949  0.00  0.00    +0.000 A 
ENDBRANCH   3   6
ENDBRANCH   1   2
BRANCH   1  14
ATOM     14  C   UNL     1       0.398   9.101  20.724  0.00  0.00    +0.000 C 
BRANCH  14  15
ATOM     15  C   UNL     1       0.670  10.524  20.208  0.00  0.00    +0.000 C 
BRANCH  15  17
ATOM     16  C   UNL     1      -0.012  12.310  18.707  0.00  0.00    +0.000 C 
ATOM     17  N   UNL     1      -0.155  10.884  19.033  0.00  0.00    +0.000 NA
BRANCH  17  18
ATOM     18  C   UNL     1      -1.578  10.547  19.279  0.00  0.00    +0.000 C 
BRANCH  18  19
ATOM     19  C   UNL     1      -2.418  10.558  18.012  0.00  0.00    +0.000 A 
ATOM     20  C   UNL     1      -2.016   9.823  16.886  0.00  0.00    +0.000 A 
ATOM     21  C   UNL     1      -2.711   9.935  15.680  0.00  0.00    +0.000 A 
ATOM     22  C   UNL     1      -3.818  10.777  15.587  0.00  0.00    +0.000 A 
ATOM     23  C   UNL     1      -4.251  11.483  16.708  0.00  0.00    +0.000 A 
ATOM     24  C   UNL     1      -3.561  11.368  17.917  0.00  0.00    +0.000 A 
ENDBRANCH  18  19
ENDBRANCH  17  18
ENDBRANCH  15  17
ENDBRANCH  14  15
ENDBRANCH   1  14
TORSDOF 7
ENDMDL
MODEL 9
REMARK VINA RESULT:      -6.8      2.503      4.339
REMARK  Name = 
REMARK  8 active torsions:
REMARK  status: ('A' for Active; 'I' for Inactive)
REMARK    1  A    between atoms: C_1  and  N_2
REMARK    2  A    between atoms: N_2  and  C_3
REMARK    3  A    between atoms: N_2  and  C_17
REMARK    4  A    between atoms: C_3  and  C_4
REMARK    5  A    between atoms: C_4  and  C_5
REMARK    6  A    between atoms: C_5  and  N_6
REMARK    7  A    between atoms: C_7  and  C_9
REMARK    8  A    between atoms: C_17  and  C_18
REMARK                            x       y       z     vdW  Elec       q    Type
REMARK                         _______ _______ _______ _____ _____    ______ ____
ROOT
ATOM      1  C   UNL     1       3.868   2.054  19.854  0.00  0.00    +0.000 C 
ENDROOT
BRANCH   1   2
ATOM      2  N   UNL     1       4.676   2.871  18.961  0.00  0.00    +0.000 N 
ATOM      3  C   UNL     1       4.294   3.109  17.654  0.00  0.00    +0.000 C 
ATOM      4  O   UNL     1       3.238   2.722  17.173  0.00  0.00    +0.000 OA
ATOM      5  H   UNL     1       5.529   3.268  19.331  0.00  0.00    +0.000 HD
BRANCH   3   6
ATOM      6  C   UNL     1       5.236   3.908  16.824  0.00  0.00    +0.000 A 
ATOM      7  C   UNL     1       5.493   3.600  15.485  0.00  0.00    +0.000 A 
ATOM      8  C   UNL     1       6.375   4.395  14.750  0.00  0.00    +0.000 A 
ATOM      9 CL   UNL     1       6.690   4.010  13.102  0.00  0.00    +0.000 Cl
ATOM     10  C   UNL     1       6.998   5.496  15.332  0.00  0.00    +0.000 A 
ATOM     11  C   UNL     1       6.725   5.810  16.659  0.00  0.00    +0.000 A 
ATOM     12 CL   UNL     1       7.483   7.173  17.382  0.00  0.00    +0.000 Cl
ATOM     13  C   UNL     1       5.846   5.030  17.408  0.00  0.00    +0.000 A 
ENDBRANCH   3   6
ENDBRANCH   1   2
BRANCH   1  14
ATOM     14  C   UNL     1       3.209   2.909  20.933  0.00  0.00    +0.000 C 
BRANCH  14  15
ATOM     15  C   UNL     1       1.714   3.144  20.659  0.00  0.00    +0.000 C 
BRANCH  15  17
ATOM     16  C   UNL     1       1.072   4.247  18.591  0.00  0.00    +0.000 C 
ATOM     17  N   UNL     1       1.441   4.441  20.001  0.00  0.00    +0.000 NA
BRANCH  17  18
ATOM     18  C   UNL     1       2.619   5.335  20.112  0.00  0.00    +0.000 C 
BRANCH  18  19
ATOM     19  C   UNL     1       2.343   6.745  19.614  0.00  0.00    +0.000 A 
ATOM     20  C   UNL     1       1.674   7.669  20.430  0.00  0.00    +0.000 A 
ATOM     21  C   UNL     1       1.301   8.919  19.930  0.00  0.00    +0.000 A 
ATOM     22  C   UNL     1       1.598   9.260  18.612  0.00  0.00    +0.000 A 
ATOM     23  C   UNL     1       2.297   8.366  17.802  0.00  0.00    +0.000 A 
ATOM     24  C   UNL     1       2.676   7.119  18.302  0.00  0.00    +0.000 A 
ENDBRANCH  18  19
ENDBRANCH  17  18
ENDBRANCH  15  17
ENDBRANCH  14  15
ENDBRANCH   1  14
TORSDOF 7
ENDMDL
