MODEL 1
REMARK VINA RESULT:      -8.5      0.000      0.000
REMARK  Name = 
REMARK  6 active torsions:
REMARK  status: ('A' for Active; 'I' for Inactive)
REMARK    1  A    between atoms: C_2  and  C_3
REMARK    2  A    between atoms: C_3  and  C_4
REMARK    3  A    between atoms: C_7  and  O_8
REMARK    4  A    between atoms: N_11  and  N_12
REMARK    5  A    between atoms: C_20  and  O_21
REMARK    6  A    between atoms: O_21  and  C_22
REMARK                            x       y       z     vdW  Elec       q    Type
REMARK                         _______ _______ _______ _____ _____    ______ ____
ROOT
ATOM      1  N   UNL     1       5.919   5.130  14.811  0.00  0.00    +0.000 NA
ATOM      2  C   UNL     1       5.628   5.574  16.008  0.00  0.00    +0.000 C 
ATOM      3  C   UNL     1       6.580   6.504  16.825  0.00  0.00    +0.000 C 
ATOM      4  O   UNL     1       7.753   6.705  16.580  0.00  0.00    +0.000 OA
ATOM      5  N   UNL     1       5.917   6.854  17.967  0.00  0.00    +0.000 N 
ATOM      6  C   UNL     1       4.950   5.854  18.134  0.00  0.00    +0.000 A 
ATOM      7  C   UNL     1       4.906   5.139  19.308  0.00  0.00    +0.000 A 
ATOM      8  C   UNL     1       4.173   3.965  19.320  0.00  0.00    +0.000 A 
ATOM      9  C   UNL     1       3.411   3.565  18.202  0.00  0.00    +0.000 A 
ATOM     10  C   UNL     1       3.581   4.227  16.974  0.00  0.00    +0.000 A 
ATOM     11  C   UNL     1       4.499   5.279  16.944  0.00  0.00    +0.000 A 
ATOM     12  H   UNL     1       5.470   7.746  17.748  0.00  0.00    +0.000 HD
ENDROOT
BRANCH   1  15
ATOM     13  O   UNL     1       9.118   5.764  13.342  0.00  0.00    +0.000 OA
ATOM     14  C   UNL     1       7.937   5.429  13.317  0.00  0.00    +0.000 C 
ATOM     15  N   UNL     1       7.247   5.390  14.489  0.00  0.00    +0.000 N 
ATOM     16  H   UNL     1       7.885   5.665  15.242  0.00  0.00    +0.000 HD
BRANCH  14  17
ATOM     17  C   UNL     1       7.239   5.149  11.999  0.00  0.00    +0.000 C 
BRANCH  17  18
ATOM     18  C   UNL     1       6.919   3.692  11.735  0.00  0.00    +0.000 A 
ATOM     19  C   UNL     1       5.591   3.255  11.872  0.00  0.00    +0.000 A 
ATOM     20  C   UNL     1       5.232   1.934  11.597  0.00  0.00    +0.000 A 
ATOM     21  C   UNL     1       6.205   1.037  11.182  0.00  0.00    +0.000 A 
ATOM     22  C   UNL     1       7.527   1.440  11.023  0.00  0.00    +0.000 A 
ATOM     23  C   UNL     1       7.875   2.766  11.280  0.00  0.00    +0.000 A 
BRANCH  21  24
ATOM     24  O   UNL     1       5.897  -0.262  10.904  0.00  0.00    +0.000 OA
ATOM     25  H   UNL     1       5.241  -0.272  10.188  0.00  0.00    +0.000 HD
ENDBRANCH  21  24
ENDBRANCH  17  18
ENDBRANCH  14  17
ENDBRANCH   1  15
BRANCH   9  26
ATOM     26  O   UNL     1       2.665   2.472  18.511  0.00  0.00    +0.000 OA
BRANCH  26  27
ATOM     27  C   UNL     1       1.420   2.535  19.170  0.00  0.00    +0.000 C 
ATOM     28  F   UNL     1       1.498   2.194  20.469  0.00  0.00    +0.000 F 
ATOM     29  F   UNL     1       0.980   3.812  19.094  0.00  0.00    +0.000 F 
ATOM     30  F   UNL     1       0.523   1.744  18.546  0.00  0.00    +0.000 F 
ENDBRANCH  26  27
ENDBRANCH   9  26
TORSDOF 6
ENDMDL
MODEL 2
REMARK VINA RESULT:      -8.4      0.129      1.178
REMARK  Name = 
REMARK  6 active torsions:
REMARK  status: ('A' for Active; 'I' for Inactive)
REMARK    1  A    between atoms: C_2  and  C_3
REMARK    2  A    between atoms: C_3  and  C_4
REMARK    3  A    between atoms: C_7  and  O_8
REMARK    4  A    between atoms: N_11  and  N_12
REMARK    5  A    between atoms: C_20  and  O_21
REMARK    6  A    between atoms: O_21  and  C_22
REMARK                            x       y       z     vdW  Elec       q    Type
REMARK                         _______ _______ _______ _____ _____    ______ ____
ROOT
ATOM      1  N   UNL     1       5.949   4.948  14.821  0.00  0.00    +0.000 NA
ATOM      2  C   UNL     1       5.616   5.480  15.971  0.00  0.00    +0.000 C 
ATOM      3  C   UNL     1       6.507   6.523  16.715  0.00  0.00    +0.000 C 
ATOM      4  O   UNL     1       7.674   6.760  16.470  0.00  0.00    +0.000 OA
ATOM      5  N   UNL     1       5.807   6.939  17.812  0.00  0.00    +0.000 N 
ATOM      6  C   UNL     1       4.887   5.911  18.054  0.00  0.00    +0.000 A 
ATOM      7  C   UNL     1       4.857   5.300  19.286  0.00  0.00    +0.000 A 
ATOM      8  C   UNL     1       4.180   4.096  19.391  0.00  0.00    +0.000 A 
ATOM      9  C   UNL     1       3.459   3.563  18.302  0.00  0.00    +0.000 A 
ATOM     10  C   UNL     1       3.619   4.122  17.023  0.00  0.00    +0.000 A 
ATOM     11  C   UNL     1       4.486   5.213  16.914  0.00  0.00    +0.000 A 
ATOM     12  H   UNL     1       5.323   7.785  17.510  0.00  0.00    +0.000 HD
ENDROOT
BRANCH   1  15
ATOM     13  O   UNL     1       9.117   5.715  13.346  0.00  0.00    +0.000 OA
ATOM     14  C   UNL     1       7.939   5.367  13.318  0.00  0.00    +0.000 C 
ATOM     15  N   UNL     1       7.269   5.244  14.496  0.00  0.00    +0.000 N 
ATOM     16  H   UNL     1       7.916   5.477  15.255  0.00  0.00    +0.000 HD
BRANCH  14  17
ATOM     17  C   UNL     1       7.222   5.165  11.995  0.00  0.00    +0.000 C 
BRANCH  17  18
ATOM     18  C   UNL     1       6.838   3.733  11.683  0.00  0.00    +0.000 A 
ATOM     19  C   UNL     1       7.848   2.826  11.323  0.00  0.00    +0.000 A 
ATOM     20  C   UNL     1       7.556   1.484  11.069  0.00  0.00    +0.000 A 
ATOM     21  C   UNL     1       6.246   1.040  11.174  0.00  0.00    +0.000 A 
ATOM     22  C   UNL     1       5.225   1.910  11.542  0.00  0.00    +0.000 A 
ATOM     23  C   UNL     1       5.526   3.244  11.814  0.00  0.00    +0.000 A 
BRANCH  21  24
ATOM     24  O   UNL     1       5.920  -0.262  10.934  0.00  0.00    +0.000 OA
ATOM     25  H   UNL     1       6.668  -0.818  11.206  0.00  0.00    +0.000 HD
ENDBRANCH  21  24
ENDBRANCH  17  18
ENDBRANCH  14  17
ENDBRANCH   1  15
BRANCH   9  26
ATOM     26  O   UNL     1       2.761   2.465  18.696  0.00  0.00    +0.000 OA
BRANCH  26  27
ATOM     27  C   UNL     1       1.482   2.522  19.288  0.00  0.00    +0.000 C 
ATOM     28  F   UNL     1       0.970   3.766  19.309  0.00  0.00    +0.000 F 
ATOM     29  F   UNL     1       0.657   1.738  18.558  0.00  0.00    +0.000 F 
ATOM     30  F   UNL     1       1.529   2.028  20.543  0.00  0.00    +0.000 F 
ENDBRANCH  26  27
ENDBRANCH   9  26
TORSDOF 6
ENDMDL
MODEL 3
REMARK VINA RESULT:      -8.3      5.035      7.480
REMARK  Name = 
REMARK  6 active torsions:
REMARK  status: ('A' for Active; 'I' for Inactive)
REMARK    1  A    between atoms: C_2  and  C_3
REMARK    2  A    between atoms: C_3  and  C_4
REMARK    3  A    between atoms: C_7  and  O_8
REMARK    4  A    between atoms: N_11  and  N_12
REMARK    5  A    between atoms: C_20  and  O_21
REMARK    6  A    between atoms: O_21  and  C_22
REMARK                            x       y       z     vdW  Elec       q    Type
REMARK                         _______ _______ _______ _____ _____    ______ ____
ROOT
ATOM      1  N   UNL     1       2.420   6.600  17.931  0.00  0.00    +0.000 NA
ATOM      2  C   UNL     1       2.123   7.314  18.988  0.00  0.00    +0.000 C 
ATOM      3  C   UNL     1       2.082   6.721  20.431  0.00  0.00    +0.000 C 
ATOM      4  O   UNL     1       2.061   5.537  20.708  0.00  0.00    +0.000 OA
ATOM      5  N   UNL     1       1.849   7.760  21.286  0.00  0.00    +0.000 N 
ATOM      6  C   UNL     1       1.255   8.746  20.489  0.00  0.00    +0.000 A 
ATOM      7  C   UNL     1       0.028   9.259  20.840  0.00  0.00    +0.000 A 
ATOM      8  C   UNL     1      -0.668   9.976  19.882  0.00  0.00    +0.000 A 
ATOM      9  C   UNL     1      -0.099  10.263  18.624  0.00  0.00    +0.000 A 
ATOM     10  C   UNL     1       1.085   9.614  18.233  0.00  0.00    +0.000 A 
ATOM     11  C   UNL     1       1.650   8.724  19.150  0.00  0.00    +0.000 A 
ATOM     12  H   UNL     1       2.775   8.061  21.593  0.00  0.00    +0.000 HD
ENDROOT
BRANCH   1  15
ATOM     13  O   UNL     1       3.063   3.106  18.351  0.00  0.00    +0.000 OA
ATOM     14  C   UNL     1       3.246   4.212  17.848  0.00  0.00    +0.000 C 
ATOM     15  N   UNL     1       2.446   5.243  18.234  0.00  0.00    +0.000 N 
ATOM     16  H   UNL     1       1.781   4.886  18.926  0.00  0.00    +0.000 HD
BRANCH  14  17
ATOM     17  C   UNL     1       4.394   4.443  16.881  0.00  0.00    +0.000 C 
BRANCH  17  18
ATOM     18  C   UNL     1       5.566   5.219  17.445  0.00  0.00    +0.000 A 
ATOM     19  C   UNL     1       5.973   6.395  16.795  0.00  0.00    +0.000 A 
ATOM     20  C   UNL     1       7.018   7.173  17.297  0.00  0.00    +0.000 A 
ATOM     21  C   UNL     1       7.664   6.778  18.459  0.00  0.00    +0.000 A 
ATOM     22  C   UNL     1       7.276   5.626  19.135  0.00  0.00    +0.000 A 
ATOM     23  C   UNL     1       6.218   4.864  18.639  0.00  0.00    +0.000 A 
BRANCH  21  24
ATOM     24  O   UNL     1       8.689   7.510  18.983  0.00  0.00    +0.000 OA
ATOM     25  H   UNL     1       9.001   8.126  18.301  0.00  0.00    +0.000 HD
ENDBRANCH  21  24
ENDBRANCH  17  18
ENDBRANCH  14  17
ENDBRANCH   1  15
BRANCH   9  26
ATOM     26  O   UNL     1      -0.907  11.103  17.925  0.00  0.00    +0.000 OA
BRANCH  26  27
ATOM     27  C   UNL     1      -2.084  10.689  17.267  0.00  0.00    +0.000 C 
ATOM     28  F   UNL     1      -3.185  10.829  18.027  0.00  0.00    +0.000 F 
ATOM     29  F   UNL     1      -2.230  11.459  16.165  0.00  0.00    +0.000 F 
ATOM     30  F   UNL     1      -1.966   9.405  16.869  0.00  0.00    +0.000 F 
ENDBRANCH  26  27
ENDBRANCH   9  26
TORSDOF 6
ENDMDL
MODEL 4
REMARK VINA RESULT:      -8.2      5.009      7.480
REMARK  Name = 
REMARK  6 active torsions:
REMARK  status: ('A' for Active; 'I' for Inactive)
REMARK    1  A    between atoms: C_2  and  C_3
REMARK    2  A    between atoms: C_3  and  C_4
REMARK    3  A    between atoms: C_7  and  O_8
REMARK    4  A    between atoms: N_11  and  N_12
REMARK    5  A    between atoms: C_20  and  O_21
REMARK    6  A    between atoms: O_21  and  C_22
REMARK                            x       y       z     vdW  Elec       q    Type
REMARK                         _______ _______ _______ _____ _____    ______ ____
ROOT
ATOM      1  N   UNL     1       2.387   6.557  17.852  0.00  0.00    +0.000 NA
ATOM      2  C   UNL     1       2.116   7.272  18.915  0.00  0.00    +0.000 C 
ATOM      3  C   UNL     1       2.090   6.676  20.358  0.00  0.00    +0.000 C 
ATOM      4  O   UNL     1       2.057   5.492  20.633  0.00  0.00    +0.000 OA
ATOM      5  N   UNL     1       1.884   7.716  21.219  0.00  0.00    +0.000 N 
ATOM      6  C   UNL     1       1.291   8.712  20.433  0.00  0.00    +0.000 A 
ATOM      7  C   UNL     1       0.076   9.240  20.804  0.00  0.00    +0.000 A 
ATOM      8  C   UNL     1      -0.626   9.968  19.858  0.00  0.00    +0.000 A 
ATOM      9  C   UNL     1      -0.072  10.251  18.592  0.00  0.00    +0.000 A 
ATOM     10  C   UNL     1       1.098   9.588  18.182  0.00  0.00    +0.000 A 
ATOM     11  C   UNL     1       1.665   8.688  19.088  0.00  0.00    +0.000 A 
ATOM     12  H   UNL     1       2.818   8.004  21.512  0.00  0.00    +0.000 HD
ENDROOT
BRANCH   1  15
ATOM     13  O   UNL     1       3.006   3.060  18.280  0.00  0.00    +0.000 OA
ATOM     14  C   UNL     1       3.207   4.166  17.785  0.00  0.00    +0.000 C 
ATOM     15  N   UNL     1       2.401   5.199  18.152  0.00  0.00    +0.000 N 
ATOM     16  H   UNL     1       1.716   4.843  18.826  0.00  0.00    +0.000 HD
BRANCH  14  17
ATOM     17  C   UNL     1       4.381   4.395  16.850  0.00  0.00    +0.000 C 
BRANCH  17  18
ATOM     18  C   UNL     1       5.504   5.235  17.420  0.00  0.00    +0.000 A 
ATOM     19  C   UNL     1       6.053   4.877  18.662  0.00  0.00    +0.000 A 
ATOM     20  C   UNL     1       7.121   5.588  19.213  0.00  0.00    +0.000 A 
ATOM     21  C   UNL     1       7.649   6.668  18.521  0.00  0.00    +0.000 A 
ATOM     22  C   UNL     1       7.138   7.041  17.282  0.00  0.00    +0.000 A 
ATOM     23  C   UNL     1       6.084   6.313  16.728  0.00  0.00    +0.000 A 
BRANCH  21  24
ATOM     24  O   UNL     1       8.691   7.389  19.023  0.00  0.00    +0.000 OA
ATOM     25  H   UNL     1       8.459   8.331  18.978  0.00  0.00    +0.000 HD
ENDBRANCH  21  24
ENDBRANCH  17  18
ENDBRANCH  14  17
ENDBRANCH   1  15
BRANCH   9  26
ATOM     26  O   UNL     1      -0.879  11.103  17.907  0.00  0.00    +0.000 OA
BRANCH  26  27
ATOM     27  C   UNL     1      -2.058  10.701  17.244  0.00  0.00    +0.000 C 
ATOM     28  F   UNL     1      -2.358  11.484  16.192  0.00  0.00    +0.000 F 
ATOM     29  F   UNL     1      -1.864   9.442  16.792  0.00  0.00    +0.000 F 
ATOM     30  F   UNL     1      -3.093  10.683  18.108  0.00  0.00    +0.000 F 
ENDBRANCH  26  27
ENDBRANCH   9  26
TORSDOF 6
ENDMDL
MODEL 5
REMARK VINA RESULT:      -8.0      3.881      7.840
REMARK  Name = 
REMARK  6 active torsions:
REMARK  status: ('A' for Active; 'I' for Inactive)
REMARK    1  A    between atoms: C_2  and  C_3
REMARK    2  A    between atoms: C_3  and  C_4
REMARK    3  A    between atoms: C_7  and  O_8
REMARK    4  A    between atoms: N_11  and  N_12
REMARK    5  A    between atoms: C_20  and  O_21
REMARK    6  A    between atoms: O_21  and  C_22
REMARK                            x       y       z     vdW  Elec       q    Type
REMARK                         _______ _______ _______ _____ _____    ______ ____
ROOT
ATOM      1  N   UNL     1       4.463   4.795  16.608  0.00  0.00    +0.000 NA
ATOM      2  C   UNL     1       5.620   4.905  16.005  0.00  0.00    +0.000 C 
ATOM      3  C   UNL     1       6.571   6.126  16.204  0.00  0.00    +0.000 C 
ATOM      4  O   UNL     1       6.261   7.189  16.706  0.00  0.00    +0.000 OA
ATOM      5  N   UNL     1       7.720   5.857  15.516  0.00  0.00    +0.000 N 
ATOM      6  C   UNL     1       7.345   4.903  14.561  0.00  0.00    +0.000 A 
ATOM      7  C   UNL     1       7.577   5.146  13.228  0.00  0.00    +0.000 A 
ATOM      8  C   UNL     1       6.916   4.355  12.304  0.00  0.00    +0.000 A 
ATOM      9  C   UNL     1       6.113   3.269  12.711  0.00  0.00    +0.000 A 
ATOM     10  C   UNL     1       5.774   3.127  14.068  0.00  0.00    +0.000 A 
ATOM     11  C   UNL     1       6.288   4.079  14.951  0.00  0.00    +0.000 A 
ATOM     12  H   UNL     1       8.348   5.441  16.206  0.00  0.00    +0.000 HD
ENDROOT
BRANCH   1  15
ATOM     13  O   UNL     1       2.978   7.532  18.370  0.00  0.00    +0.000 OA
ATOM     14  C   UNL     1       2.971   6.426  17.836  0.00  0.00    +0.000 C 
ATOM     15  N   UNL     1       4.107   5.987  17.230  0.00  0.00    +0.000 N 
ATOM     16  H   UNL     1       4.821   6.715  17.330  0.00  0.00    +0.000 HD
BRANCH  14  17
ATOM     17  C   UNL     1       1.748   5.530  17.927  0.00  0.00    +0.000 C 
BRANCH  17  18
ATOM     18  C   UNL     1       1.691   4.638  19.149  0.00  0.00    +0.000 A 
ATOM     19  C   UNL     1       1.141   3.352  19.023  0.00  0.00    +0.000 A 
ATOM     20  C   UNL     1       1.105   2.471  20.105  0.00  0.00    +0.000 A 
ATOM     21  C   UNL     1       1.622   2.874  21.328  0.00  0.00    +0.000 A 
ATOM     22  C   UNL     1       2.186   4.136  21.484  0.00  0.00    +0.000 A 
ATOM     23  C   UNL     1       2.237   5.003  20.393  0.00  0.00    +0.000 A 
BRANCH  21  24
ATOM     24  O   UNL     1       1.606   2.044  22.410  0.00  0.00    +0.000 OA
ATOM     25  H   UNL     1       1.082   1.259  22.183  0.00  0.00    +0.000 HD
ENDBRANCH  21  24
ENDBRANCH  17  18
ENDBRANCH  14  17
ENDBRANCH   1  15
BRANCH   9  26
ATOM     26  O   UNL     1       5.701   2.559  11.628  0.00  0.00    +0.000 OA
BRANCH  26  27
ATOM     27  C   UNL     1       6.412   1.464  11.094  0.00  0.00    +0.000 C 
ATOM     28  F   UNL     1       7.702   1.443  11.475  0.00  0.00    +0.000 F 
ATOM     29  F   UNL     1       5.820   0.334  11.542  0.00  0.00    +0.000 F 
ATOM     30  F   UNL     1       6.336   1.473   9.747  0.00  0.00    +0.000 F 
ENDBRANCH  26  27
ENDBRANCH   9  26
TORSDOF 6
ENDMDL
MODEL 6
REMARK VINA RESULT:      -7.9      3.541      7.671
REMARK  Name = 
REMARK  6 active torsions:
REMARK  status: ('A' for Active; 'I' for Inactive)
REMARK    1  A    between atoms: C_2  and  C_3
REMARK    2  A    between atoms: C_3  and  C_4
REMARK    3  A    between atoms: C_7  and  O_8
REMARK    4  A    between atoms: N_11  and  N_12
REMARK    5  A    between atoms: C_20  and  O_21
REMARK    6  A    between atoms: O_21  and  C_22
REMARK                            x       y       z     vdW  Elec       q    Type
REMARK                         _______ _______ _______ _____ _____    ______ ____
ROOT
ATOM      1  N   UNL     1       4.473   4.753  16.384  0.00  0.00    +0.000 NA
ATOM      2  C   UNL     1       5.584   4.731  15.691  0.00  0.00    +0.000 C 
ATOM      3  C   UNL     1       6.744   5.753  15.909  0.00  0.00    +0.000 C 
ATOM      4  O   UNL     1       6.659   6.797  16.526  0.00  0.00    +0.000 OA
ATOM      5  N   UNL     1       7.775   5.368  15.101  0.00  0.00    +0.000 N 
ATOM      6  C   UNL     1       7.172   4.590  14.105  0.00  0.00    +0.000 A 
ATOM      7  C   UNL     1       7.345   4.923  12.782  0.00  0.00    +0.000 A 
ATOM      8  C   UNL     1       6.491   4.348  11.856  0.00  0.00    +0.000 A 
ATOM      9  C   UNL     1       5.544   3.374  12.238  0.00  0.00    +0.000 A 
ATOM     10  C   UNL     1       5.286   3.154  13.602  0.00  0.00    +0.000 A 
ATOM     11  C   UNL     1       6.020   3.916  14.515  0.00  0.00    +0.000 A 
ATOM     12  H   UNL     1       8.371   4.787  15.694  0.00  0.00    +0.000 HD
ENDROOT
BRANCH   1  15
ATOM     13  O   UNL     1       3.611   7.513  18.491  0.00  0.00    +0.000 OA
ATOM     14  C   UNL     1       3.373   6.485  17.863  0.00  0.00    +0.000 C 
ATOM     15  N   UNL     1       4.374   5.920  17.134  0.00  0.00    +0.000 N 
ATOM     16  H   UNL     1       5.212   6.499  17.246  0.00  0.00    +0.000 HD
BRANCH  14  17
ATOM     17  C   UNL     1       2.016   5.810  17.965  0.00  0.00    +0.000 C 
BRANCH  17  18
ATOM     18  C   UNL     1       1.881   4.801  19.087  0.00  0.00    +0.000 A 
ATOM     19  C   UNL     1       2.384   5.130  20.356  0.00  0.00    +0.000 A 
ATOM     20  C   UNL     1       2.245   4.257  21.437  0.00  0.00    +0.000 A 
ATOM     21  C   UNL     1       1.600   3.043  21.253  0.00  0.00    +0.000 A 
ATOM     22  C   UNL     1       1.078   2.693  20.012  0.00  0.00    +0.000 A 
ATOM     23  C   UNL     1       1.202   3.579  18.942  0.00  0.00    +0.000 A 
BRANCH  21  24
ATOM     24  O   UNL     1       1.444   2.162  22.282  0.00  0.00    +0.000 OA
ATOM     25  H   UNL     1       0.702   1.574  22.068  0.00  0.00    +0.000 HD
ENDBRANCH  21  24
ENDBRANCH  17  18
ENDBRANCH  14  17
ENDBRANCH   1  15
BRANCH   9  26
ATOM     26  O   UNL     1       4.939   2.854  11.138  0.00  0.00    +0.000 OA
BRANCH  26  27
ATOM     27  C   UNL     1       3.663   3.251  10.686  0.00  0.00    +0.000 C 
ATOM     28  F   UNL     1       3.494   4.585  10.702  0.00  0.00    +0.000 F 
ATOM     29  F   UNL     1       3.529   2.822   9.411  0.00  0.00    +0.000 F 
ATOM     30  F   UNL     1       2.703   2.662  11.430  0.00  0.00    +0.000 F 
ENDBRANCH  26  27
ENDBRANCH   9  26
TORSDOF 6
ENDMDL
MODEL 7
REMARK VINA RESULT:      -7.9      3.872      7.830
REMARK  Name = 
REMARK  6 active torsions:
REMARK  status: ('A' for Active; 'I' for Inactive)
REMARK    1  A    between atoms: C_2  and  C_3
REMARK    2  A    between atoms: C_3  and  C_4
REMARK    3  A    between atoms: C_7  and  O_8
REMARK    4  A    between atoms: N_11  and  N_12
REMARK    5  A    between atoms: C_20  and  O_21
REMARK    6  A    between atoms: O_21  and  C_22
REMARK                            x       y       z     vdW  Elec       q    Type
REMARK                         _______ _______ _______ _____ _____    ______ ____
ROOT
ATOM      1  N   UNL     1       4.420   4.852  16.606  0.00  0.00    +0.000 NA
ATOM      2  C   UNL     1       5.591   4.940  16.027  0.00  0.00    +0.000 C 
ATOM      3  C   UNL     1       6.570   6.133  16.261  0.00  0.00    +0.000 C 
ATOM      4  O   UNL     1       6.277   7.197  16.771  0.00  0.00    +0.000 OA
ATOM      5  N   UNL     1       7.724   5.843  15.592  0.00  0.00    +0.000 N 
ATOM      6  C   UNL     1       7.343   4.912  14.617  0.00  0.00    +0.000 A 
ATOM      7  C   UNL     1       7.608   5.167  13.291  0.00  0.00    +0.000 A 
ATOM      8  C   UNL     1       6.944   4.405  12.344  0.00  0.00    +0.000 A 
ATOM      9  C   UNL     1       6.105   3.336  12.721  0.00  0.00    +0.000 A 
ATOM     10  C   UNL     1       5.736   3.184  14.068  0.00  0.00    +0.000 A 
ATOM     11  C   UNL     1       6.257   4.110  14.975  0.00  0.00    +0.000 A 
ATOM     12  H   UNL     1       8.327   5.401  16.287  0.00  0.00    +0.000 HD
ENDROOT
BRANCH   1  15
ATOM     13  O   UNL     1       2.981   7.597  18.395  0.00  0.00    +0.000 OA
ATOM     14  C   UNL     1       2.957   6.493  17.855  0.00  0.00    +0.000 C 
ATOM     15  N   UNL     1       4.083   6.045  17.237  0.00  0.00    +0.000 N 
ATOM     16  H   UNL     1       4.806   6.764  17.337  0.00  0.00    +0.000 HD
BRANCH  14  17
ATOM     17  C   UNL     1       1.724   5.612  17.950  0.00  0.00    +0.000 C 
BRANCH  17  18
ATOM     18  C   UNL     1       1.721   4.629  19.102  0.00  0.00    +0.000 A 
ATOM     19  C   UNL     1       2.167   5.062  20.362  0.00  0.00    +0.000 A 
ATOM     20  C   UNL     1       2.143   4.212  21.469  0.00  0.00    +0.000 A 
ATOM     21  C   UNL     1       1.671   2.916  21.322  0.00  0.00    +0.000 A 
ATOM     22  C   UNL     1       1.208   2.460  20.092  0.00  0.00    +0.000 A 
ATOM     23  C   UNL     1       1.216   3.321  18.994  0.00  0.00    +0.000 A 
BRANCH  21  24
ATOM     24  O   UNL     1       1.631   2.054  22.378  0.00  0.00    +0.000 OA
ATOM     25  H   UNL     1       0.700   1.887  22.599  0.00  0.00    +0.000 HD
ENDBRANCH  21  24
ENDBRANCH  17  18
ENDBRANCH  14  17
ENDBRANCH   1  15
BRANCH   9  26
ATOM     26  O   UNL     1       5.697   2.651  11.620  0.00  0.00    +0.000 OA
BRANCH  26  27
ATOM     27  C   UNL     1       6.358   1.511  11.118  0.00  0.00    +0.000 C 
ATOM     28  F   UNL     1       6.257   1.393   9.782  0.00  0.00    +0.000 F 
ATOM     29  F   UNL     1       7.667   1.624  11.435  0.00  0.00    +0.000 F 
ATOM     30  F   UNL     1       5.877   0.398  11.710  0.00  0.00    +0.000 F 
ENDBRANCH  26  27
ENDBRANCH   9  26
TORSDOF 6
ENDMDL
MODEL 8
REMARK VINA RESULT:      -7.9      5.450      8.799
REMARK  Name = 
REMARK  6 active torsions:
REMARK  status: ('A' for Active; 'I' for Inactive)
REMARK    1  A    between atoms: C_2  and  C_3
REMARK    2  A    between atoms: C_3  and  C_4
REMARK    3  A    between atoms: C_7  and  O_8
REMARK    4  A    between atoms: N_11  and  N_12
REMARK    5  A    between atoms: C_20  and  O_21
REMARK    6  A    between atoms: O_21  and  C_22
REMARK                            x       y       z     vdW  Elec       q    Type
REMARK                         _______ _______ _______ _____ _____    ______ ____
ROOT
ATOM      1  N   UNL     1       2.847   5.588  17.665  0.00  0.00    +0.000 NA
ATOM      2  C   UNL     1       3.987   4.953  17.761  0.00  0.00    +0.000 C 
ATOM      3  C   UNL     1       4.803   4.863  19.089  0.00  0.00    +0.000 C 
ATOM      4  O   UNL     1       4.627   5.553  20.074  0.00  0.00    +0.000 OA
ATOM      5  N   UNL     1       5.868   4.043  18.851  0.00  0.00    +0.000 N 
ATOM      6  C   UNL     1       6.037   4.076  17.461  0.00  0.00    +0.000 A 
ATOM      7  C   UNL     1       7.251   4.444  16.930  0.00  0.00    +0.000 A 
ATOM      8  C   UNL     1       7.292   4.779  15.587  0.00  0.00    +0.000 A 
ATOM      9  C   UNL     1       6.154   4.649  14.764  0.00  0.00    +0.000 A 
ATOM     10  C   UNL     1       4.898   4.412  15.349  0.00  0.00    +0.000 A 
ATOM     11  C   UNL     1       4.861   4.294  16.740  0.00  0.00    +0.000 A 
ATOM     12  H   UNL     1       5.559   3.116  19.149  0.00  0.00    +0.000 HD
ENDROOT
BRANCH   1  15
ATOM     13  O   UNL     1       1.993   8.015  20.151  0.00  0.00    +0.000 OA
ATOM     14  C   UNL     1       2.195   7.634  19.001  0.00  0.00    +0.000 C 
ATOM     15  N   UNL     1       2.601   6.350  18.802  0.00  0.00    +0.000 N 
ATOM     16  H   UNL     1       2.675   5.896  19.717  0.00  0.00    +0.000 HD
BRANCH  14  17
ATOM     17  C   UNL     1       1.914   8.548  17.822  0.00  0.00    +0.000 C 
BRANCH  17  18
ATOM     18  C   UNL     1       0.992   9.713  18.114  0.00  0.00    +0.000 A 
ATOM     19  C   UNL     1       1.553  10.932  18.529  0.00  0.00    +0.000 A 
ATOM     20  C   UNL     1       0.754  12.051  18.768  0.00  0.00    +0.000 A 
ATOM     21  C   UNL     1      -0.619  11.958  18.592  0.00  0.00    +0.000 A 
ATOM     22  C   UNL     1      -1.205  10.771  18.168  0.00  0.00    +0.000 A 
ATOM     23  C   UNL     1      -0.399   9.661  17.912  0.00  0.00    +0.000 A 
BRANCH  21  24
ATOM     24  O   UNL     1      -1.435  13.028  18.815  0.00  0.00    +0.000 OA
ATOM     25  H   UNL     1      -0.990  13.625  19.438  0.00  0.00    +0.000 HD
ENDBRANCH  21  24
ENDBRANCH  17  18
ENDBRANCH  14  17
ENDBRANCH   1  15
BRANCH   9  26
ATOM     26  O   UNL     1       6.484   4.888  13.468  0.00  0.00    +0.000 OA
BRANCH  26  27
ATOM     27  C   UNL     1       6.372   3.926  12.442  0.00  0.00    +0.000 C 
ATOM     28  F   UNL     1       5.144   3.887  11.894  0.00  0.00    +0.000 F 
ATOM     29  F   UNL     1       7.256   4.255  11.474  0.00  0.00    +0.000 F 
ATOM     30  F   UNL     1       6.699   2.705  12.912  0.00  0.00    +0.000 F 
ENDBRANCH  26  27
ENDBRANCH   9  26
TORSDOF 6
ENDMDL
MODEL 9
REMARK VINA RESULT:      -7.8      5.404      8.743
REMARK  Name = 
REMARK  6 active torsions:
REMARK  status: ('A' for Active; 'I' for Inactive)
REMARK    1  A    between atoms: C_2  and  C_3
REMARK    2  A    between atoms: C_3  and  C_4
REMARK    3  A    between atoms: C_7  and  O_8
REMARK    4  A    between atoms: N_11  and  N_12
REMARK    5  A    between atoms: C_20  and  O_21
REMARK    6  A    between atoms: O_21  and  C_22
REMARK                            x       y       z     vdW  Elec       q    Type
REMARK                         _______ _______ _______ _____ _____    ______ ____
ROOT
ATOM      1  N   UNL     1       2.833   5.536  17.653  0.00  0.00    +0.000 NA
ATOM      2  C   UNL     1       3.977   4.911  17.772  0.00  0.00    +0.000 C 
ATOM      3  C   UNL     1       4.762   4.821  19.119  0.00  0.00    +0.000 C 
ATOM      4  O   UNL     1       4.557   5.505  20.103  0.00  0.00    +0.000 OA
ATOM      5  N   UNL     1       5.841   4.012  18.902  0.00  0.00    +0.000 N 
ATOM      6  C   UNL     1       6.041   4.055  17.516  0.00  0.00    +0.000 A 
ATOM      7  C   UNL     1       7.264   4.436  17.015  0.00  0.00    +0.000 A 
ATOM      8  C   UNL     1       7.333   4.778  15.676  0.00  0.00    +0.000 A 
ATOM      9  C   UNL     1       6.215   4.641  14.826  0.00  0.00    +0.000 A 
ATOM     10  C   UNL     1       4.948   4.390  15.380  0.00  0.00    +0.000 A 
ATOM     11  C   UNL     1       4.880   4.265  16.770  0.00  0.00    +0.000 A 
ATOM     12  H   UNL     1       5.533   3.082  19.188  0.00  0.00    +0.000 HD
ENDROOT
BRANCH   1  15
ATOM     13  O   UNL     1       1.941   7.958  20.130  0.00  0.00    +0.000 OA
ATOM     14  C   UNL     1       2.194   7.587  18.987  0.00  0.00    +0.000 C 
ATOM     15  N   UNL     1       2.554   6.290  18.788  0.00  0.00    +0.000 N 
ATOM     16  H   UNL     1       2.552   5.818  19.698  0.00  0.00    +0.000 HD
BRANCH  14  17
ATOM     17  C   UNL     1       2.025   8.532  17.810  0.00  0.00    +0.000 C 
BRANCH  17  18
ATOM     18  C   UNL     1       1.144   9.736  18.071  0.00  0.00    +0.000 A 
ATOM     19  C   UNL     1      -0.246   9.601  17.918  0.00  0.00    +0.000 A 
ATOM     20  C   UNL     1      -1.109  10.664  18.189  0.00  0.00    +0.000 A 
ATOM     21  C   UNL     1      -0.585  11.875  18.617  0.00  0.00    +0.000 A 
ATOM     22  C   UNL     1       0.785  12.037  18.793  0.00  0.00    +0.000 A 
ATOM     23  C   UNL     1       1.641  10.965  18.539  0.00  0.00    +0.000 A 
BRANCH  21  24
ATOM     24  O   UNL     1      -1.393  12.938  18.892  0.00  0.00    +0.000 OA
ATOM     25  H   UNL     1      -2.277  12.599  19.110  0.00  0.00    +0.000 HD
ENDBRANCH  21  24
ENDBRANCH  17  18
ENDBRANCH  14  17
ENDBRANCH   1  15
BRANCH   9  26
ATOM     26  O   UNL     1       6.573   4.890  13.538  0.00  0.00    +0.000 OA
BRANCH  26  27
ATOM     27  C   UNL     1       6.426   3.956  12.491  0.00  0.00    +0.000 C 
ATOM     28  F   UNL     1       7.206   4.232  11.431  0.00  0.00    +0.000 F 
ATOM     29  F   UNL     1       6.779   2.743  12.972  0.00  0.00    +0.000 F 
ATOM     30  F   UNL     1       5.136   3.895  12.103  0.00  0.00    +0.000 F 
ENDBRANCH  26  27
ENDBRANCH   9  26
TORSDOF 6
ENDMDL
