MODEL 1
REMARK VINA RESULT:      -8.1      0.000      0.000
REMARK  Name = 
REMARK  3 active torsions:
REMARK  status: ('A' for Active; 'I' for Inactive)
REMARK    1  A    between atoms: C_1  and  C_2
REMARK    2  A    between atoms: C_2  and  N_3
REMARK    3  A    between atoms: N_11  and  C_12
REMARK                            x       y       z     vdW  Elec       q    Type
REMARK                         _______ _______ _______ _____ _____    ______ ____
ROOT
ATOM      1  N   UNL     1       2.401   6.024  18.988  0.00  0.00    +0.000 N 
ATOM      2  C   UNL     1       2.567   7.368  18.700  0.00  0.00    +0.000 A 
ATOM      3  N   UNL     1       1.795   8.318  19.276  0.00  0.00    +0.000 N 
ATOM      4  C   UNL     1       1.479   9.545  18.532  0.00  0.00    +0.000 C 
ATOM      5  C   UNL     1       0.057   9.996  18.942  0.00  0.00    +0.000 C 
ATOM      6  N   UNL     1      -0.109  10.081  20.413  0.00  0.00    +0.000 N 
ATOM      7  C   UNL     1      -0.933  11.083  20.908  0.00  0.00    +0.000 C 
ATOM      8  O   UNL     1      -1.495  11.855  20.139  0.00  0.00    +0.000 OA
ATOM      9  N   UNL     1      -1.008  11.158  22.281  0.00  0.00    +0.000 N 
ATOM     10  C   UNL     1       0.360   8.893  21.144  0.00  0.00    +0.000 C 
ATOM     11  C   UNL     1       1.797   8.532  20.727  0.00  0.00    +0.000 C 
ATOM     12  N   UNL     1       3.444   7.523  17.727  0.00  0.00    +0.000 NA
ATOM     13  C   UNL     1       3.888   6.264  17.408  0.00  0.00    +0.000 A 
ATOM     14  C   UNL     1       4.844   5.848  16.466  0.00  0.00    +0.000 A 
ATOM     15  C   UNL     1       5.107   4.477  16.325  0.00  0.00    +0.000 A 
ATOM     16  C   UNL     1       4.417   3.534  17.087  0.00  0.00    +0.000 A 
ATOM     17  C   UNL     1       3.457   3.926  18.015  0.00  0.00    +0.000 A 
ATOM     18  C   UNL     1       3.232   5.302  18.164  0.00  0.00    +0.000 A 
ATOM     19  H   UNL     1      -0.287  10.683  22.795  0.00  0.00    +0.000 HD
ENDROOT
BRANCH   9  20
ATOM     20  C   UNL     1      -1.713  12.139  23.012  0.00  0.00    +0.000 A 
ATOM     21  C   UNL     1      -3.013  11.954  23.492  0.00  0.00    +0.000 A 
ATOM     22  C   UNL     1      -3.706  13.007  24.092  0.00  0.00    +0.000 A 
ATOM     23  C   UNL     1      -3.086  14.238  24.236  0.00  0.00    +0.000 A 
ATOM     24  F   UNL     1      -3.763  15.260  24.777  0.00  0.00    +0.000 F 
ATOM     25  C   UNL     1      -1.772  14.427  23.826  0.00  0.00    +0.000 A 
ATOM     26  C   UNL     1      -1.080  13.373  23.222  0.00  0.00    +0.000 A 
ENDBRANCH   9  20
BRANCH   1  28
ATOM     27  C   UNL     1       2.124   4.750  21.082  0.00  0.00    +0.000 C 
ATOM     28  C   UNL     1       1.448   5.421  19.896  0.00  0.00    +0.000 C 
ENDBRANCH   1  28
TORSDOF 2
ENDMDL
MODEL 2
REMARK VINA RESULT:      -7.7      3.963      9.998
REMARK  Name = 
REMARK  3 active torsions:
REMARK  status: ('A' for Active; 'I' for Inactive)
REMARK    1  A    between atoms: C_1  and  C_2
REMARK    2  A    between atoms: C_2  and  N_3
REMARK    3  A    between atoms: N_11  and  C_12
REMARK                            x       y       z     vdW  Elec       q    Type
REMARK                         _______ _______ _______ _____ _____    ______ ____
ROOT
ATOM      1  N   UNL     1      -1.346  11.814  20.624  0.00  0.00    +0.000 N 
ATOM      2  C   UNL     1      -0.260  11.321  21.327  0.00  0.00    +0.000 A 
ATOM      3  N   UNL     1       0.511  10.324  20.837  0.00  0.00    +0.000 N 
ATOM      4  C   UNL     1       1.150   9.379  21.763  0.00  0.00    +0.000 C 
ATOM      5  C   UNL     1       1.206   7.998  21.068  0.00  0.00    +0.000 C 
ATOM      6  N   UNL     1       1.805   8.068  19.714  0.00  0.00    +0.000 N 
ATOM      7  C   UNL     1       2.570   6.988  19.294  0.00  0.00    +0.000 C 
ATOM      8  O   UNL     1       2.728   6.021  20.031  0.00  0.00    +0.000 OA
ATOM      9  N   UNL     1       3.154   7.125  18.055  0.00  0.00    +0.000 N 
ATOM     10  C   UNL     1       1.247   9.129  18.860  0.00  0.00    +0.000 C 
ATOM     11  C   UNL     1       1.270  10.483  19.592  0.00  0.00    +0.000 C 
ATOM     12  N   UNL     1      -0.213  11.859  22.530  0.00  0.00    +0.000 NA
ATOM     13  C   UNL     1      -1.257  12.747  22.595  0.00  0.00    +0.000 A 
ATOM     14  C   UNL     1      -1.655  13.610  23.630  0.00  0.00    +0.000 A 
ATOM     15  C   UNL     1      -2.787  14.418  23.442  0.00  0.00    +0.000 A 
ATOM     16  C   UNL     1      -3.524  14.354  22.260  0.00  0.00    +0.000 A 
ATOM     17  C   UNL     1      -3.153  13.497  21.230  0.00  0.00    +0.000 A 
ATOM     18  C   UNL     1      -2.001  12.721  21.423  0.00  0.00    +0.000 A 
ATOM     19  H   UNL     1       3.202   8.058  17.685  0.00  0.00    +0.000 HD
ENDROOT
BRANCH   9  20
ATOM     20  C   UNL     1       4.035   6.200  17.455  0.00  0.00    +0.000 A 
ATOM     21  C   UNL     1       5.270   6.560  16.906  0.00  0.00    +0.000 A 
ATOM     22  C   UNL     1       6.038   5.624  16.210  0.00  0.00    +0.000 A 
ATOM     23  C   UNL     1       5.581   4.321  16.087  0.00  0.00    +0.000 A 
ATOM     24  F   UNL     1       6.299   3.433  15.387  0.00  0.00    +0.000 F 
ATOM     25  C   UNL     1       4.389   3.926  16.681  0.00  0.00    +0.000 A 
ATOM     26  C   UNL     1       3.619   4.863  17.375  0.00  0.00    +0.000 A 
ENDBRANCH   9  20
BRANCH   1  28
ATOM     27  C   UNL     1      -1.354  12.314  18.208  0.00  0.00    +0.000 C 
ATOM     28  C   UNL     1      -1.827  11.394  19.324  0.00  0.00    +0.000 C 
ENDBRANCH   1  28
TORSDOF 2
ENDMDL
MODEL 3
REMARK VINA RESULT:      -7.7      0.479      1.057
REMARK  Name = 
REMARK  3 active torsions:
REMARK  status: ('A' for Active; 'I' for Inactive)
REMARK    1  A    between atoms: C_1  and  C_2
REMARK    2  A    between atoms: C_2  and  N_3
REMARK    3  A    between atoms: N_11  and  C_12
REMARK                            x       y       z     vdW  Elec       q    Type
REMARK                         _______ _______ _______ _____ _____    ______ ____
ROOT
ATOM      1  N   UNL     1       2.380   6.021  19.479  0.00  0.00    +0.000 N 
ATOM      2  C   UNL     1       2.459   7.321  19.010  0.00  0.00    +0.000 A 
ATOM      3  N   UNL     1       1.693   8.310  19.526  0.00  0.00    +0.000 N 
ATOM      4  C   UNL     1       1.261   9.418  18.662  0.00  0.00    +0.000 C 
ATOM      5  C   UNL     1      -0.142   9.866  19.132  0.00  0.00    +0.000 C 
ATOM      6  N   UNL     1      -0.193  10.136  20.589  0.00  0.00    +0.000 N 
ATOM      7  C   UNL     1      -1.020  11.164  21.023  0.00  0.00    +0.000 C 
ATOM      8  O   UNL     1      -1.678  11.809  20.214  0.00  0.00    +0.000 OA
ATOM      9  N   UNL     1      -0.988  11.414  22.376  0.00  0.00    +0.000 N 
ATOM     10  C   UNL     1       0.388   9.071  21.422  0.00  0.00    +0.000 C 
ATOM     11  C   UNL     1       1.802   8.710  20.932  0.00  0.00    +0.000 C 
ATOM     12  N   UNL     1       3.247   7.379  17.954  0.00  0.00    +0.000 NA
ATOM     13  C   UNL     1       3.722   6.106  17.759  0.00  0.00    +0.000 A 
ATOM     14  C   UNL     1       4.617   5.606  16.799  0.00  0.00    +0.000 A 
ATOM     15  C   UNL     1       4.931   4.238  16.811  0.00  0.00    +0.000 A 
ATOM     16  C   UNL     1       4.349   3.379  17.742  0.00  0.00    +0.000 A 
ATOM     17  C   UNL     1       3.450   3.853  18.692  0.00  0.00    +0.000 A 
ATOM     18  C   UNL     1       3.174   5.228  18.685  0.00  0.00    +0.000 A 
ATOM     19  H   UNL     1      -0.207  11.036  22.882  0.00  0.00    +0.000 HD
ENDROOT
BRANCH   9  20
ATOM     20  C   UNL     1      -1.676  12.456  23.035  0.00  0.00    +0.000 A 
ATOM     21  C   UNL     1      -1.098  13.695  23.328  0.00  0.00    +0.000 A 
ATOM     22  C   UNL     1      -1.785  14.636  24.097  0.00  0.00    +0.000 A 
ATOM     23  C   UNL     1      -3.062  14.347  24.550  0.00  0.00    +0.000 A 
ATOM     24  F   UNL     1      -3.707  15.233  25.320  0.00  0.00    +0.000 F 
ATOM     25  C   UNL     1      -3.682  13.149  24.217  0.00  0.00    +0.000 A 
ATOM     26  C   UNL     1      -2.993  12.206  23.449  0.00  0.00    +0.000 A 
ENDBRANCH   9  20
BRANCH   1  28
ATOM     27  C   UNL     1       0.896   4.174  20.167  0.00  0.00    +0.000 C 
ATOM     28  C   UNL     1       1.532   5.507  20.535  0.00  0.00    +0.000 C 
ENDBRANCH   1  28
TORSDOF 2
ENDMDL
MODEL 4
REMARK VINA RESULT:      -7.5      4.101      9.901
REMARK  Name = 
REMARK  3 active torsions:
REMARK  status: ('A' for Active; 'I' for Inactive)
REMARK    1  A    between atoms: C_1  and  C_2
REMARK    2  A    between atoms: C_2  and  N_3
REMARK    3  A    between atoms: N_11  and  C_12
REMARK                            x       y       z     vdW  Elec       q    Type
REMARK                         _______ _______ _______ _____ _____    ______ ____
ROOT
ATOM      1  N   UNL     1      -1.581  11.568  19.728  0.00  0.00    +0.000 N 
ATOM      2  C   UNL     1      -0.578  11.123  20.572  0.00  0.00    +0.000 A 
ATOM      3  N   UNL     1       0.341  10.217  20.169  0.00  0.00    +0.000 N 
ATOM      4  C   UNL     1       0.908   9.275  21.144  0.00  0.00    +0.000 C 
ATOM      5  C   UNL     1       1.188   7.943  20.409  0.00  0.00    +0.000 C 
ATOM      6  N   UNL     1       1.980   8.133  19.171  0.00  0.00    +0.000 N 
ATOM      7  C   UNL     1       2.889   7.140  18.832  0.00  0.00    +0.000 C 
ATOM      8  O   UNL     1       3.013   6.149  19.544  0.00  0.00    +0.000 OA
ATOM      9  N   UNL     1       3.643   7.390  17.707  0.00  0.00    +0.000 N 
ATOM     10  C   UNL     1       1.471   9.193  18.284  0.00  0.00    +0.000 C 
ATOM     11  C   UNL     1       1.266  10.502  19.067  0.00  0.00    +0.000 C 
ATOM     12  N   UNL     1      -0.763  11.597  21.790  0.00  0.00    +0.000 NA
ATOM     13  C   UNL     1      -1.877  12.397  21.726  0.00  0.00    +0.000 A 
ATOM     14  C   UNL     1      -2.501  13.168  22.720  0.00  0.00    +0.000 A 
ATOM     15  C   UNL     1      -3.655  13.895  22.390  0.00  0.00    +0.000 A 
ATOM     16  C   UNL     1      -4.193  13.839  21.105  0.00  0.00    +0.000 A 
ATOM     17  C   UNL     1      -3.597  13.070  20.111  0.00  0.00    +0.000 A 
ATOM     18  C   UNL     1      -2.426  12.376  20.451  0.00  0.00    +0.000 A 
ATOM     19  H   UNL     1       3.668   8.343  17.389  0.00  0.00    +0.000 HD
ENDROOT
BRANCH   9  20
ATOM     20  C   UNL     1       4.682   6.571  17.216  0.00  0.00    +0.000 A 
ATOM     21  C   UNL     1       4.467   5.301  16.670  0.00  0.00    +0.000 A 
ATOM     22  C   UNL     1       5.545   4.484  16.324  0.00  0.00    +0.000 A 
ATOM     23  C   UNL     1       6.839   4.950  16.498  0.00  0.00    +0.000 A 
ATOM     24  F   UNL     1       7.874   4.154  16.202  0.00  0.00    +0.000 F 
ATOM     25  C   UNL     1       7.075   6.233  16.977  0.00  0.00    +0.000 A 
ATOM     26  C   UNL     1       5.995   7.049  17.327  0.00  0.00    +0.000 A 
ENDBRANCH   9  20
BRANCH   1  28
ATOM     27  C   UNL     1      -2.690   9.941  18.241  0.00  0.00    +0.000 C 
ATOM     28  C   UNL     1      -1.819  11.184  18.352  0.00  0.00    +0.000 C 
ENDBRANCH   1  28
TORSDOF 2
ENDMDL
MODEL 5
REMARK VINA RESULT:      -7.2      4.274      9.971
REMARK  Name = 
REMARK  3 active torsions:
REMARK  status: ('A' for Active; 'I' for Inactive)
REMARK    1  A    between atoms: C_1  and  C_2
REMARK    2  A    between atoms: C_2  and  N_3
REMARK    3  A    between atoms: N_11  and  C_12
REMARK                            x       y       z     vdW  Elec       q    Type
REMARK                         _______ _______ _______ _____ _____    ______ ____
ROOT
ATOM      1  N   UNL     1      -2.104  11.150  19.055  0.00  0.00    +0.000 N 
ATOM      2  C   UNL     1      -0.968  11.107  19.846  0.00  0.00    +0.000 A 
ATOM      3  N   UNL     1       0.042  10.244  19.592  0.00  0.00    +0.000 N 
ATOM      4  C   UNL     1       0.841   9.714  20.706  0.00  0.00    +0.000 C 
ATOM      5  C   UNL     1       1.259   8.270  20.345  0.00  0.00    +0.000 C 
ATOM      6  N   UNL     1       1.892   8.180  19.007  0.00  0.00    +0.000 N 
ATOM      7  C   UNL     1       2.912   7.253  18.841  0.00  0.00    +0.000 C 
ATOM      8  O   UNL     1       3.259   6.543  19.779  0.00  0.00    +0.000 OA
ATOM      9  N   UNL     1       3.508   7.249  17.600  0.00  0.00    +0.000 N 
ATOM     10  C   UNL     1       1.140   8.855  17.936  0.00  0.00    +0.000 C 
ATOM     11  C   UNL     1       0.802  10.301  18.339  0.00  0.00    +0.000 C 
ATOM     12  N   UNL     1      -1.112  11.894  20.894  0.00  0.00    +0.000 NA
ATOM     13  C   UNL     1      -2.340  12.493  20.760  0.00  0.00    +0.000 A 
ATOM     14  C   UNL     1      -2.984  13.441  21.573  0.00  0.00    +0.000 A 
ATOM     15  C   UNL     1      -4.265  13.886  21.212  0.00  0.00    +0.000 A 
ATOM     16  C   UNL     1      -4.905  13.382  20.080  0.00  0.00    +0.000 A 
ATOM     17  C   UNL     1      -4.289  12.433  19.270  0.00  0.00    +0.000 A 
ATOM     18  C   UNL     1      -2.996  12.024  19.629  0.00  0.00    +0.000 A 
ATOM     19  H   UNL     1       3.351   8.059  17.026  0.00  0.00    +0.000 HD
ENDROOT
BRANCH   9  20
ATOM     20  C   UNL     1       4.613   6.457  17.222  0.00  0.00    +0.000 A 
ATOM     21  C   UNL     1       5.932   6.923  17.230  0.00  0.00    +0.000 A 
ATOM     22  C   UNL     1       6.967   6.138  16.721  0.00  0.00    +0.000 A 
ATOM     23  C   UNL     1       6.686   4.873  16.229  0.00  0.00    +0.000 A 
ATOM     24  F   UNL     1       7.672   4.133  15.705  0.00  0.00    +0.000 F 
ATOM     25  C   UNL     1       5.394   4.363  16.271  0.00  0.00    +0.000 A 
ATOM     26  C   UNL     1       4.358   5.152  16.778  0.00  0.00    +0.000 A 
ENDBRANCH   9  20
BRANCH   1  28
ATOM     27  C   UNL     1      -2.323  11.149  16.597  0.00  0.00    +0.000 C 
ATOM     28  C   UNL     1      -2.405  10.347  17.888  0.00  0.00    +0.000 C 
ENDBRANCH   1  28
TORSDOF 2
ENDMDL
MODEL 6
REMARK VINA RESULT:      -7.0      3.867      9.946
REMARK  Name = 
REMARK  3 active torsions:
REMARK  status: ('A' for Active; 'I' for Inactive)
REMARK    1  A    between atoms: C_1  and  C_2
REMARK    2  A    between atoms: C_2  and  N_3
REMARK    3  A    between atoms: N_11  and  C_12
REMARK                            x       y       z     vdW  Elec       q    Type
REMARK                         _______ _______ _______ _____ _____    ______ ____
ROOT
ATOM      1  N   UNL     1      -1.199  12.613  20.663  0.00  0.00    +0.000 N 
ATOM      2  C   UNL     1      -0.270  11.932  21.431  0.00  0.00    +0.000 A 
ATOM      3  N   UNL     1       0.419  10.876  20.941  0.00  0.00    +0.000 N 
ATOM      4  C   UNL     1       0.826   9.792  21.847  0.00  0.00    +0.000 C 
ATOM      5  C   UNL     1       0.785   8.467  21.049  0.00  0.00    +0.000 C 
ATOM      6  N   UNL     1       1.537   8.549  19.774  0.00  0.00    +0.000 N 
ATOM      7  C   UNL     1       2.201   7.407  19.347  0.00  0.00    +0.000 C 
ATOM      8  O   UNL     1       2.151   6.379  20.014  0.00  0.00    +0.000 OA
ATOM      9  N   UNL     1       2.933   7.550  18.190  0.00  0.00    +0.000 N 
ATOM     10  C   UNL     1       1.216   9.732  18.958  0.00  0.00    +0.000 C 
ATOM     11  C   UNL     1       1.327  11.016  19.798  0.00  0.00    +0.000 C 
ATOM     12  N   UNL     1      -0.291  12.375  22.673  0.00  0.00    +0.000 NA
ATOM     13  C   UNL     1      -1.216  13.389  22.703  0.00  0.00    +0.000 A 
ATOM     14  C   UNL     1      -1.616  14.224  23.760  0.00  0.00    +0.000 A 
ATOM     15  C   UNL     1      -2.608  15.188  23.524  0.00  0.00    +0.000 A 
ATOM     16  C   UNL     1      -3.209  15.305  22.272  0.00  0.00    +0.000 A 
ATOM     17  C   UNL     1      -2.836  14.478  21.217  0.00  0.00    +0.000 A 
ATOM     18  C   UNL     1      -1.820  13.543  21.462  0.00  0.00    +0.000 A 
ATOM     19  H   UNL     1       3.141   8.491  17.905  0.00  0.00    +0.000 HD
ENDROOT
BRANCH   9  20
ATOM     20  C   UNL     1       3.753   6.558  17.610  0.00  0.00    +0.000 A 
ATOM     21  C   UNL     1       3.409   5.203  17.567  0.00  0.00    +0.000 A 
ATOM     22  C   UNL     1       4.318   4.252  17.100  0.00  0.00    +0.000 A 
ATOM     23  C   UNL     1       5.563   4.662  16.649  0.00  0.00    +0.000 A 
ATOM     24  F   UNL     1       6.450   3.747  16.236  0.00  0.00    +0.000 F 
ATOM     25  C   UNL     1       5.902   6.009  16.620  0.00  0.00    +0.000 A 
ATOM     26  C   UNL     1       4.993   6.960  17.091  0.00  0.00    +0.000 A 
ENDBRANCH   9  20
BRANCH   1  28
ATOM     27  C   UNL     1      -2.861  11.537  19.191  0.00  0.00    +0.000 C 
ATOM     28  C   UNL     1      -1.580  12.352  19.290  0.00  0.00    +0.000 C 
ENDBRANCH   1  28
TORSDOF 2
ENDMDL
MODEL 7
REMARK VINA RESULT:      -6.7      3.732     10.022
REMARK  Name = 
REMARK  3 active torsions:
REMARK  status: ('A' for Active; 'I' for Inactive)
REMARK    1  A    between atoms: C_1  and  C_2
REMARK    2  A    between atoms: C_2  and  N_3
REMARK    3  A    between atoms: N_11  and  C_12
REMARK                            x       y       z     vdW  Elec       q    Type
REMARK                         _______ _______ _______ _____ _____    ______ ____
ROOT
ATOM      1  N   UNL     1      -1.446  13.237  21.320  0.00  0.00    +0.000 N 
ATOM      2  C   UNL     1      -0.560  12.494  22.081  0.00  0.00    +0.000 A 
ATOM      3  N   UNL     1       0.049  11.391  21.588  0.00  0.00    +0.000 N 
ATOM      4  C   UNL     1       0.387  10.284  22.492  0.00  0.00    +0.000 C 
ATOM      5  C   UNL     1       0.245   8.963  21.699  0.00  0.00    +0.000 C 
ATOM      6  N   UNL     1       0.987   8.989  20.417  0.00  0.00    +0.000 N 
ATOM      7  C   UNL     1       1.566   7.802  19.987  0.00  0.00    +0.000 C 
ATOM      8  O   UNL     1       1.451   6.782  20.657  0.00  0.00    +0.000 OA
ATOM      9  N   UNL     1       2.294   7.890  18.821  0.00  0.00    +0.000 N 
ATOM     10  C   UNL     1       0.742  10.189  19.600  0.00  0.00    +0.000 C 
ATOM     11  C   UNL     1       0.952  11.465  20.435  0.00  0.00    +0.000 C 
ATOM     12  N   UNL     1      -0.537  12.940  23.322  0.00  0.00    +0.000 NA
ATOM     13  C   UNL     1      -1.388  14.017  23.358  0.00  0.00    +0.000 A 
ATOM     14  C   UNL     1      -1.717  14.881  24.416  0.00  0.00    +0.000 A 
ATOM     15  C   UNL     1      -2.641  15.912  24.188  0.00  0.00    +0.000 A 
ATOM     16  C   UNL     1      -3.246  16.067  22.941  0.00  0.00    +0.000 A 
ATOM     17  C   UNL     1      -2.943  15.214  21.885  0.00  0.00    +0.000 A 
ATOM     18  C   UNL     1      -1.992  14.210  22.123  0.00  0.00    +0.000 A 
ATOM     19  H   UNL     1       2.564   8.813  18.532  0.00  0.00    +0.000 HD
ENDROOT
BRANCH   9  20
ATOM     20  C   UNL     1       3.036   6.842  18.236  0.00  0.00    +0.000 A 
ATOM     21  C   UNL     1       4.243   7.039  17.559  0.00  0.00    +0.000 A 
ATOM     22  C   UNL     1       4.863   5.983  16.887  0.00  0.00    +0.000 A 
ATOM     23  C   UNL     1       4.287   4.723  16.917  0.00  0.00    +0.000 A 
ATOM     24  F   UNL     1       4.860   3.718  16.242  0.00  0.00    +0.000 F 
ATOM     25  C   UNL     1       3.122   4.489  17.638  0.00  0.00    +0.000 A 
ATOM     26  C   UNL     1       2.501   5.547  18.307  0.00  0.00    +0.000 A 
ENDBRANCH   9  20
BRANCH   1  28
ATOM     27  C   UNL     1      -3.100  12.123  19.867  0.00  0.00    +0.000 C 
ATOM     28  C   UNL     1      -1.859  13.000  19.952  0.00  0.00    +0.000 C 
ENDBRANCH   1  28
TORSDOF 2
ENDMDL
MODEL 8
REMARK VINA RESULT:      -6.6      3.907      9.825
REMARK  Name = 
REMARK  3 active torsions:
REMARK  status: ('A' for Active; 'I' for Inactive)
REMARK    1  A    between atoms: C_1  and  C_2
REMARK    2  A    between atoms: C_2  and  N_3
REMARK    3  A    between atoms: N_11  and  C_12
REMARK                            x       y       z     vdW  Elec       q    Type
REMARK                         _______ _______ _______ _____ _____    ______ ____
ROOT
ATOM      1  N   UNL     1      -1.495  11.904  21.711  0.00  0.00    +0.000 N 
ATOM      2  C   UNL     1      -1.614  11.547  20.379  0.00  0.00    +0.000 A 
ATOM      3  N   UNL     1      -0.730  10.714  19.784  0.00  0.00    +0.000 N 
ATOM      4  C   UNL     1      -0.430  10.876  18.355  0.00  0.00    +0.000 C 
ATOM      5  C   UNL     1       1.053  10.493  18.135  0.00  0.00    +0.000 C 
ATOM      6  N   UNL     1       1.388   9.169  18.712  0.00  0.00    +0.000 N 
ATOM      7  C   UNL     1       2.319   8.392  18.035  0.00  0.00    +0.000 C 
ATOM      8  O   UNL     1       2.834   8.806  17.003  0.00  0.00    +0.000 OA
ATOM      9  N   UNL     1       2.553   7.148  18.577  0.00  0.00    +0.000 N 
ATOM     10  C   UNL     1       0.937   8.983  20.101  0.00  0.00    +0.000 C 
ATOM     11  C   UNL     1      -0.556   9.330  20.237  0.00  0.00    +0.000 C 
ATOM     12  N   UNL     1      -2.585  12.233  19.808  0.00  0.00    +0.000 NA
ATOM     13  C   UNL     1      -3.134  13.015  20.794  0.00  0.00    +0.000 A 
ATOM     14  C   UNL     1      -4.213  13.914  20.746  0.00  0.00    +0.000 A 
ATOM     15  C   UNL     1      -4.568  14.610  21.912  0.00  0.00    +0.000 A 
ATOM     16  C   UNL     1      -3.851  14.435  23.096  0.00  0.00    +0.000 A 
ATOM     17  C   UNL     1      -2.772  13.559  23.159  0.00  0.00    +0.000 A 
ATOM     18  C   UNL     1      -2.453  12.849  21.992  0.00  0.00    +0.000 A 
ATOM     19  H   UNL     1       1.869   6.809  19.230  0.00  0.00    +0.000 HD
ENDROOT
BRANCH   9  20
ATOM     20  C   UNL     1       3.390   6.156  18.023  0.00  0.00    +0.000 A 
ATOM     21  C   UNL     1       4.707   6.398  17.620  0.00  0.00    +0.000 A 
ATOM     22  C   UNL     1       5.441   5.412  16.958  0.00  0.00    +0.000 A 
ATOM     23  C   UNL     1       4.865   4.173  16.725  0.00  0.00    +0.000 A 
ATOM     24  F   UNL     1       5.555   3.239  16.057  0.00  0.00    +0.000 F 
ATOM     25  C   UNL     1       3.582   3.888  17.175  0.00  0.00    +0.000 A 
ATOM     26  C   UNL     1       2.847   4.877  17.834  0.00  0.00    +0.000 A 
ENDBRANCH   9  20
BRANCH   1  28
ATOM     27  C   UNL     1      -0.822  10.155  23.317  0.00  0.00    +0.000 C 
ATOM     28  C   UNL     1      -0.481  11.483  22.657  0.00  0.00    +0.000 C 
ENDBRANCH   1  28
TORSDOF 2
ENDMDL
MODEL 9
REMARK VINA RESULT:      -6.5      4.226      9.741
REMARK  Name = 
REMARK  3 active torsions:
REMARK  status: ('A' for Active; 'I' for Inactive)
REMARK    1  A    between atoms: C_1  and  C_2
REMARK    2  A    between atoms: C_2  and  N_3
REMARK    3  A    between atoms: N_11  and  C_12
REMARK                            x       y       z     vdW  Elec       q    Type
REMARK                         _______ _______ _______ _____ _____    ______ ____
ROOT
ATOM      1  N   UNL     1      -0.157  13.257  19.717  0.00  0.00    +0.000 N 
ATOM      2  C   UNL     1       0.740  12.599  20.541  0.00  0.00    +0.000 A 
ATOM      3  N   UNL     1       1.080  11.306  20.332  0.00  0.00    +0.000 N 
ATOM      4  C   UNL     1       1.418  10.451  21.479  0.00  0.00    +0.000 C 
ATOM      5  C   UNL     1       0.941   9.016  21.156  0.00  0.00    +0.000 C 
ATOM      6  N   UNL     1       1.427   8.539  19.840  0.00  0.00    +0.000 N 
ATOM      7  C   UNL     1       1.737   7.190  19.720  0.00  0.00    +0.000 C 
ATOM      8  O   UNL     1       1.604   6.440  20.681  0.00  0.00    +0.000 OA
ATOM      9  N   UNL     1       2.240   6.808  18.497  0.00  0.00    +0.000 N 
ATOM     10  C   UNL     1       1.209   9.487  18.735  0.00  0.00    +0.000 C 
ATOM     11  C   UNL     1       1.753  10.880  19.101  0.00  0.00    +0.000 C 
ATOM     12  N   UNL     1       1.058  13.360  21.570  0.00  0.00    +0.000 NA
ATOM     13  C   UNL     1       0.394  14.548  21.389  0.00  0.00    +0.000 A 
ATOM     14  C   UNL     1       0.396  15.719  22.165  0.00  0.00    +0.000 A 
ATOM     15  C   UNL     1      -0.396  16.804  21.759  0.00  0.00    +0.000 A 
ATOM     16  C   UNL     1      -1.195  16.719  20.619  0.00  0.00    +0.000 A 
ATOM     17  C   UNL     1      -1.220  15.563  19.845  0.00  0.00    +0.000 A 
ATOM     18  C   UNL     1      -0.397  14.502  20.249  0.00  0.00    +0.000 A 
ATOM     19  H   UNL     1       2.581   7.543  17.904  0.00  0.00    +0.000 HD
ENDROOT
BRANCH   9  20
ATOM     20  C   UNL     1       2.700   5.515  18.167  0.00  0.00    +0.000 A 
ATOM     21  C   UNL     1       1.865   4.499  17.690  0.00  0.00    +0.000 A 
ATOM     22  C   UNL     1       2.353   3.204  17.507  0.00  0.00    +0.000 A 
ATOM     23  C   UNL     1       3.686   2.933  17.775  0.00  0.00    +0.000 A 
ATOM     24  F   UNL     1       4.146   1.683  17.635  0.00  0.00    +0.000 F 
ATOM     25  C   UNL     1       4.549   3.940  18.186  0.00  0.00    +0.000 A 
ATOM     26  C   UNL     1       4.059   5.236  18.373  0.00  0.00    +0.000 A 
ENDBRANCH   9  20
BRANCH   1  28
ATOM     27  C   UNL     1      -2.090  11.938  18.934  0.00  0.00    +0.000 C 
ATOM     28  C   UNL     1      -0.848  12.733  18.557  0.00  0.00    +0.000 C 
ENDBRANCH   1  28
TORSDOF 2
ENDMDL
