MODEL 1
REMARK VINA RESULT:      -7.1      0.000      0.000
REMARK  Name = 
REMARK  7 active torsions:
REMARK  status: ('A' for Active; 'I' for Inactive)
REMARK    1  A    between atoms: C_1  and  O_2
REMARK    2  A    between atoms: O_2  and  C_3
REMARK    3  A    between atoms: C_5  and  N_6
REMARK    4  A    between atoms: C_7  and  C_9
REMARK    5  A    between atoms: C_14  and  C_15
REMARK    6  A    between atoms: C_17  and  O_18
REMARK    7  A    between atoms: O_18  and  C_19
REMARK                            x       y       z     vdW  Elec       q    Type
REMARK                         _______ _______ _______ _____ _____    ______ ____
ROOT
ATOM      1  N   UNL     1       4.445   4.140  17.982  0.00  0.00    +0.000 N 
ATOM      2  C   UNL     1       3.852   2.912  18.234  0.00  0.00    +0.000 C 
ATOM      3  O   UNL     1       4.055   1.867  17.630  0.00  0.00    +0.000 OA
ATOM      4  H   UNL     1       4.293   4.875  18.661  0.00  0.00    +0.000 HD
ENDROOT
BRANCH   2   5
ATOM      5  C   UNL     1       2.895   2.904  19.384  0.00  0.00    +0.000 A 
ATOM      6  C   UNL     1       3.362   2.499  20.648  0.00  0.00    +0.000 A 
ATOM      7  C   UNL     1       2.503   2.476  21.745  0.00  0.00    +0.000 A 
ATOM      8  C   UNL     1       1.178   2.874  21.598  0.00  0.00    +0.000 A 
ATOM      9  C   UNL     1       0.712   3.308  20.356  0.00  0.00    +0.000 A 
ATOM     10  C   UNL     1       1.557   3.328  19.233  0.00  0.00    +0.000 A 
ATOM     11  C   UNL     1       1.006   3.825  17.925  0.00  0.00    +0.000 C 
ENDBRANCH   2   5
BRANCH   1  14
ATOM     12  C   UNL     1       6.196   4.143  14.670  0.00  0.00    +0.000 A 
ATOM     13  C   UNL     1       5.306   3.792  15.689  0.00  0.00    +0.000 A 
ATOM     14  C   UNL     1       5.321   4.453  16.916  0.00  0.00    +0.000 A 
ATOM     15  C   UNL     1       6.235   5.499  17.107  0.00  0.00    +0.000 A 
ATOM     16  C   UNL     1       7.135   5.859  16.093  0.00  0.00    +0.000 A 
ATOM     17  C   UNL     1       7.117   5.170  14.878  0.00  0.00    +0.000 A 
BRANCH  12  19
ATOM     18  C   UNL     1       6.753   3.876  12.370  0.00  0.00    +0.000 C 
ATOM     19  O   UNL     1       6.058   3.413  13.519  0.00  0.00    +0.000 OA
ENDBRANCH  12  19
BRANCH  16  20
ATOM     20  O   UNL     1       7.974   6.895  16.406  0.00  0.00    +0.000 OA
ATOM     21  C   UNL     1       7.605   7.705  17.519  0.00  0.00    +0.000 C 
ENDBRANCH  16  20
ENDBRANCH   1  14
TORSDOF 4
ENDMDL
MODEL 2
REMARK VINA RESULT:      -6.9      1.214      1.847
REMARK  Name = 
REMARK  7 active torsions:
REMARK  status: ('A' for Active; 'I' for Inactive)
REMARK    1  A    between atoms: C_1  and  O_2
REMARK    2  A    between atoms: O_2  and  C_3
REMARK    3  A    between atoms: C_5  and  N_6
REMARK    4  A    between atoms: C_7  and  C_9
REMARK    5  A    between atoms: C_14  and  C_15
REMARK    6  A    between atoms: C_17  and  O_18
REMARK    7  A    between atoms: O_18  and  C_19
REMARK                            x       y       z     vdW  Elec       q    Type
REMARK                         _______ _______ _______ _____ _____    ______ ____
ROOT
ATOM      1  N   UNL     1       4.252   4.046  17.623  0.00  0.00    +0.000 N 
ATOM      2  C   UNL     1       4.226   4.520  18.926  0.00  0.00    +0.000 C 
ATOM      3  O   UNL     1       4.978   5.355  19.412  0.00  0.00    +0.000 OA
ATOM      4  H   UNL     1       3.474   3.472  17.324  0.00  0.00    +0.000 HD
ENDROOT
BRANCH   2   5
ATOM      5  C   UNL     1       3.139   3.947  19.778  0.00  0.00    +0.000 A 
ATOM      6  C   UNL     1       1.885   4.586  19.793  0.00  0.00    +0.000 A 
ATOM      7  C   UNL     1       0.845   4.087  20.575  0.00  0.00    +0.000 A 
ATOM      8  C   UNL     1       1.038   2.935  21.332  0.00  0.00    +0.000 A 
ATOM      9  C   UNL     1       2.266   2.274  21.300  0.00  0.00    +0.000 A 
ATOM     10  C   UNL     1       3.333   2.768  20.529  0.00  0.00    +0.000 A 
ATOM     11  C   UNL     1       4.628   2.002  20.516  0.00  0.00    +0.000 C 
ENDBRANCH   2   5
BRANCH   1  14
ATOM     12  C   UNL     1       6.263   4.035  14.462  0.00  0.00    +0.000 A 
ATOM     13  C   UNL     1       5.293   3.690  15.407  0.00  0.00    +0.000 A 
ATOM     14  C   UNL     1       5.213   4.352  16.630  0.00  0.00    +0.000 A 
ATOM     15  C   UNL     1       6.115   5.392  16.893  0.00  0.00    +0.000 A 
ATOM     16  C   UNL     1       7.095   5.746  15.955  0.00  0.00    +0.000 A 
ATOM     17  C   UNL     1       7.171   5.057  14.743  0.00  0.00    +0.000 A 
BRANCH  12  19
ATOM     18  C   UNL     1       6.766   3.898  12.139  0.00  0.00    +0.000 C 
ATOM     19  O   UNL     1       6.214   3.304  13.304  0.00  0.00    +0.000 OA
ENDBRANCH  12  19
BRANCH  16  20
ATOM     20  O   UNL     1       7.913   6.778  16.334  0.00  0.00    +0.000 OA
ATOM     21  C   UNL     1       7.577   7.451  17.544  0.00  0.00    +0.000 C 
ENDBRANCH  16  20
ENDBRANCH   1  14
TORSDOF 4
ENDMDL
MODEL 3
REMARK VINA RESULT:      -6.9      1.286      1.426
REMARK  Name = 
REMARK  7 active torsions:
REMARK  status: ('A' for Active; 'I' for Inactive)
REMARK    1  A    between atoms: C_1  and  O_2
REMARK    2  A    between atoms: O_2  and  C_3
REMARK    3  A    between atoms: C_5  and  N_6
REMARK    4  A    between atoms: C_7  and  C_9
REMARK    5  A    between atoms: C_14  and  C_15
REMARK    6  A    between atoms: C_17  and  O_18
REMARK    7  A    between atoms: O_18  and  C_19
REMARK                            x       y       z     vdW  Elec       q    Type
REMARK                         _______ _______ _______ _____ _____    ______ ____
ROOT
ATOM      1  N   UNL     1       4.087   4.300  17.135  0.00  0.00    +0.000 N 
ATOM      2  C   UNL     1       4.179   3.819  18.433  0.00  0.00    +0.000 C 
ATOM      3  O   UNL     1       5.206   3.642  19.073  0.00  0.00    +0.000 OA
ATOM      4  H   UNL     1       3.164   4.537  16.794  0.00  0.00    +0.000 HD
ENDROOT
BRANCH   2   5
ATOM      5  C   UNL     1       2.864   3.527  19.085  0.00  0.00    +0.000 A 
ATOM      6  C   UNL     1       2.348   2.221  19.007  0.00  0.00    +0.000 A 
ATOM      7  C   UNL     1       1.126   1.906  19.598  0.00  0.00    +0.000 A 
ATOM      8  C   UNL     1       0.417   2.884  20.289  0.00  0.00    +0.000 A 
ATOM      9  C   UNL     1       0.934   4.176  20.400  0.00  0.00    +0.000 A 
ATOM     10  C   UNL     1       2.159   4.518  19.801  0.00  0.00    +0.000 A 
ATOM     11  C   UNL     1       2.678   5.920  19.971  0.00  0.00    +0.000 C 
ENDBRANCH   2   5
BRANCH   1  14
ATOM     12  C   UNL     1       6.426   4.259  14.209  0.00  0.00    +0.000 A 
ATOM     13  C   UNL     1       5.344   3.941  15.035  0.00  0.00    +0.000 A 
ATOM     14  C   UNL     1       5.163   4.581  16.259  0.00  0.00    +0.000 A 
ATOM     15  C   UNL     1       6.077   5.570  16.645  0.00  0.00    +0.000 A 
ATOM     16  C   UNL     1       7.168   5.896  15.827  0.00  0.00    +0.000 A 
ATOM     17  C   UNL     1       7.343   5.229  14.612  0.00  0.00    +0.000 A 
BRANCH  12  19
ATOM     18  C   UNL     1       5.253   3.420  12.314  0.00  0.00    +0.000 C 
ATOM     19  O   UNL     1       6.469   3.556  13.034  0.00  0.00    +0.000 OA
ENDBRANCH  12  19
BRANCH  16  20
ATOM     20  O   UNL     1       7.986   6.879  16.318  0.00  0.00    +0.000 OA
ATOM     21  C   UNL     1       7.585   7.497  17.537  0.00  0.00    +0.000 C 
ENDBRANCH  16  20
ENDBRANCH   1  14
TORSDOF 4
ENDMDL
MODEL 4
REMARK VINA RESULT:      -6.8      0.661      1.588
REMARK  Name = 
REMARK  7 active torsions:
REMARK  status: ('A' for Active; 'I' for Inactive)
REMARK    1  A    between atoms: C_1  and  O_2
REMARK    2  A    between atoms: O_2  and  C_3
REMARK    3  A    between atoms: C_5  and  N_6
REMARK    4  A    between atoms: C_7  and  C_9
REMARK    5  A    between atoms: C_14  and  C_15
REMARK    6  A    between atoms: C_17  and  O_18
REMARK    7  A    between atoms: O_18  and  C_19
REMARK                            x       y       z     vdW  Elec       q    Type
REMARK                         _______ _______ _______ _____ _____    ______ ____
ROOT
ATOM      1  N   UNL     1       4.556   3.930  17.976  0.00  0.00    +0.000 N 
ATOM      2  C   UNL     1       3.241   3.496  17.884  0.00  0.00    +0.000 C 
ATOM      3  O   UNL     1       2.616   3.279  16.855  0.00  0.00    +0.000 OA
ATOM      4  H   UNL     1       4.984   3.919  18.893  0.00  0.00    +0.000 HD
ENDROOT
BRANCH   2   5
ATOM      5  C   UNL     1       2.569   3.259  19.199  0.00  0.00    +0.000 A 
ATOM      6  C   UNL     1       1.241   3.693  19.367  0.00  0.00    +0.000 A 
ATOM      7  C   UNL     1       0.578   3.493  20.577  0.00  0.00    +0.000 A 
ATOM      8  C   UNL     1       1.225   2.843  21.623  0.00  0.00    +0.000 A 
ATOM      9  C   UNL     1       2.531   2.379  21.458  0.00  0.00    +0.000 A 
ATOM     10  C   UNL     1       3.223   2.581  20.250  0.00  0.00    +0.000 A 
ATOM     11  C   UNL     1       4.621   2.041  20.122  0.00  0.00    +0.000 C 
ENDBRANCH   2   5
BRANCH   1  14
ATOM     12  C   UNL     1       6.261   4.075  14.644  0.00  0.00    +0.000 A 
ATOM     13  C   UNL     1       5.406   3.661  15.668  0.00  0.00    +0.000 A 
ATOM     14  C   UNL     1       5.399   4.306  16.904  0.00  0.00    +0.000 A 
ATOM     15  C   UNL     1       6.254   5.399  17.098  0.00  0.00    +0.000 A 
ATOM     16  C   UNL     1       7.119   5.823  16.078  0.00  0.00    +0.000 A 
ATOM     17  C   UNL     1       7.125   5.151  14.854  0.00  0.00    +0.000 A 
BRANCH  12  19
ATOM     18  C   UNL     1       6.766   3.891  12.324  0.00  0.00    +0.000 C 
ATOM     19  O   UNL     1       6.150   3.353  13.484  0.00  0.00    +0.000 OA
ENDBRANCH  12  19
BRANCH  16  20
ATOM     20  O   UNL     1       7.902   6.902  16.395  0.00  0.00    +0.000 OA
ATOM     21  C   UNL     1       7.617   7.562  17.625  0.00  0.00    +0.000 C 
ENDBRANCH  16  20
ENDBRANCH   1  14
TORSDOF 4
ENDMDL
MODEL 5
REMARK VINA RESULT:      -6.8      0.163      2.790
REMARK  Name = 
REMARK  7 active torsions:
REMARK  status: ('A' for Active; 'I' for Inactive)
REMARK    1  A    between atoms: C_1  and  O_2
REMARK    2  A    between atoms: O_2  and  C_3
REMARK    3  A    between atoms: C_5  and  N_6
REMARK    4  A    between atoms: C_7  and  C_9
REMARK    5  A    between atoms: C_14  and  C_15
REMARK    6  A    between atoms: C_17  and  O_18
REMARK    7  A    between atoms: O_18  and  C_19
REMARK                            x       y       z     vdW  Elec       q    Type
REMARK                         _______ _______ _______ _____ _____    ______ ____
ROOT
ATOM      1  N   UNL     1       4.416   4.275  18.116  0.00  0.00    +0.000 N 
ATOM      2  C   UNL     1       3.870   3.016  18.323  0.00  0.00    +0.000 C 
ATOM      3  O   UNL     1       4.134   1.996  17.700  0.00  0.00    +0.000 OA
ATOM      4  H   UNL     1       4.214   4.986  18.806  0.00  0.00    +0.000 HD
ENDROOT
BRANCH   2   5
ATOM      5  C   UNL     1       2.884   2.941  19.445  0.00  0.00    +0.000 A 
ATOM      6  C   UNL     1       3.336   2.536  20.715  0.00  0.00    +0.000 A 
ATOM      7  C   UNL     1       2.450   2.450  21.788  0.00  0.00    +0.000 A 
ATOM      8  C   UNL     1       1.111   2.785  21.610  0.00  0.00    +0.000 A 
ATOM      9  C   UNL     1       0.658   3.218  20.364  0.00  0.00    +0.000 A 
ATOM     10  C   UNL     1       1.531   3.300  19.265  0.00  0.00    +0.000 A 
ATOM     11  C   UNL     1       0.991   3.794  17.950  0.00  0.00    +0.000 C 
ENDBRANCH   2   5
BRANCH   1  14
ATOM     12  C   UNL     1       7.114   5.987  16.160  0.00  0.00    +0.000 A 
ATOM     13  C   UNL     1       6.260   5.657  17.216  0.00  0.00    +0.000 A 
ATOM     14  C   UNL     1       5.305   4.650  17.081  0.00  0.00    +0.000 A 
ATOM     15  C   UNL     1       5.228   3.954  15.868  0.00  0.00    +0.000 A 
ATOM     16  C   UNL     1       6.077   4.277  14.799  0.00  0.00    +0.000 A 
ATOM     17  C   UNL     1       7.013   5.302  14.948  0.00  0.00    +0.000 A 
BRANCH  12  19
ATOM     18  C   UNL     1       7.720   7.814  17.561  0.00  0.00    +0.000 C 
ATOM     19  O   UNL     1       8.005   6.988  16.442  0.00  0.00    +0.000 OA
ENDBRANCH  12  19
BRANCH  16  20
ATOM     20  O   UNL     1       5.899   3.522  13.670  0.00  0.00    +0.000 OA
ATOM     21  C   UNL     1       6.709   3.850  12.545  0.00  0.00    +0.000 C 
ENDBRANCH  16  20
ENDBRANCH   1  14
TORSDOF 4
ENDMDL
MODEL 6
REMARK VINA RESULT:      -6.7      1.098      1.098
REMARK  Name = 
REMARK  7 active torsions:
REMARK  status: ('A' for Active; 'I' for Inactive)
REMARK    1  A    between atoms: C_1  and  O_2
REMARK    2  A    between atoms: O_2  and  C_3
REMARK    3  A    between atoms: C_5  and  N_6
REMARK    4  A    between atoms: C_7  and  C_9
REMARK    5  A    between atoms: C_14  and  C_15
REMARK    6  A    between atoms: C_17  and  O_18
REMARK    7  A    between atoms: O_18  and  C_19
REMARK                            x       y       z     vdW  Elec       q    Type
REMARK                         _______ _______ _______ _____ _____    ______ ____
ROOT
ATOM      1  N   UNL     1       4.229   3.982  17.453  0.00  0.00    +0.000 N 
ATOM      2  C   UNL     1       4.176   4.398  18.775  0.00  0.00    +0.000 C 
ATOM      3  O   UNL     1       4.924   5.201  19.316  0.00  0.00    +0.000 OA
ATOM      4  H   UNL     1       3.452   3.431  17.109  0.00  0.00    +0.000 HD
ENDROOT
BRANCH   2   5
ATOM      5  C   UNL     1       3.062   3.799  19.574  0.00  0.00    +0.000 A 
ATOM      6  C   UNL     1       3.351   3.268  20.844  0.00  0.00    +0.000 A 
ATOM      7  C   UNL     1       2.344   2.699  21.621  0.00  0.00    +0.000 A 
ATOM      8  C   UNL     1       1.036   2.671  21.147  0.00  0.00    +0.000 A 
ATOM      9  C   UNL     1       0.730   3.223  19.902  0.00  0.00    +0.000 A 
ATOM     10  C   UNL     1       1.734   3.791  19.097  0.00  0.00    +0.000 A 
ATOM     11  C   UNL     1       1.343   4.390  17.773  0.00  0.00    +0.000 C 
ENDBRANCH   2   5
BRANCH   1  14
ATOM     12  C   UNL     1       6.338   4.066  14.358  0.00  0.00    +0.000 A 
ATOM     13  C   UNL     1       5.343   3.688  15.263  0.00  0.00    +0.000 A 
ATOM     14  C   UNL     1       5.217   4.322  16.498  0.00  0.00    +0.000 A 
ATOM     15  C   UNL     1       6.097   5.366  16.813  0.00  0.00    +0.000 A 
ATOM     16  C   UNL     1       7.102   5.752  15.915  0.00  0.00    +0.000 A 
ATOM     17  C   UNL     1       7.224   5.091  14.690  0.00  0.00    +0.000 A 
BRANCH  12  19
ATOM     18  C   UNL     1       5.187   3.487  12.355  0.00  0.00    +0.000 C 
ATOM     19  O   UNL     1       6.335   3.361  13.183  0.00  0.00    +0.000 OA
ENDBRANCH  12  19
BRANCH  16  20
ATOM     20  O   UNL     1       7.895   6.784  16.343  0.00  0.00    +0.000 OA
ATOM     21  C   UNL     1       7.517   7.421  17.560  0.00  0.00    +0.000 C 
ENDBRANCH  16  20
ENDBRANCH   1  14
TORSDOF 4
ENDMDL
MODEL 7
REMARK VINA RESULT:      -6.7      1.317      3.110
REMARK  Name = 
REMARK  7 active torsions:
REMARK  status: ('A' for Active; 'I' for Inactive)
REMARK    1  A    between atoms: C_1  and  O_2
REMARK    2  A    between atoms: O_2  and  C_3
REMARK    3  A    between atoms: C_5  and  N_6
REMARK    4  A    between atoms: C_7  and  C_9
REMARK    5  A    between atoms: C_14  and  C_15
REMARK    6  A    between atoms: C_17  and  O_18
REMARK    7  A    between atoms: O_18  and  C_19
REMARK                            x       y       z     vdW  Elec       q    Type
REMARK                         _______ _______ _______ _____ _____    ______ ____
ROOT
ATOM      1  N   UNL     1       4.568   3.981  17.891  0.00  0.00    +0.000 N 
ATOM      2  C   UNL     1       3.400   4.606  18.302  0.00  0.00    +0.000 C 
ATOM      3  O   UNL     1       2.913   5.624  17.828  0.00  0.00    +0.000 OA
ATOM      4  H   UNL     1       4.763   3.065  18.276  0.00  0.00    +0.000 HD
ENDROOT
BRANCH   2   5
ATOM      5  C   UNL     1       2.686   3.920  19.423  0.00  0.00    +0.000 A 
ATOM      6  C   UNL     1       2.682   4.527  20.693  0.00  0.00    +0.000 A 
ATOM      7  C   UNL     1       2.030   3.921  21.766  0.00  0.00    +0.000 A 
ATOM      8  C   UNL     1       1.360   2.715  21.578  0.00  0.00    +0.000 A 
ATOM      9  C   UNL     1       1.330   2.121  20.316  0.00  0.00    +0.000 A 
ATOM     10  C   UNL     1       1.991   2.708  19.224  0.00  0.00    +0.000 A 
ATOM     11  C   UNL     1       1.907   2.033  17.882  0.00  0.00    +0.000 C 
ENDBRANCH   2   5
BRANCH   1  14
ATOM     12  C   UNL     1       7.216   5.947  16.115  0.00  0.00    +0.000 A 
ATOM     13  C   UNL     1       6.336   5.528  17.117  0.00  0.00    +0.000 A 
ATOM     14  C   UNL     1       5.479   4.448  16.914  0.00  0.00    +0.000 A 
ATOM     15  C   UNL     1       5.528   3.769  15.689  0.00  0.00    +0.000 A 
ATOM     16  C   UNL     1       6.405   4.182  14.675  0.00  0.00    +0.000 A 
ATOM     17  C   UNL     1       7.242   5.279  14.891  0.00  0.00    +0.000 A 
BRANCH  12  19
ATOM     18  C   UNL     1       7.605   7.774  17.593  0.00  0.00    +0.000 C 
ATOM     19  O   UNL     1       8.003   7.015  16.461  0.00  0.00    +0.000 OA
ENDBRANCH  12  19
BRANCH  16  20
ATOM     20  O   UNL     1       6.355   3.434  13.528  0.00  0.00    +0.000 OA
ATOM     21  C   UNL     1       5.238   3.651  12.670  0.00  0.00    +0.000 C 
ENDBRANCH  16  20
ENDBRANCH   1  14
TORSDOF 4
ENDMDL
MODEL 8
REMARK VINA RESULT:      -6.7      1.216      3.350
REMARK  Name = 
REMARK  7 active torsions:
REMARK  status: ('A' for Active; 'I' for Inactive)
REMARK    1  A    between atoms: C_1  and  O_2
REMARK    2  A    between atoms: O_2  and  C_3
REMARK    3  A    between atoms: C_5  and  N_6
REMARK    4  A    between atoms: C_7  and  C_9
REMARK    5  A    between atoms: C_14  and  C_15
REMARK    6  A    between atoms: C_17  and  O_18
REMARK    7  A    between atoms: O_18  and  C_19
REMARK                            x       y       z     vdW  Elec       q    Type
REMARK                         _______ _______ _______ _____ _____    ______ ____
ROOT
ATOM      1  N   UNL     1       4.227   4.249  17.683  0.00  0.00    +0.000 N 
ATOM      2  C   UNL     1       4.241   4.547  19.038  0.00  0.00    +0.000 C 
ATOM      3  O   UNL     1       5.054   5.253  19.620  0.00  0.00    +0.000 OA
ATOM      4  H   UNL     1       3.407   3.779  17.321  0.00  0.00    +0.000 HD
ENDROOT
BRANCH   2   5
ATOM      5  C   UNL     1       3.117   3.946  19.821  0.00  0.00    +0.000 A 
ATOM      6  C   UNL     1       1.856   4.570  19.779  0.00  0.00    +0.000 A 
ATOM      7  C   UNL     1       0.783   4.044  20.496  0.00  0.00    +0.000 A 
ATOM      8  C   UNL     1       0.950   2.883  21.244  0.00  0.00    +0.000 A 
ATOM      9  C   UNL     1       2.187   2.239  21.268  0.00  0.00    +0.000 A 
ATOM     10  C   UNL     1       3.287   2.758  20.563  0.00  0.00    +0.000 A 
ATOM     11  C   UNL     1       4.591   2.009  20.608  0.00  0.00    +0.000 C 
ENDBRANCH   2   5
BRANCH   1  14
ATOM     12  C   UNL     1       7.093   5.934  15.957  0.00  0.00    +0.000 A 
ATOM     13  C   UNL     1       6.151   5.615  16.938  0.00  0.00    +0.000 A 
ATOM     14  C   UNL     1       5.204   4.614  16.727  0.00  0.00    +0.000 A 
ATOM     15  C   UNL     1       5.225   3.912  15.514  0.00  0.00    +0.000 A 
ATOM     16  C   UNL     1       6.164   4.225  14.520  0.00  0.00    +0.000 A 
ATOM     17  C   UNL     1       7.092   5.245  14.744  0.00  0.00    +0.000 A 
BRANCH  12  19
ATOM     18  C   UNL     1       7.701   7.624  17.520  0.00  0.00    +0.000 C 
ATOM     19  O   UNL     1       7.964   6.931  16.309  0.00  0.00    +0.000 OA
ENDBRANCH  12  19
BRANCH  16  20
ATOM     20  O   UNL     1       6.077   3.465  13.383  0.00  0.00    +0.000 OA
ATOM     21  C   UNL     1       6.853   3.891  12.267  0.00  0.00    +0.000 C 
ENDBRANCH  16  20
ENDBRANCH   1  14
TORSDOF 4
ENDMDL
MODEL 9
REMARK VINA RESULT:      -6.6      2.861      6.899
REMARK  Name = 
REMARK  7 active torsions:
REMARK  status: ('A' for Active; 'I' for Inactive)
REMARK    1  A    between atoms: C_1  and  O_2
REMARK    2  A    between atoms: O_2  and  C_3
REMARK    3  A    between atoms: C_5  and  N_6
REMARK    4  A    between atoms: C_7  and  C_9
REMARK    5  A    between atoms: C_14  and  C_15
REMARK    6  A    between atoms: C_17  and  O_18
REMARK    7  A    between atoms: O_18  and  C_19
REMARK                            x       y       z     vdW  Elec       q    Type
REMARK                         _______ _______ _______ _____ _____    ______ ____
ROOT
ATOM      1  N   UNL     1       3.789   5.182  17.485  0.00  0.00    +0.000 N 
ATOM      2  C   UNL     1       5.024   4.550  17.480  0.00  0.00    +0.000 C 
ATOM      3  O   UNL     1       5.543   3.958  18.417  0.00  0.00    +0.000 OA
ATOM      4  H   UNL     1       3.427   5.496  16.594  0.00  0.00    +0.000 HD
ENDROOT
BRANCH   2   5
ATOM      5  C   UNL     1       5.746   4.601  16.171  0.00  0.00    +0.000 A 
ATOM      6  C   UNL     1       5.291   3.788  15.117  0.00  0.00    +0.000 A 
ATOM      7  C   UNL     1       5.936   3.802  13.881  0.00  0.00    +0.000 A 
ATOM      8  C   UNL     1       7.027   4.641  13.679  0.00  0.00    +0.000 A 
ATOM      9  C   UNL     1       7.468   5.476  14.706  0.00  0.00    +0.000 A 
ATOM     10  C   UNL     1       6.840   5.468  15.964  0.00  0.00    +0.000 A 
ATOM     11  C   UNL     1       7.346   6.404  17.028  0.00  0.00    +0.000 C 
ENDBRANCH   2   5
BRANCH   1  14
ATOM     12  C   UNL     1       1.449   4.535  20.338  0.00  0.00    +0.000 A 
ATOM     13  C   UNL     1       2.284   4.304  19.241  0.00  0.00    +0.000 A 
ATOM     14  C   UNL     1       2.933   5.356  18.598  0.00  0.00    +0.000 A 
ATOM     15  C   UNL     1       2.752   6.658  19.085  0.00  0.00    +0.000 A 
ATOM     16  C   UNL     1       1.914   6.903  20.182  0.00  0.00    +0.000 A 
ATOM     17  C   UNL     1       1.257   5.837  20.800  0.00  0.00    +0.000 A 
BRANCH  12  19
ATOM     18  C   UNL     1       1.727   2.571  21.655  0.00  0.00    +0.000 C 
ATOM     19  O   UNL     1       0.887   3.405  20.871  0.00  0.00    +0.000 OA
ENDBRANCH  12  19
BRANCH  16  20
ATOM     20  O   UNL     1       1.823   8.217  20.558  0.00  0.00    +0.000 OA
ATOM     21  C   UNL     1       0.705   8.578  21.363  0.00  0.00    +0.000 C 
ENDBRANCH  16  20
ENDBRANCH   1  14
TORSDOF 4
ENDMDL
