MODEL 1
REMARK VINA RESULT:      -8.8      0.000      0.000
REMARK  Name = 
REMARK  6 active torsions:
REMARK  status: ('A' for Active; 'I' for Inactive)
REMARK    1  A    between atoms: C_1  and  C_2
REMARK    2  A    between atoms: N_4  and  C_5
REMARK    3  A    between atoms: C_9  and  C_10
REMARK    4  A    between atoms: C_13  and  C_14
REMARK    5  A    between atoms: C_14  and  C_16
REMARK    6  A    between atoms: C_22  and  O_23
REMARK                            x       y       z     vdW  Elec       q    Type
REMARK                         _______ _______ _______ _____ _____    ______ ____
ROOT
ATOM      1  C   UNL     1       1.112   9.160  19.748  0.00  0.00    +0.000 A 
ATOM      2  C   UNL     1       1.222   9.664  18.465  0.00  0.00    +0.000 A 
ATOM      3  C   UNL     1       2.026   8.853  17.620  0.00  0.00    +0.000 A 
ATOM      4  C   UNL     1       2.578   7.778  18.290  0.00  0.00    +0.000 A 
ATOM      5  S   UNL     1       2.070   7.749  19.925  0.00  0.00    +0.000 S 
ENDROOT
BRANCH   1  10
ATOM      6  C   UNL     1      -0.873  11.534  21.945  0.00  0.00    +0.000 A 
ATOM      7  C   UNL     1      -0.995  10.759  23.100  0.00  0.00    +0.000 A 
ATOM      8  C   UNL     1      -0.503   9.457  23.137  0.00  0.00    +0.000 A 
ATOM      9  C   UNL     1       0.135   8.924  22.020  0.00  0.00    +0.000 A 
ATOM     10  C   UNL     1       0.285   9.683  20.849  0.00  0.00    +0.000 A 
ATOM     11  C   UNL     1      -0.263  10.977  20.813  0.00  0.00    +0.000 A 
BRANCH   6  15
ATOM     12  C   UNL     1      -1.319  15.277  22.012  0.00  0.00    +0.000 C 
ATOM     13  C   UNL     1      -0.546  13.991  22.112  0.00  0.00    +0.000 C 
ATOM     14  O   UNL     1       0.656  14.010  22.374  0.00  0.00    +0.000 OA
ATOM     15  N   UNL     1      -1.321  12.873  21.870  0.00  0.00    +0.000 N 
ATOM     16  H   UNL     1      -2.245  13.021  21.483  0.00  0.00    +0.000 HD
ENDBRANCH   6  15
ENDBRANCH   1  10
BRANCH   4  17
ATOM     17  C   UNL     1       3.464   6.732  17.802  0.00  0.00    +0.000 C 
ATOM     18  O   UNL     1       4.437   6.934  17.075  0.00  0.00    +0.000 OA
BRANCH  17  19
ATOM     19  C   UNL     1       3.246   5.327  18.227  0.00  0.00    +0.000 A 
ATOM     20  C   UNL     1       1.987   4.742  18.016  0.00  0.00    +0.000 A 
ATOM     21  C   UNL     1       1.771   3.422  18.399  0.00  0.00    +0.000 A 
ATOM     22  F   UNL     1       0.572   2.864  18.184  0.00  0.00    +0.000 F 
ATOM     23  C   UNL     1       2.787   2.680  18.987  0.00  0.00    +0.000 A 
ATOM     24  F   UNL     1       2.584   1.402  19.338  0.00  0.00    +0.000 F 
ATOM     25  C   UNL     1       4.027   3.259  19.219  0.00  0.00    +0.000 A 
ATOM     26  C   UNL     1       4.250   4.585  18.859  0.00  0.00    +0.000 A 
ATOM     27  F   UNL     1       5.438   5.139  19.143  0.00  0.00    +0.000 F 
BRANCH  25  28
ATOM     28  O   UNL     1       5.041   2.542  19.793  0.00  0.00    +0.000 OA
ATOM     29  H   UNL     1       4.821   1.594  19.720  0.00  0.00    +0.000 HD
ENDBRANCH  25  28
ENDBRANCH  17  19
ENDBRANCH   4  17
TORSDOF 5
ENDMDL
MODEL 2
REMARK VINA RESULT:      -8.7      2.674      3.281
REMARK  Name = 
REMARK  6 active torsions:
REMARK  status: ('A' for Active; 'I' for Inactive)
REMARK    1  A    between atoms: C_1  and  C_2
REMARK    2  A    between atoms: N_4  and  C_5
REMARK    3  A    between atoms: C_9  and  C_10
REMARK    4  A    between atoms: C_13  and  C_14
REMARK    5  A    between atoms: C_14  and  C_16
REMARK    6  A    between atoms: C_22  and  O_23
REMARK                            x       y       z     vdW  Elec       q    Type
REMARK                         _______ _______ _______ _____ _____    ______ ____
ROOT
ATOM      1  C   UNL     1       1.095   9.472  19.168  0.00  0.00    +0.000 A 
ATOM      2  C   UNL     1       1.228   8.677  20.292  0.00  0.00    +0.000 A 
ATOM      3  C   UNL     1       2.071   7.554  20.078  0.00  0.00    +0.000 A 
ATOM      4  C   UNL     1       2.514   7.469  18.772  0.00  0.00    +0.000 A 
ATOM      5  S   UNL     1       1.934   8.783  17.840  0.00  0.00    +0.000 S 
ENDROOT
BRANCH   1  10
ATOM      6  C   UNL     1      -1.638  12.032  18.550  0.00  0.00    +0.000 A 
ATOM      7  C   UNL     1      -0.878  13.202  18.518  0.00  0.00    +0.000 A 
ATOM      8  C   UNL     1       0.491  13.167  18.766  0.00  0.00    +0.000 A 
ATOM      9  C   UNL     1       1.118  11.953  19.031  0.00  0.00    +0.000 A 
ATOM     10  C   UNL     1       0.383  10.756  19.058  0.00  0.00    +0.000 A 
ATOM     11  C   UNL     1      -1.007  10.818  18.855  0.00  0.00    +0.000 A 
BRANCH   6  15
ATOM     12  C   UNL     1      -5.090  11.684  17.073  0.00  0.00    +0.000 C 
ATOM     13  C   UNL     1      -3.596  11.516  17.110  0.00  0.00    +0.000 C 
ATOM     14  O   UNL     1      -3.011  10.973  16.174  0.00  0.00    +0.000 OA
ATOM     15  N   UNL     1      -3.023  12.009  18.267  0.00  0.00    +0.000 N 
ATOM     16  H   UNL     1      -3.645  12.255  19.027  0.00  0.00    +0.000 HD
ENDBRANCH   6  15
ENDBRANCH   1  10
BRANCH   4  17
ATOM     17  C   UNL     1       3.370   6.474  18.142  0.00  0.00    +0.000 C 
ATOM     18  O   UNL     1       4.295   6.744  17.375  0.00  0.00    +0.000 OA
BRANCH  17  19
ATOM     19  C   UNL     1       3.183   5.037  18.461  0.00  0.00    +0.000 A 
ATOM     20  C   UNL     1       1.927   4.450  18.235  0.00  0.00    +0.000 A 
ATOM     21  C   UNL     1       1.740   3.101  18.518  0.00  0.00    +0.000 A 
ATOM     22  F   UNL     1       0.544   2.543  18.288  0.00  0.00    +0.000 F 
ATOM     23  C   UNL     1       2.781   2.331  19.021  0.00  0.00    +0.000 A 
ATOM     24  F   UNL     1       2.605   1.026  19.274  0.00  0.00    +0.000 F 
ATOM     25  C   UNL     1       4.018   2.910  19.267  0.00  0.00    +0.000 A 
ATOM     26  C   UNL     1       4.213   4.264  19.008  0.00  0.00    +0.000 A 
ATOM     27  F   UNL     1       5.400   4.813  19.305  0.00  0.00    +0.000 F 
BRANCH  25  28
ATOM     28  O   UNL     1       5.056   2.166  19.758  0.00  0.00    +0.000 OA
ATOM     29  H   UNL     1       5.803   2.238  19.135  0.00  0.00    +0.000 HD
ENDBRANCH  25  28
ENDBRANCH  17  19
ENDBRANCH   4  17
TORSDOF 5
ENDMDL
MODEL 3
REMARK VINA RESULT:      -8.7      1.211      1.215
REMARK  Name = 
REMARK  6 active torsions:
REMARK  status: ('A' for Active; 'I' for Inactive)
REMARK    1  A    between atoms: C_1  and  C_2
REMARK    2  A    between atoms: N_4  and  C_5
REMARK    3  A    between atoms: C_9  and  C_10
REMARK    4  A    between atoms: C_13  and  C_14
REMARK    5  A    between atoms: C_14  and  C_16
REMARK    6  A    between atoms: C_22  and  O_23
REMARK                            x       y       z     vdW  Elec       q    Type
REMARK                         _______ _______ _______ _____ _____    ______ ____
ROOT
ATOM      1  C   UNL     1       0.969   9.246  19.780  0.00  0.00    +0.000 A 
ATOM      2  C   UNL     1       1.026   9.720  18.482  0.00  0.00    +0.000 A 
ATOM      3  C   UNL     1       1.851   8.926  17.640  0.00  0.00    +0.000 A 
ATOM      4  C   UNL     1       2.468   7.898  18.325  0.00  0.00    +0.000 A 
ATOM      5  S   UNL     1       1.998   7.887  19.971  0.00  0.00    +0.000 S 
ENDROOT
BRANCH   1  10
ATOM      6  C   UNL     1      -1.198  11.535  21.893  0.00  0.00    +0.000 A 
ATOM      7  C   UNL     1      -1.146  10.866  23.117  0.00  0.00    +0.000 A 
ATOM      8  C   UNL     1      -0.476   9.650  23.233  0.00  0.00    +0.000 A 
ATOM      9  C   UNL     1       0.165   9.102  22.126  0.00  0.00    +0.000 A 
ATOM     10  C   UNL     1       0.141   9.757  20.885  0.00  0.00    +0.000 A 
ATOM     11  C   UNL     1      -0.583  10.958  20.774  0.00  0.00    +0.000 A 
BRANCH   6  15
ATOM     12  C   UNL     1      -3.566  14.457  21.619  0.00  0.00    +0.000 C 
ATOM     13  C   UNL     1      -3.178  13.036  21.925  0.00  0.00    +0.000 C 
ATOM     14  O   UNL     1      -4.024  12.235  22.317  0.00  0.00    +0.000 OA
ATOM     15  N   UNL     1      -1.832  12.789  21.732  0.00  0.00    +0.000 N 
ATOM     16  H   UNL     1      -1.226  13.587  21.590  0.00  0.00    +0.000 HD
ENDBRANCH   6  15
ENDBRANCH   1  10
BRANCH   4  17
ATOM     17  C   UNL     1       3.394   6.882  17.843  0.00  0.00    +0.000 C 
ATOM     18  O   UNL     1       4.376   7.121  17.141  0.00  0.00    +0.000 OA
BRANCH  17  19
ATOM     19  C   UNL     1       3.206   5.466  18.247  0.00  0.00    +0.000 A 
ATOM     20  C   UNL     1       1.963   4.855  18.015  0.00  0.00    +0.000 A 
ATOM     21  C   UNL     1       1.775   3.524  18.376  0.00  0.00    +0.000 A 
ATOM     22  F   UNL     1       0.592   2.941  18.141  0.00  0.00    +0.000 F 
ATOM     23  C   UNL     1       2.803   2.798  18.964  0.00  0.00    +0.000 A 
ATOM     24  F   UNL     1       2.628   1.511  19.295  0.00  0.00    +0.000 F 
ATOM     25  C   UNL     1       4.027   3.404  19.217  0.00  0.00    +0.000 A 
ATOM     26  C   UNL     1       4.221   4.740  18.878  0.00  0.00    +0.000 A 
ATOM     27  F   UNL     1       5.392   5.318  19.182  0.00  0.00    +0.000 F 
BRANCH  25  28
ATOM     28  O   UNL     1       5.052   2.703  19.791  0.00  0.00    +0.000 OA
ATOM     29  H   UNL     1       5.842   2.804  19.228  0.00  0.00    +0.000 HD
ENDBRANCH  25  28
ENDBRANCH  17  19
ENDBRANCH   4  17
TORSDOF 5
ENDMDL
MODEL 4
REMARK VINA RESULT:      -8.7      4.660      8.640
REMARK  Name = 
REMARK  6 active torsions:
REMARK  status: ('A' for Active; 'I' for Inactive)
REMARK    1  A    between atoms: C_1  and  C_2
REMARK    2  A    between atoms: N_4  and  C_5
REMARK    3  A    between atoms: C_9  and  C_10
REMARK    4  A    between atoms: C_13  and  C_14
REMARK    5  A    between atoms: C_14  and  C_16
REMARK    6  A    between atoms: C_22  and  O_23
REMARK                            x       y       z     vdW  Elec       q    Type
REMARK                         _______ _______ _______ _____ _____    ______ ____
ROOT
ATOM      1  C   UNL     1       1.810   7.488  20.113  0.00  0.00    +0.000 A 
ATOM      2  C   UNL     1       1.163   8.047  21.200  0.00  0.00    +0.000 A 
ATOM      3  C   UNL     1       0.508   9.268  20.885  0.00  0.00    +0.000 A 
ATOM      4  C   UNL     1       0.723   9.659  19.577  0.00  0.00    +0.000 A 
ATOM      5  S   UNL     1       1.682   8.511  18.743  0.00  0.00    +0.000 S 
ENDROOT
BRANCH   1  10
ATOM      6  C   UNL     1       4.139   4.696  19.025  0.00  0.00    +0.000 A 
ATOM      7  C   UNL     1       3.575   3.620  19.714  0.00  0.00    +0.000 A 
ATOM      8  C   UNL     1       2.499   3.815  20.576  0.00  0.00    +0.000 A 
ATOM      9  C   UNL     1       1.964   5.089  20.742  0.00  0.00    +0.000 A 
ATOM     10  C   UNL     1       2.500   6.188  20.054  0.00  0.00    +0.000 A 
ATOM     11  C   UNL     1       3.619   5.981  19.227  0.00  0.00    +0.000 A 
BRANCH   6  15
ATOM     12  C   UNL     1       7.432   4.602  17.191  0.00  0.00    +0.000 C 
ATOM     13  C   UNL     1       6.537   4.796  18.384  0.00  0.00    +0.000 C 
ATOM     14  O   UNL     1       7.014   5.133  19.466  0.00  0.00    +0.000 OA
ATOM     15  N   UNL     1       5.206   4.545  18.110  0.00  0.00    +0.000 N 
ATOM     16  H   UNL     1       4.988   4.095  17.230  0.00  0.00    +0.000 HD
ENDBRANCH   6  15
ENDBRANCH   1  10
BRANCH   4  17
ATOM     17  C   UNL     1       0.252  10.840  18.869  0.00  0.00    +0.000 C 
ATOM     18  O   UNL     1       0.956  11.817  18.611  0.00  0.00    +0.000 OA
BRANCH  17  19
ATOM     19  C   UNL     1      -1.143  10.886  18.363  0.00  0.00    +0.000 A 
ATOM     20  C   UNL     1      -1.500  10.062  17.284  0.00  0.00    +0.000 A 
ATOM     21  C   UNL     1      -2.807  10.085  16.806  0.00  0.00    +0.000 A 
ATOM     22  F   UNL     1      -3.146   9.287  15.785  0.00  0.00    +0.000 F 
ATOM     23  C   UNL     1      -3.758  10.916  17.385  0.00  0.00    +0.000 A 
ATOM     24  F   UNL     1      -5.021  10.923  16.937  0.00  0.00    +0.000 F 
ATOM     25  C   UNL     1      -3.405  11.749  18.438  0.00  0.00    +0.000 A 
ATOM     26  C   UNL     1      -2.096  11.750  18.912  0.00  0.00    +0.000 A 
ATOM     27  F   UNL     1      -1.766  12.603  19.892  0.00  0.00    +0.000 F 
BRANCH  25  28
ATOM     28  O   UNL     1      -4.329  12.571  19.023  0.00  0.00    +0.000 OA
ATOM     29  H   UNL     1      -4.768  13.084  18.319  0.00  0.00    +0.000 HD
ENDBRANCH  25  28
ENDBRANCH  17  19
ENDBRANCH   4  17
TORSDOF 5
ENDMDL
MODEL 5
REMARK VINA RESULT:      -8.6      4.669      8.964
REMARK  Name = 
REMARK  6 active torsions:
REMARK  status: ('A' for Active; 'I' for Inactive)
REMARK    1  A    between atoms: C_1  and  C_2
REMARK    2  A    between atoms: N_4  and  C_5
REMARK    3  A    between atoms: C_9  and  C_10
REMARK    4  A    between atoms: C_13  and  C_14
REMARK    5  A    between atoms: C_14  and  C_16
REMARK    6  A    between atoms: C_22  and  O_23
REMARK                            x       y       z     vdW  Elec       q    Type
REMARK                         _______ _______ _______ _____ _____    ______ ____
ROOT
ATOM      1  C   UNL     1       2.507   7.111  18.989  0.00  0.00    +0.000 A 
ATOM      2  C   UNL     1       1.930   7.362  20.221  0.00  0.00    +0.000 A 
ATOM      3  C   UNL     1       1.250   8.609  20.269  0.00  0.00    +0.000 A 
ATOM      4  C   UNL     1       1.377   9.324  19.093  0.00  0.00    +0.000 A 
ATOM      5  S   UNL     1       2.284   8.446  17.936  0.00  0.00    +0.000 S 
ENDROOT
BRANCH   1  10
ATOM      6  C   UNL     1       4.514   4.654  16.907  0.00  0.00    +0.000 A 
ATOM      7  C   UNL     1       4.223   3.466  17.577  0.00  0.00    +0.000 A 
ATOM      8  C   UNL     1       3.445   3.474  18.732  0.00  0.00    +0.000 A 
ATOM      9  C   UNL     1       2.934   4.674  19.216  0.00  0.00    +0.000 A 
ATOM     10  C   UNL     1       3.199   5.885  18.557  0.00  0.00    +0.000 A 
ATOM     11  C   UNL     1       4.028   5.864  17.422  0.00  0.00    +0.000 A 
BRANCH   6  15
ATOM     12  C   UNL     1       7.156   4.819  14.221  0.00  0.00    +0.000 C 
ATOM     13  C   UNL     1       6.646   4.716  15.632  0.00  0.00    +0.000 C 
ATOM     14  O   UNL     1       7.436   4.646  16.572  0.00  0.00    +0.000 OA
ATOM     15  N   UNL     1       5.266   4.695  15.710  0.00  0.00    +0.000 N 
ATOM     16  H   UNL     1       4.752   4.568  14.847  0.00  0.00    +0.000 HD
ENDBRANCH   6  15
ENDBRANCH   1  10
BRANCH   4  17
ATOM     17  C   UNL     1       0.854  10.636  18.741  0.00  0.00    +0.000 C 
ATOM     18  O   UNL     1       1.552  11.637  18.579  0.00  0.00    +0.000 OA
BRANCH  17  19
ATOM     19  C   UNL     1      -0.601  10.807  18.500  0.00  0.00    +0.000 A 
ATOM     20  C   UNL     1      -1.228   9.999  17.538  0.00  0.00    +0.000 A 
ATOM     21  C   UNL     1      -2.594  10.140  17.310  0.00  0.00    +0.000 A 
ATOM     22  F   UNL     1      -3.191   9.358  16.401  0.00  0.00    +0.000 F 
ATOM     23  C   UNL     1      -3.339  11.071  18.023  0.00  0.00    +0.000 A 
ATOM     24  F   UNL     1      -4.658  11.192  17.817  0.00  0.00    +0.000 F 
ATOM     25  C   UNL     1      -2.720  11.887  18.960  0.00  0.00    +0.000 A 
ATOM     26  C   UNL     1      -1.351  11.771  19.183  0.00  0.00    +0.000 A 
ATOM     27  F   UNL     1      -0.766  12.608  20.052  0.00  0.00    +0.000 F 
BRANCH  25  28
ATOM     28  O   UNL     1      -3.438  12.807  19.674  0.00  0.00    +0.000 OA
ATOM     29  H   UNL     1      -4.385  12.587  19.586  0.00  0.00    +0.000 HD
ENDBRANCH  25  28
ENDBRANCH  17  19
ENDBRANCH   4  17
TORSDOF 5
ENDMDL
MODEL 6
REMARK VINA RESULT:      -8.5      3.006      4.164
REMARK  Name = 
REMARK  6 active torsions:
REMARK  status: ('A' for Active; 'I' for Inactive)
REMARK    1  A    between atoms: C_1  and  C_2
REMARK    2  A    between atoms: N_4  and  C_5
REMARK    3  A    between atoms: C_9  and  C_10
REMARK    4  A    between atoms: C_13  and  C_14
REMARK    5  A    between atoms: C_14  and  C_16
REMARK    6  A    between atoms: C_22  and  O_23
REMARK                            x       y       z     vdW  Elec       q    Type
REMARK                         _______ _______ _______ _____ _____    ______ ____
ROOT
ATOM      1  C   UNL     1       1.291   9.062  19.030  0.00  0.00    +0.000 A 
ATOM      2  C   UNL     1       1.990   8.880  17.850  0.00  0.00    +0.000 A 
ATOM      3  C   UNL     1       2.759   7.685  17.842  0.00  0.00    +0.000 A 
ATOM      4  C   UNL     1       2.692   7.007  19.044  0.00  0.00    +0.000 A 
ATOM      5  S   UNL     1       1.658   7.813  20.146  0.00  0.00    +0.000 S 
ENDROOT
BRANCH   1  10
ATOM      6  C   UNL     1      -1.531  11.576  18.695  0.00  0.00    +0.000 A 
ATOM      7  C   UNL     1      -1.282  12.379  19.808  0.00  0.00    +0.000 A 
ATOM      8  C   UNL     1      -0.256  12.063  20.696  0.00  0.00    +0.000 A 
ATOM      9  C   UNL     1       0.544  10.949  20.464  0.00  0.00    +0.000 A 
ATOM     10  C   UNL     1       0.327  10.129  19.345  0.00  0.00    +0.000 A 
ATOM     11  C   UNL     1      -0.746  10.434  18.488  0.00  0.00    +0.000 A 
BRANCH   6  15
ATOM     12  C   UNL     1      -4.523  11.662  16.401  0.00  0.00    +0.000 C 
ATOM     13  C   UNL     1      -3.673  11.124  17.518  0.00  0.00    +0.000 C 
ATOM     14  O   UNL     1      -4.024  10.119  18.134  0.00  0.00    +0.000 OA
ATOM     15  N   UNL     1      -2.535  11.875  17.744  0.00  0.00    +0.000 N 
ATOM     16  H   UNL     1      -2.474  12.777  17.289  0.00  0.00    +0.000 HD
ENDBRANCH   6  15
ENDBRANCH   1  10
BRANCH   4  17
ATOM     17  C   UNL     1       3.337   5.768  19.451  0.00  0.00    +0.000 C 
ATOM     18  O   UNL     1       2.878   4.993  20.291  0.00  0.00    +0.000 OA
BRANCH  17  19
ATOM     19  C   UNL     1       4.604   5.350  18.799  0.00  0.00    +0.000 A 
ATOM     20  C   UNL     1       5.822   5.789  19.342  0.00  0.00    +0.000 A 
ATOM     21  C   UNL     1       7.018   5.396  18.749  0.00  0.00    +0.000 A 
ATOM     22  F   UNL     1       8.179   5.806  19.278  0.00  0.00    +0.000 F 
ATOM     23  C   UNL     1       7.017   4.578  17.626  0.00  0.00    +0.000 A 
ATOM     24  F   UNL     1       8.170   4.184  17.067  0.00  0.00    +0.000 F 
ATOM     25  C   UNL     1       5.815   4.159  17.072  0.00  0.00    +0.000 A 
ATOM     26  C   UNL     1       4.611   4.562  17.644  0.00  0.00    +0.000 A 
ATOM     27  F   UNL     1       3.463   4.191  17.058  0.00  0.00    +0.000 F 
BRANCH  25  28
ATOM     28  O   UNL     1       5.794   3.350  15.969  0.00  0.00    +0.000 OA
ATOM     29  H   UNL     1       5.106   3.682  15.362  0.00  0.00    +0.000 HD
ENDBRANCH  25  28
ENDBRANCH  17  19
ENDBRANCH   4  17
TORSDOF 5
ENDMDL
MODEL 7
REMARK VINA RESULT:      -8.4      1.670      2.198
REMARK  Name = 
REMARK  6 active torsions:
REMARK  status: ('A' for Active; 'I' for Inactive)
REMARK    1  A    between atoms: C_1  and  C_2
REMARK    2  A    between atoms: N_4  and  C_5
REMARK    3  A    between atoms: C_9  and  C_10
REMARK    4  A    between atoms: C_13  and  C_14
REMARK    5  A    between atoms: C_14  and  C_16
REMARK    6  A    between atoms: C_22  and  O_23
REMARK                            x       y       z     vdW  Elec       q    Type
REMARK                         _______ _______ _______ _____ _____    ______ ____
ROOT
ATOM      1  C   UNL     1       1.094   9.080  19.795  0.00  0.00    +0.000 A 
ATOM      2  C   UNL     1       1.265   9.589  18.520  0.00  0.00    +0.000 A 
ATOM      3  C   UNL     1       2.049   8.745  17.689  0.00  0.00    +0.000 A 
ATOM      4  C   UNL     1       2.525   7.637  18.363  0.00  0.00    +0.000 A 
ATOM      5  S   UNL     1       1.972   7.619  19.983  0.00  0.00    +0.000 S 
ENDROOT
BRANCH   1  10
ATOM      6  C   UNL     1      -1.106  11.438  21.796  0.00  0.00    +0.000 A 
ATOM      7  C   UNL     1      -1.025  10.843  23.056  0.00  0.00    +0.000 A 
ATOM      8  C   UNL     1      -0.325   9.652  23.235  0.00  0.00    +0.000 A 
ATOM      9  C   UNL     1       0.318   9.055  22.155  0.00  0.00    +0.000 A 
ATOM     10  C   UNL     1       0.266   9.636  20.878  0.00  0.00    +0.000 A 
ATOM     11  C   UNL     1      -0.488  10.811  20.705  0.00  0.00    +0.000 A 
BRANCH   6  15
ATOM     12  C   UNL     1      -3.521  14.319  21.504  0.00  0.00    +0.000 C 
ATOM     13  C   UNL     1      -3.074  12.949  21.933  0.00  0.00    +0.000 C 
ATOM     14  O   UNL     1      -3.840  12.214  22.554  0.00  0.00    +0.000 OA
ATOM     15  N   UNL     1      -1.771  12.665  21.569  0.00  0.00    +0.000 N 
ATOM     16  H   UNL     1      -1.203  13.432  21.232  0.00  0.00    +0.000 HD
ENDBRANCH   6  15
ENDBRANCH   1  10
BRANCH   4  17
ATOM     17  C   UNL     1       3.369   6.550  17.888  0.00  0.00    +0.000 C 
ATOM     18  O   UNL     1       4.340   6.702  17.147  0.00  0.00    +0.000 OA
BRANCH  17  19
ATOM     19  C   UNL     1       3.106   5.162  18.346  0.00  0.00    +0.000 A 
ATOM     20  C   UNL     1       4.092   4.498  19.094  0.00  0.00    +0.000 A 
ATOM     21  C   UNL     1       3.856   3.201  19.541  0.00  0.00    +0.000 A 
ATOM     22  F   UNL     1       4.793   2.577  20.266  0.00  0.00    +0.000 F 
ATOM     23  C   UNL     1       2.658   2.560  19.252  0.00  0.00    +0.000 A 
ATOM     24  F   UNL     1       2.423   1.318  19.699  0.00  0.00    +0.000 F 
ATOM     25  C   UNL     1       1.689   3.203  18.494  0.00  0.00    +0.000 A 
ATOM     26  C   UNL     1       1.921   4.493  18.024  0.00  0.00    +0.000 A 
ATOM     27  F   UNL     1       0.994   5.072  17.248  0.00  0.00    +0.000 F 
BRANCH  25  28
ATOM     28  O   UNL     1       0.502   2.588  18.204  0.00  0.00    +0.000 OA
ATOM     29  H   UNL     1       0.169   2.171  19.020  0.00  0.00    +0.000 HD
ENDBRANCH  25  28
ENDBRANCH  17  19
ENDBRANCH   4  17
TORSDOF 5
ENDMDL
MODEL 8
REMARK VINA RESULT:      -8.4      1.814      2.367
REMARK  Name = 
REMARK  6 active torsions:
REMARK  status: ('A' for Active; 'I' for Inactive)
REMARK    1  A    between atoms: C_1  and  C_2
REMARK    2  A    between atoms: N_4  and  C_5
REMARK    3  A    between atoms: C_9  and  C_10
REMARK    4  A    between atoms: C_13  and  C_14
REMARK    5  A    between atoms: C_14  and  C_16
REMARK    6  A    between atoms: C_22  and  O_23
REMARK                            x       y       z     vdW  Elec       q    Type
REMARK                         _______ _______ _______ _____ _____    ______ ____
ROOT
ATOM      1  C   UNL     1       0.628   9.638  20.049  0.00  0.00    +0.000 A 
ATOM      2  C   UNL     1       0.892   8.659  20.989  0.00  0.00    +0.000 A 
ATOM      3  C   UNL     1       1.765   7.648  20.504  0.00  0.00    +0.000 A 
ATOM      4  C   UNL     1       2.098   7.833  19.176  0.00  0.00    +0.000 A 
ATOM      5  S   UNL     1       1.380   9.258  18.556  0.00  0.00    +0.000 S 
ENDROOT
BRANCH   1  10
ATOM      6  C   UNL     1      -1.651  12.260  21.577  0.00  0.00    +0.000 A 
ATOM      7  C   UNL     1      -1.892  13.061  20.459  0.00  0.00    +0.000 A 
ATOM      8  C   UNL     1      -1.263  12.794  19.245  0.00  0.00    +0.000 A 
ATOM      9  C   UNL     1      -0.400  11.707  19.135  0.00  0.00    +0.000 A 
ATOM     10  C   UNL     1      -0.148  10.875  20.237  0.00  0.00    +0.000 A 
ATOM     11  C   UNL     1      -0.752  11.190  21.468  0.00  0.00    +0.000 A 
BRANCH   6  15
ATOM     12  C   UNL     1      -4.043  12.799  24.441  0.00  0.00    +0.000 C 
ATOM     13  C   UNL     1      -3.661  12.502  23.017  0.00  0.00    +0.000 C 
ATOM     14  O   UNL     1      -4.531  12.309  22.171  0.00  0.00    +0.000 OA
ATOM     15  N   UNL     1      -2.294  12.466  22.819  0.00  0.00    +0.000 N 
ATOM     16  H   UNL     1      -1.703  12.456  23.642  0.00  0.00    +0.000 HD
ENDBRANCH   6  15
ENDBRANCH   1  10
BRANCH   4  17
ATOM     17  C   UNL     1       2.942   7.025  18.307  0.00  0.00    +0.000 C 
ATOM     18  O   UNL     1       3.664   7.486  17.423  0.00  0.00    +0.000 OA
BRANCH  17  19
ATOM     19  C   UNL     1       3.002   5.555  18.501  0.00  0.00    +0.000 A 
ATOM     20  C   UNL     1       1.869   4.784  18.195  0.00  0.00    +0.000 A 
ATOM     21  C   UNL     1       1.915   3.402  18.361  0.00  0.00    +0.000 A 
ATOM     22  F   UNL     1       0.837   2.669  18.055  0.00  0.00    +0.000 F 
ATOM     23  C   UNL     1       3.068   2.783  18.827  0.00  0.00    +0.000 A 
ATOM     24  F   UNL     1       3.118   1.450  18.968  0.00  0.00    +0.000 F 
ATOM     25  C   UNL     1       4.183   3.542  19.152  0.00  0.00    +0.000 A 
ATOM     26  C   UNL     1       4.144   4.927  19.010  0.00  0.00    +0.000 A 
ATOM     27  F   UNL     1       5.214   5.643  19.383  0.00  0.00    +0.000 F 
BRANCH  25  28
ATOM     28  O   UNL     1       5.328   2.949  19.609  0.00  0.00    +0.000 OA
ATOM     29  H   UNL     1       5.286   1.999  19.389  0.00  0.00    +0.000 HD
ENDBRANCH  25  28
ENDBRANCH  17  19
ENDBRANCH   4  17
TORSDOF 5
ENDMDL
MODEL 9
REMARK VINA RESULT:      -8.4      1.213      1.862
REMARK  Name = 
REMARK  6 active torsions:
REMARK  status: ('A' for Active; 'I' for Inactive)
REMARK    1  A    between atoms: C_1  and  C_2
REMARK    2  A    between atoms: N_4  and  C_5
REMARK    3  A    between atoms: C_9  and  C_10
REMARK    4  A    between atoms: C_13  and  C_14
REMARK    5  A    between atoms: C_14  and  C_16
REMARK    6  A    between atoms: C_22  and  O_23
REMARK                            x       y       z     vdW  Elec       q    Type
REMARK                         _______ _______ _______ _____ _____    ______ ____
ROOT
ATOM      1  C   UNL     1       1.156   9.081  19.746  0.00  0.00    +0.000 A 
ATOM      2  C   UNL     1       1.343   9.571  18.466  0.00  0.00    +0.000 A 
ATOM      3  C   UNL     1       2.114   8.702  17.649  0.00  0.00    +0.000 A 
ATOM      4  C   UNL     1       2.565   7.593  18.338  0.00  0.00    +0.000 A 
ATOM      5  S   UNL     1       2.005   7.606  19.956  0.00  0.00    +0.000 S 
ENDROOT
BRANCH   1  10
ATOM      6  C   UNL     1      -0.774  11.588  21.842  0.00  0.00    +0.000 A 
ATOM      7  C   UNL     1      -0.937  10.854  23.018  0.00  0.00    +0.000 A 
ATOM      8  C   UNL     1      -0.491   9.538  23.101  0.00  0.00    +0.000 A 
ATOM      9  C   UNL     1       0.143   8.949  22.011  0.00  0.00    +0.000 A 
ATOM     10  C   UNL     1       0.334   9.666  20.819  0.00  0.00    +0.000 A 
ATOM     11  C   UNL     1      -0.169  10.976  20.736  0.00  0.00    +0.000 A 
BRANCH   6  15
ATOM     12  C   UNL     1      -1.103  15.344  21.816  0.00  0.00    +0.000 C 
ATOM     13  C   UNL     1      -0.377  14.037  21.979  0.00  0.00    +0.000 C 
ATOM     14  O   UNL     1       0.810  14.024  22.298  0.00  0.00    +0.000 OA
ATOM     15  N   UNL     1      -1.175  12.938  21.719  0.00  0.00    +0.000 N 
ATOM     16  H   UNL     1      -2.074  13.107  21.285  0.00  0.00    +0.000 HD
ENDBRANCH   6  15
ENDBRANCH   1  10
BRANCH   4  17
ATOM     17  C   UNL     1       3.390   6.484  17.880  0.00  0.00    +0.000 C 
ATOM     18  O   UNL     1       4.368   6.609  17.143  0.00  0.00    +0.000 OA
BRANCH  17  19
ATOM     19  C   UNL     1       3.098   5.108  18.353  0.00  0.00    +0.000 A 
ATOM     20  C   UNL     1       4.068   4.431  19.110  0.00  0.00    +0.000 A 
ATOM     21  C   UNL     1       3.804   3.144  19.570  0.00  0.00    +0.000 A 
ATOM     22  F   UNL     1       4.727   2.508  20.304  0.00  0.00    +0.000 F 
ATOM     23  C   UNL     1       2.594   2.525  19.286  0.00  0.00    +0.000 A 
ATOM     24  F   UNL     1       2.333   1.293  19.745  0.00  0.00    +0.000 F 
ATOM     25  C   UNL     1       1.640   3.180  18.518  0.00  0.00    +0.000 A 
ATOM     26  C   UNL     1       1.900   4.459  18.035  0.00  0.00    +0.000 A 
ATOM     27  F   UNL     1       0.987   5.049  17.250  0.00  0.00    +0.000 F 
BRANCH  25  28
ATOM     28  O   UNL     1       0.441   2.587  18.231  0.00  0.00    +0.000 OA
ATOM     29  H   UNL     1       0.230   2.766  17.296  0.00  0.00    +0.000 HD
ENDBRANCH  25  28
ENDBRANCH  17  19
ENDBRANCH   4  17
TORSDOF 5
ENDMDL
