MODEL 1
REMARK VINA RESULT:      -8.3      0.000      0.000
REMARK  Name = 
REMARK  11 active torsions:
REMARK  status: ('A' for Active; 'I' for Inactive)
REMARK    1  A    between atoms: C_1  and  C_2
REMARK    2  A    between atoms: C_2  and  C_3
REMARK    3  A    between atoms: C_3  and  N_4
REMARK    4  A    between atoms: C_9  and  C_10
REMARK    5  A    between atoms: C_12  and  C_13
REMARK    6  A    between atoms: N_14  and  C_15
REMARK    7  A    between atoms: C_15  and  C_16
REMARK    8  A    between atoms: N_18  and  C_19
REMARK    9  A    between atoms: N_29  and  C_30
REMARK   10  A    between atoms: C_30  and  C_31
REMARK   11  A    between atoms: C_31  and  C_32
REMARK                            x       y       z     vdW  Elec       q    Type
REMARK                         _______ _______ _______ _____ _____    ______ ____
ROOT
ATOM      1  N   UNL     1       4.962   5.021  16.791  0.00  0.00    +0.000 N 
ATOM      2  C   UNL     1       4.537   6.326  16.969  0.00  0.00    +0.000 A 
ATOM      3  O   UNL     1       4.912   7.297  16.276  0.00  0.00    +0.000 OA
ATOM      4  C   UNL     1       3.635   6.481  18.038  0.00  0.00    +0.000 A 
ATOM      5  N   UNL     1       2.951   7.573  18.468  0.00  0.00    +0.000 N 
ATOM      6  C   UNL     1       2.307   7.228  19.632  0.00  0.00    +0.000 A 
ATOM      7  N   UNL     1       2.482   5.940  19.901  0.00  0.00    +0.000 NA
ATOM      8  C   UNL     1       3.266   5.469  18.877  0.00  0.00    +0.000 A 
ATOM      9  N   UNL     1       3.652   4.165  18.628  0.00  0.00    +0.000 N 
ATOM     10  C   UNL     1       4.494   3.906  17.530  0.00  0.00    +0.000 A 
ATOM     11  O   UNL     1       4.828   2.766  17.197  0.00  0.00    +0.000 OA
ATOM     12  H   UNL     1       2.951   8.500  18.062  0.00  0.00    +0.000 HD
ENDROOT
BRANCH   6  13
ATOM     13  C   UNL     1       1.529   8.252  20.411  0.00  0.00    +0.000 A 
ATOM     14  C   UNL     1       0.897   8.075  21.658  0.00  0.00    +0.000 A 
ATOM     15  C   UNL     1       0.324   9.299  21.956  0.00  0.00    +0.000 A 
ATOM     16  C   UNL     1      -0.349   9.775  23.186  0.00  0.00    +0.000 C 
ATOM     17  N   UNL     1       0.501  10.070  20.830  0.00  0.00    +0.000 N 
ATOM     18  N   UNL     1       1.398   9.515  19.979  0.00  0.00    +0.000 NA
BRANCH  17  19
ATOM     19  C   UNL     1      -0.102  11.366  20.519  0.00  0.00    +0.000 C 
BRANCH  19  20
ATOM     20  C   UNL     1      -0.777  11.442  19.165  0.00  0.00    +0.000 C 
ATOM     21  O   UNL     1      -0.439  12.321  18.371  0.00  0.00    +0.000 OA
ATOM     22  N   UNL     1      -1.763  10.492  18.889  0.00  0.00    +0.000 N 
ATOM     23  H   UNL     1      -2.167   9.997  19.676  0.00  0.00    +0.000 HD
BRANCH  22  24
ATOM     24  C   UNL     1      -2.443  10.434  17.649  0.00  0.00    +0.000 A 
ATOM     25  C   UNL     1      -3.645  11.122  17.456  0.00  0.00    +0.000 A 
ATOM     26  C   UNL     1      -4.272  11.133  16.212  0.00  0.00    +0.000 A 
ATOM     27  C   UNL     1      -3.706  10.437  15.158  0.00  0.00    +0.000 A 
ATOM     28  F   UNL     1      -4.291  10.482  13.956  0.00  0.00    +0.000 F 
ATOM     29  C   UNL     1      -2.534   9.712  15.331  0.00  0.00    +0.000 A 
ATOM     30  C   UNL     1      -1.903   9.707  16.578  0.00  0.00    +0.000 A 
ENDBRANCH  22  24
ENDBRANCH  19  20
ENDBRANCH  17  19
ENDBRANCH   6  13
BRANCH   1  31
ATOM     31  C   UNL     1       5.919   4.738  15.722  0.00  0.00    +0.000 C 
BRANCH  31  33
ATOM     32  C   UNL     1       6.163   3.685  13.443  0.00  0.00    +0.000 C 
ATOM     33  C   UNL     1       5.219   4.387  14.405  0.00  0.00    +0.000 C 
ENDBRANCH  31  33
ENDBRANCH   1  31
BRANCH   9  34
ATOM     34  C   UNL     1       3.143   3.067  19.471  0.00  0.00    +0.000 C 
BRANCH  34  35
ATOM     35  C   UNL     1       1.875   2.356  18.957  0.00  0.00    +0.000 C 
ATOM     36  C   UNL     1       0.577   2.816  19.598  0.00  0.00    +0.000 C 
ENDBRANCH  34  35
ENDBRANCH   9  34
TORSDOF 8
ENDMDL
MODEL 2
REMARK VINA RESULT:      -8.2      0.756      1.139
REMARK  Name = 
REMARK  11 active torsions:
REMARK  status: ('A' for Active; 'I' for Inactive)
REMARK    1  A    between atoms: C_1  and  C_2
REMARK    2  A    between atoms: C_2  and  C_3
REMARK    3  A    between atoms: C_3  and  N_4
REMARK    4  A    between atoms: C_9  and  C_10
REMARK    5  A    between atoms: C_12  and  C_13
REMARK    6  A    between atoms: N_14  and  C_15
REMARK    7  A    between atoms: C_15  and  C_16
REMARK    8  A    between atoms: N_18  and  C_19
REMARK    9  A    between atoms: N_29  and  C_30
REMARK   10  A    between atoms: C_30  and  C_31
REMARK   11  A    between atoms: C_31  and  C_32
REMARK                            x       y       z     vdW  Elec       q    Type
REMARK                         _______ _______ _______ _____ _____    ______ ____
ROOT
ATOM      1  N   UNL     1       4.614   5.059  16.873  0.00  0.00    +0.000 N 
ATOM      2  C   UNL     1       4.320   6.391  17.113  0.00  0.00    +0.000 A 
ATOM      3  O   UNL     1       4.855   7.354  16.521  0.00  0.00    +0.000 OA
ATOM      4  C   UNL     1       3.356   6.579  18.119  0.00  0.00    +0.000 A 
ATOM      5  N   UNL     1       2.762   7.713  18.574  0.00  0.00    +0.000 N 
ATOM      6  C   UNL     1       1.990   7.371  19.659  0.00  0.00    +0.000 A 
ATOM      7  N   UNL     1       2.000   6.057  19.847  0.00  0.00    +0.000 NA
ATOM      8  C   UNL     1       2.811   5.565  18.852  0.00  0.00    +0.000 A 
ATOM      9  N   UNL     1       3.072   4.244  18.540  0.00  0.00    +0.000 N 
ATOM     10  C   UNL     1       3.968   3.961  17.492  0.00  0.00    +0.000 A 
ATOM     11  O   UNL     1       4.203   2.813  17.105  0.00  0.00    +0.000 OA
ATOM     12  H   UNL     1       2.896   8.658  18.238  0.00  0.00    +0.000 HD
ENDROOT
BRANCH   6  13
ATOM     13  C   UNL     1       1.266   8.425  20.449  0.00  0.00    +0.000 A 
ATOM     14  C   UNL     1       0.744   8.306  21.752  0.00  0.00    +0.000 A 
ATOM     15  C   UNL     1       0.181   9.538  22.037  0.00  0.00    +0.000 A 
ATOM     16  C   UNL     1      -0.393  10.069  23.294  0.00  0.00    +0.000 C 
ATOM     17  N   UNL     1       0.253  10.253  20.863  0.00  0.00    +0.000 N 
ATOM     18  N   UNL     1       1.082   9.664  19.967  0.00  0.00    +0.000 NA
BRANCH  17  19
ATOM     19  C   UNL     1      -0.392  11.525  20.540  0.00  0.00    +0.000 C 
BRANCH  19  20
ATOM     20  C   UNL     1      -0.998  11.595  19.153  0.00  0.00    +0.000 C 
ATOM     21  O   UNL     1      -0.658  12.502  18.392  0.00  0.00    +0.000 OA
ATOM     22  N   UNL     1      -1.925  10.607  18.811  0.00  0.00    +0.000 N 
ATOM     23  H   UNL     1      -2.347  10.082  19.568  0.00  0.00    +0.000 HD
BRANCH  22  24
ATOM     24  C   UNL     1      -2.535  10.541  17.536  0.00  0.00    +0.000 A 
ATOM     25  C   UNL     1      -3.704  11.258  17.261  0.00  0.00    +0.000 A 
ATOM     26  C   UNL     1      -4.260  11.260  15.983  0.00  0.00    +0.000 A 
ATOM     27  C   UNL     1      -3.656  10.524  14.978  0.00  0.00    +0.000 A 
ATOM     28  F   UNL     1      -4.171  10.559  13.743  0.00  0.00    +0.000 F 
ATOM     29  C   UNL     1      -2.518   9.770  15.232  0.00  0.00    +0.000 A 
ATOM     30  C   UNL     1      -1.958   9.775  16.513  0.00  0.00    +0.000 A 
ENDBRANCH  22  24
ENDBRANCH  19  20
ENDBRANCH  17  19
ENDBRANCH   6  13
BRANCH   1  31
ATOM     31  C   UNL     1       5.620   4.737  15.862  0.00  0.00    +0.000 C 
BRANCH  31  33
ATOM     32  C   UNL     1       7.448   5.321  17.498  0.00  0.00    +0.000 C 
ATOM     33  C   UNL     1       6.946   4.298  16.492  0.00  0.00    +0.000 C 
ENDBRANCH  31  33
ENDBRANCH   1  31
BRANCH   9  34
ATOM     34  C   UNL     1       2.378   3.160  19.261  0.00  0.00    +0.000 C 
BRANCH  34  35
ATOM     35  C   UNL     1       3.025   2.710  20.586  0.00  0.00    +0.000 C 
ATOM     36  C   UNL     1       2.257   3.093  21.839  0.00  0.00    +0.000 C 
ENDBRANCH  34  35
ENDBRANCH   9  34
TORSDOF 8
ENDMDL
MODEL 3
REMARK VINA RESULT:      -8.2      3.053      4.056
REMARK  Name = 
REMARK  11 active torsions:
REMARK  status: ('A' for Active; 'I' for Inactive)
REMARK    1  A    between atoms: C_1  and  C_2
REMARK    2  A    between atoms: C_2  and  C_3
REMARK    3  A    between atoms: C_3  and  N_4
REMARK    4  A    between atoms: C_9  and  C_10
REMARK    5  A    between atoms: C_12  and  C_13
REMARK    6  A    between atoms: N_14  and  C_15
REMARK    7  A    between atoms: C_15  and  C_16
REMARK    8  A    between atoms: N_18  and  C_19
REMARK    9  A    between atoms: N_29  and  C_30
REMARK   10  A    between atoms: C_30  and  C_31
REMARK   11  A    between atoms: C_31  and  C_32
REMARK                            x       y       z     vdW  Elec       q    Type
REMARK                         _______ _______ _______ _____ _____    ______ ____
ROOT
ATOM      1  N   UNL     1       4.433   5.087  17.952  0.00  0.00    +0.000 N 
ATOM      2  C   UNL     1       3.978   6.391  17.856  0.00  0.00    +0.000 A 
ATOM      3  O   UNL     1       4.374   7.221  17.009  0.00  0.00    +0.000 OA
ATOM      4  C   UNL     1       3.017   6.723  18.828  0.00  0.00    +0.000 A 
ATOM      5  N   UNL     1       2.295   7.860  19.005  0.00  0.00    +0.000 N 
ATOM      6  C   UNL     1       1.594   7.727  20.181  0.00  0.00    +0.000 A 
ATOM      7  N   UNL     1       1.774   6.519  20.701  0.00  0.00    +0.000 NA
ATOM      8  C   UNL     1       2.620   5.881  19.826  0.00  0.00    +0.000 A 
ATOM      9  N   UNL     1       3.039   4.565  19.852  0.00  0.00    +0.000 N 
ATOM     10  C   UNL     1       3.943   4.122  18.867  0.00  0.00    +0.000 A 
ATOM     11  O   UNL     1       4.312   2.949  18.777  0.00  0.00    +0.000 OA
ATOM     12  H   UNL     1       2.302   8.692  18.430  0.00  0.00    +0.000 HD
ENDROOT
BRANCH   6  13
ATOM     13  C   UNL     1       0.759   8.860  20.708  0.00  0.00    +0.000 A 
ATOM     14  C   UNL     1       0.293   9.034  22.027  0.00  0.00    +0.000 A 
ATOM     15  C   UNL     1      -0.420  10.220  22.011  0.00  0.00    +0.000 A 
ATOM     16  C   UNL     1      -1.025  10.997  23.117  0.00  0.00    +0.000 C 
ATOM     17  N   UNL     1      -0.475  10.596  20.688  0.00  0.00    +0.000 N 
ATOM     18  N   UNL     1       0.400   9.892  19.930  0.00  0.00    +0.000 NA
BRANCH  17  19
ATOM     19  C   UNL     1      -1.291  11.648  20.083  0.00  0.00    +0.000 C 
BRANCH  19  20
ATOM     20  C   UNL     1      -0.518  12.649  19.249  0.00  0.00    +0.000 C 
ATOM     21  O   UNL     1      -0.833  12.823  18.071  0.00  0.00    +0.000 OA
ATOM     22  N   UNL     1       0.527  13.330  19.877  0.00  0.00    +0.000 N 
ATOM     23  H   UNL     1       0.891  12.936  20.737  0.00  0.00    +0.000 HD
BRANCH  22  24
ATOM     24  C   UNL     1       1.303  14.314  19.218  0.00  0.00    +0.000 A 
ATOM     25  C   UNL     1       2.499  13.976  18.578  0.00  0.00    +0.000 A 
ATOM     26  C   UNL     1       3.221  14.928  17.859  0.00  0.00    +0.000 A 
ATOM     27  C   UNL     1       2.755  16.230  17.796  0.00  0.00    +0.000 A 
ATOM     28  F   UNL     1       3.430  17.131  17.073  0.00  0.00    +0.000 F 
ATOM     29  C   UNL     1       1.591  16.603  18.455  0.00  0.00    +0.000 A 
ATOM     30  C   UNL     1       0.865  15.646  19.170  0.00  0.00    +0.000 A 
ENDBRANCH  22  24
ENDBRANCH  19  20
ENDBRANCH  17  19
ENDBRANCH   6  13
BRANCH   1  31
ATOM     31  C   UNL     1       5.450   4.630  17.007  0.00  0.00    +0.000 C 
BRANCH  31  33
ATOM     32  C   UNL     1       7.463   6.106  17.373  0.00  0.00    +0.000 C 
ATOM     33  C   UNL     1       6.862   4.727  17.595  0.00  0.00    +0.000 C 
ENDBRANCH  31  33
ENDBRANCH   1  31
BRANCH   9  34
ATOM     34  C   UNL     1       2.502   3.635  20.863  0.00  0.00    +0.000 C 
BRANCH  34  35
ATOM     35  C   UNL     1       1.043   3.182  20.654  0.00  0.00    +0.000 C 
ATOM     36  C   UNL     1       0.753   2.554  19.301  0.00  0.00    +0.000 C 
ENDBRANCH  34  35
ENDBRANCH   9  34
TORSDOF 8
ENDMDL
MODEL 4
REMARK VINA RESULT:      -8.0      2.944      3.784
REMARK  Name = 
REMARK  11 active torsions:
REMARK  status: ('A' for Active; 'I' for Inactive)
REMARK    1  A    between atoms: C_1  and  C_2
REMARK    2  A    between atoms: C_2  and  C_3
REMARK    3  A    between atoms: C_3  and  N_4
REMARK    4  A    between atoms: C_9  and  C_10
REMARK    5  A    between atoms: C_12  and  C_13
REMARK    6  A    between atoms: N_14  and  C_15
REMARK    7  A    between atoms: C_15  and  C_16
REMARK    8  A    between atoms: N_18  and  C_19
REMARK    9  A    between atoms: N_29  and  C_30
REMARK   10  A    between atoms: C_30  and  C_31
REMARK   11  A    between atoms: C_31  and  C_32
REMARK                            x       y       z     vdW  Elec       q    Type
REMARK                         _______ _______ _______ _____ _____    ______ ____
ROOT
ATOM      1  N   UNL     1       4.753   4.984  17.561  0.00  0.00    +0.000 N 
ATOM      2  C   UNL     1       4.265   6.278  17.482  0.00  0.00    +0.000 A 
ATOM      3  O   UNL     1       4.632   7.125  16.640  0.00  0.00    +0.000 OA
ATOM      4  C   UNL     1       3.307   6.576  18.468  0.00  0.00    +0.000 A 
ATOM      5  N   UNL     1       2.558   7.692  18.664  0.00  0.00    +0.000 N 
ATOM      6  C   UNL     1       1.873   7.531  19.845  0.00  0.00    +0.000 A 
ATOM      7  N   UNL     1       2.088   6.322  20.351  0.00  0.00    +0.000 NA
ATOM      8  C   UNL     1       2.941   5.714  19.461  0.00  0.00    +0.000 A 
ATOM      9  N   UNL     1       3.392   4.409  19.469  0.00  0.00    +0.000 N 
ATOM     10  C   UNL     1       4.296   3.999  18.471  0.00  0.00    +0.000 A 
ATOM     11  O   UNL     1       4.693   2.835  18.365  0.00  0.00    +0.000 OA
ATOM     12  H   UNL     1       2.539   8.531  18.098  0.00  0.00    +0.000 HD
ENDROOT
BRANCH   6  13
ATOM     13  C   UNL     1       1.016   8.638  20.393  0.00  0.00    +0.000 A 
ATOM     14  C   UNL     1       0.597   8.811  21.727  0.00  0.00    +0.000 A 
ATOM     15  C   UNL     1      -0.162   9.968  21.726  0.00  0.00    +0.000 A 
ATOM     16  C   UNL     1      -0.752  10.736  22.847  0.00  0.00    +0.000 C 
ATOM     17  N   UNL     1      -0.285  10.324  20.402  0.00  0.00    +0.000 N 
ATOM     18  N   UNL     1       0.586   9.645  19.618  0.00  0.00    +0.000 NA
BRANCH  17  19
ATOM     19  C   UNL     1      -1.166  11.335  19.818  0.00  0.00    +0.000 C 
BRANCH  19  20
ATOM     20  C   UNL     1      -0.452  12.434  19.057  0.00  0.00    +0.000 C 
ATOM     21  O   UNL     1      -0.918  12.825  17.986  0.00  0.00    +0.000 OA
ATOM     22  N   UNL     1       0.715  12.948  19.625  0.00  0.00    +0.000 N 
ATOM     23  H   UNL     1       1.169  12.394  20.342  0.00  0.00    +0.000 HD
BRANCH  22  24
ATOM     24  C   UNL     1       1.455  14.000  19.032  0.00  0.00    +0.000 A 
ATOM     25  C   UNL     1       1.025  15.326  19.133  0.00  0.00    +0.000 A 
ATOM     26  C   UNL     1       1.795  16.369  18.621  0.00  0.00    +0.000 A 
ATOM     27  C   UNL     1       2.991  16.084  17.985  0.00  0.00    +0.000 A 
ATOM     28  F   UNL     1       3.744  17.091  17.529  0.00  0.00    +0.000 F 
ATOM     29  C   UNL     1       3.422  14.773  17.834  0.00  0.00    +0.000 A 
ATOM     30  C   UNL     1       2.652  13.728  18.354  0.00  0.00    +0.000 A 
ENDBRANCH  22  24
ENDBRANCH  19  20
ENDBRANCH  17  19
ENDBRANCH   6  13
BRANCH   1  31
ATOM     31  C   UNL     1       5.771   4.562  16.601  0.00  0.00    +0.000 C 
BRANCH  31  33
ATOM     32  C   UNL     1       6.252   3.905  14.213  0.00  0.00    +0.000 C 
ATOM     33  C   UNL     1       5.183   4.339  15.204  0.00  0.00    +0.000 C 
ENDBRANCH  31  33
ENDBRANCH   1  31
BRANCH   9  34
ATOM     34  C   UNL     1       2.889   3.456  20.476  0.00  0.00    +0.000 C 
BRANCH  34  35
ATOM     35  C   UNL     1       1.938   2.361  19.952  0.00  0.00    +0.000 C 
ATOM     36  C   UNL     1       0.772   2.868  19.121  0.00  0.00    +0.000 C 
ENDBRANCH  34  35
ENDBRANCH   9  34
TORSDOF 8
ENDMDL
MODEL 5
REMARK VINA RESULT:      -7.9      3.497      4.451
REMARK  Name = 
REMARK  11 active torsions:
REMARK  status: ('A' for Active; 'I' for Inactive)
REMARK    1  A    between atoms: C_1  and  C_2
REMARK    2  A    between atoms: C_2  and  C_3
REMARK    3  A    between atoms: C_3  and  N_4
REMARK    4  A    between atoms: C_9  and  C_10
REMARK    5  A    between atoms: C_12  and  C_13
REMARK    6  A    between atoms: N_14  and  C_15
REMARK    7  A    between atoms: C_15  and  C_16
REMARK    8  A    between atoms: N_18  and  C_19
REMARK    9  A    between atoms: N_29  and  C_30
REMARK   10  A    between atoms: C_30  and  C_31
REMARK   11  A    between atoms: C_31  and  C_32
REMARK                            x       y       z     vdW  Elec       q    Type
REMARK                         _______ _______ _______ _____ _____    ______ ____
ROOT
ATOM      1  N   UNL     1       4.316   4.824  17.385  0.00  0.00    +0.000 N 
ATOM      2  C   UNL     1       3.952   6.160  17.384  0.00  0.00    +0.000 A 
ATOM      3  O   UNL     1       4.348   7.003  16.549  0.00  0.00    +0.000 OA
ATOM      4  C   UNL     1       3.089   6.508  18.439  0.00  0.00    +0.000 A 
ATOM      5  N   UNL     1       2.466   7.681  18.722  0.00  0.00    +0.000 N 
ATOM      6  C   UNL     1       1.842   7.537  19.939  0.00  0.00    +0.000 A 
ATOM      7  N   UNL     1       1.969   6.293  20.386  0.00  0.00    +0.000 NA
ATOM      8  C   UNL     1       2.702   5.644  19.422  0.00  0.00    +0.000 A 
ATOM      9  N   UNL     1       3.024   4.302  19.355  0.00  0.00    +0.000 N 
ATOM     10  C   UNL     1       3.821   3.850  18.287  0.00  0.00    +0.000 A 
ATOM     11  O   UNL     1       4.096   2.659  18.115  0.00  0.00    +0.000 OA
ATOM     12  H   UNL     1       2.494   8.540  18.188  0.00  0.00    +0.000 HD
ENDROOT
BRANCH   6  13
ATOM     13  C   UNL     1       1.132   8.696  20.579  0.00  0.00    +0.000 A 
ATOM     14  C   UNL     1       0.376   8.681  21.768  0.00  0.00    +0.000 A 
ATOM     15  C   UNL     1      -0.065   9.982  21.940  0.00  0.00    +0.000 A 
ATOM     16  C   UNL     1      -0.779  10.617  23.070  0.00  0.00    +0.000 C 
ATOM     17  N   UNL     1       0.305  10.648  20.793  0.00  0.00    +0.000 N 
ATOM     18  N   UNL     1       1.197   9.933  20.065  0.00  0.00    +0.000 NA
BRANCH  17  19
ATOM     19  C   UNL     1      -0.103  11.981  20.352  0.00  0.00    +0.000 C 
BRANCH  19  20
ATOM     20  C   UNL     1       1.022  12.991  20.264  0.00  0.00    +0.000 C 
ATOM     21  O   UNL     1       1.715  13.210  21.260  0.00  0.00    +0.000 OA
ATOM     22  N   UNL     1       1.214  13.628  19.036  0.00  0.00    +0.000 N 
ATOM     23  H   UNL     1       0.448  13.602  18.373  0.00  0.00    +0.000 HD
BRANCH  22  24
ATOM     24  C   UNL     1       2.251  14.566  18.815  0.00  0.00    +0.000 A 
ATOM     25  C   UNL     1       2.070  15.920  19.109  0.00  0.00    +0.000 A 
ATOM     26  C   UNL     1       3.117  16.830  18.970  0.00  0.00    +0.000 A 
ATOM     27  C   UNL     1       4.347  16.387  18.515  0.00  0.00    +0.000 A 
ATOM     28  F   UNL     1       5.360  17.256  18.419  0.00  0.00    +0.000 F 
ATOM     29  C   UNL     1       4.544  15.055  18.176  0.00  0.00    +0.000 A 
ATOM     30  C   UNL     1       3.494  14.143  18.322  0.00  0.00    +0.000 A 
ENDBRANCH  22  24
ENDBRANCH  19  20
ENDBRANCH  17  19
ENDBRANCH   6  13
BRANCH   1  31
ATOM     31  C   UNL     1       5.228   4.347  16.347  0.00  0.00    +0.000 C 
BRANCH  31  33
ATOM     32  C   UNL     1       7.472   5.005  15.401  0.00  0.00    +0.000 C 
ATOM     33  C   UNL     1       6.687   4.692  16.665  0.00  0.00    +0.000 C 
ENDBRANCH  31  33
ENDBRANCH   1  31
BRANCH   9  34
ATOM     34  C   UNL     1       2.492   3.361  20.359  0.00  0.00    +0.000 C 
BRANCH  34  35
ATOM     35  C   UNL     1       0.998   3.005  20.224  0.00  0.00    +0.000 C 
ATOM     36  C   UNL     1       0.630   2.248  18.959  0.00  0.00    +0.000 C 
ENDBRANCH  34  35
ENDBRANCH   9  34
TORSDOF 8
ENDMDL
MODEL 6
REMARK VINA RESULT:      -7.9      3.394      4.418
REMARK  Name = 
REMARK  11 active torsions:
REMARK  status: ('A' for Active; 'I' for Inactive)
REMARK    1  A    between atoms: C_1  and  C_2
REMARK    2  A    between atoms: C_2  and  C_3
REMARK    3  A    between atoms: C_3  and  N_4
REMARK    4  A    between atoms: C_9  and  C_10
REMARK    5  A    between atoms: C_12  and  C_13
REMARK    6  A    between atoms: N_14  and  C_15
REMARK    7  A    between atoms: C_15  and  C_16
REMARK    8  A    between atoms: N_18  and  C_19
REMARK    9  A    between atoms: N_29  and  C_30
REMARK   10  A    between atoms: C_30  and  C_31
REMARK   11  A    between atoms: C_31  and  C_32
REMARK                            x       y       z     vdW  Elec       q    Type
REMARK                         _______ _______ _______ _____ _____    ______ ____
ROOT
ATOM      1  N   UNL     1       4.807   4.963  17.968  0.00  0.00    +0.000 N 
ATOM      2  C   UNL     1       4.386   6.197  17.504  0.00  0.00    +0.000 A 
ATOM      3  O   UNL     1       4.840   6.767  16.488  0.00  0.00    +0.000 OA
ATOM      4  C   UNL     1       3.386   6.785  18.301  0.00  0.00    +0.000 A 
ATOM      5  N   UNL     1       2.680   7.932  18.131  0.00  0.00    +0.000 N 
ATOM      6  C   UNL     1       1.921   8.124  19.261  0.00  0.00    +0.000 A 
ATOM      7  N   UNL     1       2.050   7.097  20.093  0.00  0.00    +0.000 NA
ATOM      8  C   UNL     1       2.923   6.242  19.465  0.00  0.00    +0.000 A 
ATOM      9  N   UNL     1       3.312   4.977  19.862  0.00  0.00    +0.000 N 
ATOM     10  C   UNL     1       4.253   4.281  19.080  0.00  0.00    +0.000 A 
ATOM     11  O   UNL     1       4.601   3.123  19.325  0.00  0.00    +0.000 OA
ATOM     12  H   UNL     1       2.733   8.581  17.357  0.00  0.00    +0.000 HD
ENDROOT
BRANCH   6  13
ATOM     13  C   UNL     1       1.086   9.363  19.424  0.00  0.00    +0.000 A 
ATOM     14  C   UNL     1       0.492  10.132  18.403  0.00  0.00    +0.000 A 
ATOM     15  C   UNL     1      -0.171  11.158  19.054  0.00  0.00    +0.000 A 
ATOM     16  C   UNL     1      -1.088  12.196  18.532  0.00  0.00    +0.000 C 
ATOM     17  N   UNL     1       0.187  11.043  20.378  0.00  0.00    +0.000 N 
ATOM     18  N   UNL     1       0.777   9.850  20.635  0.00  0.00    +0.000 NA
BRANCH  17  19
ATOM     19  C   UNL     1      -0.048  11.996  21.462  0.00  0.00    +0.000 C 
BRANCH  19  20
ATOM     20  C   UNL     1      -1.362  11.813  22.193  0.00  0.00    +0.000 C 
ATOM     21  O   UNL     1      -1.499  10.854  22.955  0.00  0.00    +0.000 OA
ATOM     22  N   UNL     1      -2.361  12.760  21.957  0.00  0.00    +0.000 N 
ATOM     23  H   UNL     1      -2.271  13.336  21.129  0.00  0.00    +0.000 HD
BRANCH  22  24
ATOM     24  C   UNL     1      -3.619  12.720  22.604  0.00  0.00    +0.000 A 
ATOM     25  C   UNL     1      -3.709  12.699  23.999  0.00  0.00    +0.000 A 
ATOM     26  C   UNL     1      -4.947  12.744  24.638  0.00  0.00    +0.000 A 
ATOM     27  C   UNL     1      -6.103  12.790  23.879  0.00  0.00    +0.000 A 
ATOM     28  F   UNL     1      -7.287  12.871  24.497  0.00  0.00    +0.000 F 
ATOM     29  C   UNL     1      -6.046  12.771  22.492  0.00  0.00    +0.000 A 
ATOM     30  C   UNL     1      -4.803  12.732  21.853  0.00  0.00    +0.000 A 
ENDBRANCH  22  24
ENDBRANCH  19  20
ENDBRANCH  17  19
ENDBRANCH   6  13
BRANCH   1  31
ATOM     31  C   UNL     1       5.859   4.262  17.233  0.00  0.00    +0.000 C 
BRANCH  31  33
ATOM     32  C   UNL     1       7.694   5.268  18.642  0.00  0.00    +0.000 C 
ATOM     33  C   UNL     1       7.175   5.047  17.230  0.00  0.00    +0.000 C 
ENDBRANCH  31  33
ENDBRANCH   1  31
BRANCH   9  34
ATOM     34  C   UNL     1       2.707   4.356  21.055  0.00  0.00    +0.000 C 
BRANCH  34  35
ATOM     35  C   UNL     1       1.661   3.256  20.784  0.00  0.00    +0.000 C 
ATOM     36  C   UNL     1       0.813   3.469  19.542  0.00  0.00    +0.000 C 
ENDBRANCH  34  35
ENDBRANCH   9  34
TORSDOF 8
ENDMDL
MODEL 7
REMARK VINA RESULT:      -7.9      3.310      4.480
REMARK  Name = 
REMARK  11 active torsions:
REMARK  status: ('A' for Active; 'I' for Inactive)
REMARK    1  A    between atoms: C_1  and  C_2
REMARK    2  A    between atoms: C_2  and  C_3
REMARK    3  A    between atoms: C_3  and  N_4
REMARK    4  A    between atoms: C_9  and  C_10
REMARK    5  A    between atoms: C_12  and  C_13
REMARK    6  A    between atoms: N_14  and  C_15
REMARK    7  A    between atoms: C_15  and  C_16
REMARK    8  A    between atoms: N_18  and  C_19
REMARK    9  A    between atoms: N_29  and  C_30
REMARK   10  A    between atoms: C_30  and  C_31
REMARK   11  A    between atoms: C_31  and  C_32
REMARK                            x       y       z     vdW  Elec       q    Type
REMARK                         _______ _______ _______ _____ _____    ______ ____
ROOT
ATOM      1  N   UNL     1       4.513   5.028  17.687  0.00  0.00    +0.000 N 
ATOM      2  C   UNL     1       4.086   6.344  17.621  0.00  0.00    +0.000 A 
ATOM      3  O   UNL     1       4.486   7.179  16.782  0.00  0.00    +0.000 OA
ATOM      4  C   UNL     1       3.149   6.679  18.616  0.00  0.00    +0.000 A 
ATOM      5  N   UNL     1       2.455   7.828  18.825  0.00  0.00    +0.000 N 
ATOM      6  C   UNL     1       1.771   7.690  20.010  0.00  0.00    +0.000 A 
ATOM      7  N   UNL     1       1.933   6.468  20.505  0.00  0.00    +0.000 NA
ATOM      8  C   UNL     1       2.750   5.828  19.605  0.00  0.00    +0.000 A 
ATOM      9  N   UNL     1       3.140   4.502  19.600  0.00  0.00    +0.000 N 
ATOM     10  C   UNL     1       4.017   4.058  18.593  0.00  0.00    +0.000 A 
ATOM     11  O   UNL     1       4.358   2.878  18.475  0.00  0.00    +0.000 OA
ATOM     12  H   UNL     1       2.471   8.670  18.265  0.00  0.00    +0.000 HD
ENDROOT
BRANCH   6  13
ATOM     13  C   UNL     1       0.971   8.831  20.572  0.00  0.00    +0.000 A 
ATOM     14  C   UNL     1       0.338   8.891  21.829  0.00  0.00    +0.000 A 
ATOM     15  C   UNL     1      -0.260  10.138  21.881  0.00  0.00    +0.000 A 
ATOM     16  C   UNL     1      -0.947  10.833  22.993  0.00  0.00    +0.000 C 
ATOM     17  N   UNL     1      -0.093  10.676  20.625  0.00  0.00    +0.000 N 
ATOM     18  N   UNL     1       0.817   9.982  19.900  0.00  0.00    +0.000 NA
BRANCH  17  19
ATOM     19  C   UNL     1      -0.720  11.872  20.065  0.00  0.00    +0.000 C 
BRANCH  19  20
ATOM     20  C   UNL     1       0.219  13.043  19.858  0.00  0.00    +0.000 C 
ATOM     21  O   UNL     1      -0.200  14.189  20.025  0.00  0.00    +0.000 OA
ATOM     22  N   UNL     1       1.532  12.748  19.484  0.00  0.00    +0.000 N 
ATOM     23  H   UNL     1       1.714  11.827  19.105  0.00  0.00    +0.000 HD
BRANCH  22  24
ATOM     24  C   UNL     1       2.515  13.749  19.295  0.00  0.00    +0.000 A 
ATOM     25  C   UNL     1       2.743  14.302  18.031  0.00  0.00    +0.000 A 
ATOM     26  C   UNL     1       3.651  15.345  17.858  0.00  0.00    +0.000 A 
ATOM     27  C   UNL     1       4.352  15.825  18.951  0.00  0.00    +0.000 A 
ATOM     28  F   UNL     1       5.194  16.852  18.787  0.00  0.00    +0.000 F 
ATOM     29  C   UNL     1       4.176  15.268  20.211  0.00  0.00    +0.000 A 
ATOM     30  C   UNL     1       3.259  14.226  20.383  0.00  0.00    +0.000 A 
ENDBRANCH  22  24
ENDBRANCH  19  20
ENDBRANCH  17  19
ENDBRANCH   6  13
BRANCH   1  31
ATOM     31  C   UNL     1       5.504   4.566  16.717  0.00  0.00    +0.000 C 
BRANCH  31  33
ATOM     32  C   UNL     1       7.413   5.866  17.731  0.00  0.00    +0.000 C 
ATOM     33  C   UNL     1       6.908   4.490  17.325  0.00  0.00    +0.000 C 
ENDBRANCH  31  33
ENDBRANCH   1  31
BRANCH   9  34
ATOM     34  C   UNL     1       2.599   3.566  20.604  0.00  0.00    +0.000 C 
BRANCH  34  35
ATOM     35  C   UNL     1       1.129   3.144  20.409  0.00  0.00    +0.000 C 
ATOM     36  C   UNL     1       0.823   2.484  19.075  0.00  0.00    +0.000 C 
ENDBRANCH  34  35
ENDBRANCH   9  34
TORSDOF 8
ENDMDL
MODEL 8
REMARK VINA RESULT:      -7.9      3.598      4.864
REMARK  Name = 
REMARK  11 active torsions:
REMARK  status: ('A' for Active; 'I' for Inactive)
REMARK    1  A    between atoms: C_1  and  C_2
REMARK    2  A    between atoms: C_2  and  C_3
REMARK    3  A    between atoms: C_3  and  N_4
REMARK    4  A    between atoms: C_9  and  C_10
REMARK    5  A    between atoms: C_12  and  C_13
REMARK    6  A    between atoms: N_14  and  C_15
REMARK    7  A    between atoms: C_15  and  C_16
REMARK    8  A    between atoms: N_18  and  C_19
REMARK    9  A    between atoms: N_29  and  C_30
REMARK   10  A    between atoms: C_30  and  C_31
REMARK   11  A    between atoms: C_31  and  C_32
REMARK                            x       y       z     vdW  Elec       q    Type
REMARK                         _______ _______ _______ _____ _____    ______ ____
ROOT
ATOM      1  N   UNL     1       5.368   5.299  17.478  0.00  0.00    +0.000 N 
ATOM      2  C   UNL     1       4.826   6.482  17.004  0.00  0.00    +0.000 A 
ATOM      3  O   UNL     1       5.247   7.108  16.008  0.00  0.00    +0.000 OA
ATOM      4  C   UNL     1       3.741   6.947  17.770  0.00  0.00    +0.000 A 
ATOM      5  N   UNL     1       2.917   8.010  17.581  0.00  0.00    +0.000 N 
ATOM      6  C   UNL     1       2.103   8.106  18.685  0.00  0.00    +0.000 A 
ATOM      7  N   UNL     1       2.318   7.093  19.516  0.00  0.00    +0.000 NA
ATOM      8  C   UNL     1       3.303   6.346  18.915  0.00  0.00    +0.000 A 
ATOM      9  N   UNL     1       3.818   5.130  19.320  0.00  0.00    +0.000 N 
ATOM     10  C   UNL     1       4.856   4.550  18.567  0.00  0.00    +0.000 A 
ATOM     11  O   UNL     1       5.324   3.437  18.819  0.00  0.00    +0.000 OA
ATOM     12  H   UNL     1       2.922   8.666  16.811  0.00  0.00    +0.000 HD
ENDROOT
BRANCH   6  13
ATOM     13  C   UNL     1       1.129   9.242  18.824  0.00  0.00    +0.000 A 
ATOM     14  C   UNL     1       0.184   9.677  17.873  0.00  0.00    +0.000 A 
ATOM     15  C   UNL     1      -0.472  10.741  18.468  0.00  0.00    +0.000 A 
ATOM     16  C   UNL     1      -1.653  11.515  18.023  0.00  0.00    +0.000 C 
ATOM     17  N   UNL     1       0.206  10.980  19.641  0.00  0.00    +0.000 N 
ATOM     18  N   UNL     1       1.039   9.958  19.955  0.00  0.00    +0.000 NA
BRANCH  17  19
ATOM     19  C   UNL     1       0.076  12.125  20.542  0.00  0.00    +0.000 C 
BRANCH  19  20
ATOM     20  C   UNL     1       0.925  13.323  20.169  0.00  0.00    +0.000 C 
ATOM     21  O   UNL     1       0.439  14.453  20.247  0.00  0.00    +0.000 OA
ATOM     22  N   UNL     1       2.234  13.073  19.752  0.00  0.00    +0.000 N 
ATOM     23  H   UNL     1       2.456  12.131  19.454  0.00  0.00    +0.000 HD
BRANCH  22  24
ATOM     24  C   UNL     1       3.137  14.108  19.410  0.00  0.00    +0.000 A 
ATOM     25  C   UNL     1       3.197  14.608  18.106  0.00  0.00    +0.000 A 
ATOM     26  C   UNL     1       4.026  15.682  17.788  0.00  0.00    +0.000 A 
ATOM     27  C   UNL     1       4.816  16.248  18.774  0.00  0.00    +0.000 A 
ATOM     28  F   UNL     1       5.582  17.303  18.472  0.00  0.00    +0.000 F 
ATOM     29  C   UNL     1       4.808  15.746  20.069  0.00  0.00    +0.000 A 
ATOM     30  C   UNL     1       3.970  14.672  20.387  0.00  0.00    +0.000 A 
ENDBRANCH  22  24
ENDBRANCH  19  20
ENDBRANCH  17  19
ENDBRANCH   6  13
BRANCH   1  31
ATOM     31  C   UNL     1       6.516   4.726  16.776  0.00  0.00    +0.000 C 
BRANCH  31  33
ATOM     32  C   UNL     1       6.608   4.380  14.279  0.00  0.00    +0.000 C 
ATOM     33  C   UNL     1       6.085   3.842  15.601  0.00  0.00    +0.000 C 
ENDBRANCH  31  33
ENDBRANCH   1  31
BRANCH   9  34
ATOM     34  C   UNL     1       3.247   4.435  20.488  0.00  0.00    +0.000 C 
BRANCH  34  35
ATOM     35  C   UNL     1       2.280   3.275  20.176  0.00  0.00    +0.000 C 
ATOM     36  C   UNL     1       0.807   3.606  20.341  0.00  0.00    +0.000 C 
ENDBRANCH  34  35
ENDBRANCH   9  34
TORSDOF 8
ENDMDL
MODEL 9
REMARK VINA RESULT:      -7.8      3.958      5.304
REMARK  Name = 
REMARK  11 active torsions:
REMARK  status: ('A' for Active; 'I' for Inactive)
REMARK    1  A    between atoms: C_1  and  C_2
REMARK    2  A    between atoms: C_2  and  C_3
REMARK    3  A    between atoms: C_3  and  N_4
REMARK    4  A    between atoms: C_9  and  C_10
REMARK    5  A    between atoms: C_12  and  C_13
REMARK    6  A    between atoms: N_14  and  C_15
REMARK    7  A    between atoms: C_15  and  C_16
REMARK    8  A    between atoms: N_18  and  C_19
REMARK    9  A    between atoms: N_29  and  C_30
REMARK   10  A    between atoms: C_30  and  C_31
REMARK   11  A    between atoms: C_31  and  C_32
REMARK                            x       y       z     vdW  Elec       q    Type
REMARK                         _______ _______ _______ _____ _____    ______ ____
ROOT
ATOM      1  N   UNL     1       4.793   5.323  17.940  0.00  0.00    +0.000 N 
ATOM      2  C   UNL     1       4.339   6.503  17.374  0.00  0.00    +0.000 A 
ATOM      3  O   UNL     1       4.807   7.018  16.336  0.00  0.00    +0.000 OA
ATOM      4  C   UNL     1       3.290   7.102  18.094  0.00  0.00    +0.000 A 
ATOM      5  N   UNL     1       2.545   8.204  17.819  0.00  0.00    +0.000 N 
ATOM      6  C   UNL     1       1.739   8.443  18.906  0.00  0.00    +0.000 A 
ATOM      7  N   UNL     1       1.878   7.484  19.814  0.00  0.00    +0.000 NA
ATOM      8  C   UNL     1       2.807   6.624  19.278  0.00  0.00    +0.000 A 
ATOM      9  N   UNL     1       3.232   5.408  19.779  0.00  0.00    +0.000 N 
ATOM     10  C   UNL     1       4.227   4.699  19.080  0.00  0.00    +0.000 A 
ATOM     11  O   UNL     1       4.612   3.577  19.419  0.00  0.00    +0.000 OA
ATOM     12  H   UNL     1       2.599   8.797  17.001  0.00  0.00    +0.000 HD
ENDROOT
BRANCH   6  13
ATOM     13  C   UNL     1       0.849   9.654  18.951  0.00  0.00    +0.000 A 
ATOM     14  C   UNL     1      -0.179   9.991  18.049  0.00  0.00    +0.000 A 
ATOM     15  C   UNL     1      -0.702  11.184  18.517  0.00  0.00    +0.000 A 
ATOM     16  C   UNL     1      -1.886  11.956  18.076  0.00  0.00    +0.000 C 
ATOM     17  N   UNL     1       0.124  11.566  19.549  0.00  0.00    +0.000 N 
ATOM     18  N   UNL     1       0.934  10.553  19.943  0.00  0.00    +0.000 NA
BRANCH  17  19
ATOM     19  C   UNL     1       0.163  12.851  20.245  0.00  0.00    +0.000 C 
BRANCH  19  20
ATOM     20  C   UNL     1       1.187  13.831  19.709  0.00  0.00    +0.000 C 
ATOM     21  O   UNL     1       0.803  14.833  19.104  0.00  0.00    +0.000 OA
ATOM     22  N   UNL     1       2.533  13.535  19.937  0.00  0.00    +0.000 N 
ATOM     23  H   UNL     1       2.766  12.581  20.185  0.00  0.00    +0.000 HD
BRANCH  22  24
ATOM     24  C   UNL     1       3.583  14.387  19.518  0.00  0.00    +0.000 A 
ATOM     25  C   UNL     1       4.144  15.321  20.394  0.00  0.00    +0.000 A 
ATOM     26  C   UNL     1       5.232  16.102  20.009  0.00  0.00    +0.000 A 
ATOM     27  C   UNL     1       5.752  15.963  18.734  0.00  0.00    +0.000 A 
ATOM     28  F   UNL     1       6.820  16.687  18.382  0.00  0.00    +0.000 F 
ATOM     29  C   UNL     1       5.190  15.072  17.829  0.00  0.00    +0.000 A 
ATOM     30  C   UNL     1       4.102  14.285  18.219  0.00  0.00    +0.000 A 
ENDBRANCH  22  24
ENDBRANCH  19  20
ENDBRANCH  17  19
ENDBRANCH   6  13
BRANCH   1  31
ATOM     31  C   UNL     1       5.898   4.617  17.293  0.00  0.00    +0.000 C 
BRANCH  31  33
ATOM     32  C   UNL     1       7.621   5.584  18.861  0.00  0.00    +0.000 C 
ATOM     33  C   UNL     1       7.216   5.390  17.409  0.00  0.00    +0.000 C 
ENDBRANCH  31  33
ENDBRANCH   1  31
BRANCH   9  34
ATOM     34  C   UNL     1       2.610   4.848  20.993  0.00  0.00    +0.000 C 
BRANCH  34  35
ATOM     35  C   UNL     1       1.389   3.934  20.764  0.00  0.00    +0.000 C 
ATOM     36  C   UNL     1       1.473   2.571  21.429  0.00  0.00    +0.000 C 
ENDBRANCH  34  35
ENDBRANCH   9  34
TORSDOF 8
ENDMDL
