MODEL 1
REMARK VINA RESULT:      -7.4      0.000      0.000
REMARK  Name = 
REMARK  5 active torsions:
REMARK  status: ('A' for Active; 'I' for Inactive)
REMARK    1  A    between atoms: C_1  and  C_2
REMARK    2  A    between atoms: C_6  and  C_7
REMARK    3  A    between atoms: C_8  and  O_9
REMARK    4  A    between atoms: C_10  and  O_11
REMARK    5  A    between atoms: C_20  and  C_21
REMARK                            x       y       z     vdW  Elec       q    Type
REMARK                         _______ _______ _______ _____ _____    ______ ____
ROOT
ATOM      1  C   UNL     1       6.738   3.579  11.898  0.00  0.00    +0.000 C 
ATOM      2  C   UNL     1       6.401   4.086  13.279  0.00  0.00    +0.000 A 
ATOM      3  C   UNL     1       5.249   3.599  13.909  0.00  0.00    +0.000 A 
ATOM      4  C   UNL     1       4.888   4.020  15.192  0.00  0.00    +0.000 A 
ATOM      5  C   UNL     1       5.700   4.950  15.867  0.00  0.00    +0.000 A 
ATOM      6  C   UNL     1       5.643   5.568  17.151  0.00  0.00    +0.000 A 
ATOM      7  C   UNL     1       6.728   6.405  17.267  0.00  0.00    +0.000 A 
ATOM      8  N   UNL     1       7.457   6.296  16.112  0.00  0.00    +0.000 N 
ATOM      9  C   UNL     1       6.848   5.427  15.228  0.00  0.00    +0.000 A 
ATOM     10  C   UNL     1       7.241   5.025  13.932  0.00  0.00    +0.000 A 
ATOM     11  C   UNL     1       8.485   5.538  13.259  0.00  0.00    +0.000 C 
ATOM     12  H   UNL     1       8.333   6.769  15.935  0.00  0.00    +0.000 HD
ENDROOT
BRANCH   6  13
ATOM     13  C   UNL     1       4.655   5.377  18.164  0.00  0.00    +0.000 C 
ATOM     14  C   UNL     1       4.550   4.262  18.913  0.00  0.00    +0.000 C 
ATOM     15  C   UNL     1       3.538   4.082  19.931  0.00  0.00    +0.000 C 
ATOM     16  C   UNL     1       2.633   5.006  20.245  0.00  0.00    +0.000 C 
ATOM     17  C   UNL     1       2.643   6.287  19.524  0.00  0.00    +0.000 C 
ATOM     18  O   UNL     1       1.843   7.166  19.811  0.00  0.00    +0.000 OA
ATOM     19  C   UNL     1       3.672   6.482  18.413  0.00  0.00    +0.000 C 
ATOM     20  O   UNL     1       3.665   7.519  17.761  0.00  0.00    +0.000 OA
BRANCH  14  21
ATOM     21  O   UNL     1       5.389   3.164  18.795  0.00  0.00    +0.000 OA
ATOM     22  H   UNL     1       4.887   2.436  18.378  0.00  0.00    +0.000 HD
ENDBRANCH  14  21
BRANCH  15  23
ATOM     23  O   UNL     1       3.556   2.870  20.589  0.00  0.00    +0.000 OA
ATOM     24  H   UNL     1       2.653   2.501  20.493  0.00  0.00    +0.000 HD
ENDBRANCH  15  23
ENDBRANCH   6  13
TORSDOF 3
ENDMDL
MODEL 2
REMARK VINA RESULT:      -7.3      3.689      6.581
REMARK  Name = 
REMARK  5 active torsions:
REMARK  status: ('A' for Active; 'I' for Inactive)
REMARK    1  A    between atoms: C_1  and  C_2
REMARK    2  A    between atoms: C_6  and  C_7
REMARK    3  A    between atoms: C_8  and  O_9
REMARK    4  A    between atoms: C_10  and  O_11
REMARK    5  A    between atoms: C_20  and  C_21
REMARK                            x       y       z     vdW  Elec       q    Type
REMARK                         _______ _______ _______ _____ _____    ______ ____
ROOT
ATOM      1  C   UNL     1       0.918  11.661  18.654  0.00  0.00    +0.000 C 
ATOM      2  C   UNL     1       1.325  10.224  18.865  0.00  0.00    +0.000 A 
ATOM      3  C   UNL     1       1.977   9.552  17.823  0.00  0.00    +0.000 A 
ATOM      4  C   UNL     1       2.389   8.224  17.959  0.00  0.00    +0.000 A 
ATOM      5  C   UNL     1       2.148   7.547  19.169  0.00  0.00    +0.000 A 
ATOM      6  C   UNL     1       2.436   6.234  19.646  0.00  0.00    +0.000 A 
ATOM      7  C   UNL     1       1.956   6.134  20.931  0.00  0.00    +0.000 A 
ATOM      8  N   UNL     1       1.413   7.347  21.261  0.00  0.00    +0.000 N 
ATOM      9  C   UNL     1       1.498   8.229  20.202  0.00  0.00    +0.000 A 
ATOM     10  C   UNL     1       1.066   9.570  20.097  0.00  0.00    +0.000 A 
ATOM     11  C   UNL     1       0.377  10.296  21.220  0.00  0.00    +0.000 C 
ATOM     12  H   UNL     1       1.020   7.576  22.164  0.00  0.00    +0.000 HD
ENDROOT
BRANCH   6  13
ATOM     13  C   UNL     1       3.104   5.183  18.946  0.00  0.00    +0.000 C 
ATOM     14  C   UNL     1       4.442   5.017  18.935  0.00  0.00    +0.000 C 
ATOM     15  C   UNL     1       5.103   3.950  18.216  0.00  0.00    +0.000 C 
ATOM     16  C   UNL     1       4.457   3.017  17.519  0.00  0.00    +0.000 C 
ATOM     17  C   UNL     1       2.989   3.059  17.462  0.00  0.00    +0.000 C 
ATOM     18  O   UNL     1       2.368   2.199  16.854  0.00  0.00    +0.000 OA
ATOM     19  C   UNL     1       2.271   4.203  18.175  0.00  0.00    +0.000 C 
ATOM     20  O   UNL     1       1.052   4.291  18.097  0.00  0.00    +0.000 OA
BRANCH  14  21
ATOM     21  O   UNL     1       5.334   5.842  19.603  0.00  0.00    +0.000 OA
ATOM     22  H   UNL     1       6.229   5.456  19.525  0.00  0.00    +0.000 HD
ENDBRANCH  14  21
BRANCH  15  23
ATOM     23  O   UNL     1       6.480   3.939  18.290  0.00  0.00    +0.000 OA
ATOM     24  H   UNL     1       6.695   3.645  19.200  0.00  0.00    +0.000 HD
ENDBRANCH  15  23
ENDBRANCH   6  13
TORSDOF 3
ENDMDL
MODEL 3
REMARK VINA RESULT:      -7.2      3.607      6.748
REMARK  Name = 
REMARK  5 active torsions:
REMARK  status: ('A' for Active; 'I' for Inactive)
REMARK    1  A    between atoms: C_1  and  C_2
REMARK    2  A    between atoms: C_6  and  C_7
REMARK    3  A    between atoms: C_8  and  O_9
REMARK    4  A    between atoms: C_10  and  O_11
REMARK    5  A    between atoms: C_20  and  C_21
REMARK                            x       y       z     vdW  Elec       q    Type
REMARK                         _______ _______ _______ _____ _____    ______ ____
ROOT
ATOM      1  C   UNL     1      -0.209  10.053  22.151  0.00  0.00    +0.000 C 
ATOM      2  C   UNL     1       0.573   9.218  21.167  0.00  0.00    +0.000 A 
ATOM      3  C   UNL     1       0.902   7.902  21.518  0.00  0.00    +0.000 A 
ATOM      4  C   UNL     1       1.615   7.073  20.648  0.00  0.00    +0.000 A 
ATOM      5  C   UNL     1       2.008   7.568  19.391  0.00  0.00    +0.000 A 
ATOM      6  C   UNL     1       2.712   7.013  18.282  0.00  0.00    +0.000 A 
ATOM      7  C   UNL     1       2.803   7.980  17.309  0.00  0.00    +0.000 A 
ATOM      8  N   UNL     1       2.156   9.094  17.775  0.00  0.00    +0.000 N 
ATOM      9  C   UNL     1       1.672   8.882  19.052  0.00  0.00    +0.000 A 
ATOM     10  C   UNL     1       0.955   9.747  19.908  0.00  0.00    +0.000 A 
ATOM     11  C   UNL     1       0.591  11.157  19.527  0.00  0.00    +0.000 C 
ATOM     12  H   UNL     1       2.029   9.950  17.252  0.00  0.00    +0.000 HD
ENDROOT
BRANCH   6  13
ATOM     13  C   UNL     1       3.240   5.691  18.162  0.00  0.00    +0.000 C 
ATOM     14  C   UNL     1       4.534   5.376  18.367  0.00  0.00    +0.000 C 
ATOM     15  C   UNL     1       5.055   4.033  18.235  0.00  0.00    +0.000 C 
ATOM     16  C   UNL     1       4.305   2.976  17.927  0.00  0.00    +0.000 C 
ATOM     17  C   UNL     1       2.865   3.167  17.699  0.00  0.00    +0.000 C 
ATOM     18  O   UNL     1       2.146   2.211  17.444  0.00  0.00    +0.000 OA
ATOM     19  C   UNL     1       2.301   4.583  17.787  0.00  0.00    +0.000 C 
ATOM     20  O   UNL     1       1.115   4.776  17.548  0.00  0.00    +0.000 OA
BRANCH  14  21
ATOM     21  O   UNL     1       5.512   6.294  18.721  0.00  0.00    +0.000 OA
ATOM     22  H   UNL     1       5.899   6.663  17.902  0.00  0.00    +0.000 HD
ENDBRANCH  14  21
BRANCH  15  23
ATOM     23  O   UNL     1       6.408   3.888  18.456  0.00  0.00    +0.000 OA
ATOM     24  H   UNL     1       6.593   4.357  19.297  0.00  0.00    +0.000 HD
ENDBRANCH  15  23
ENDBRANCH   6  13
TORSDOF 3
ENDMDL
MODEL 4
REMARK VINA RESULT:      -7.1      3.358      6.565
REMARK  Name = 
REMARK  5 active torsions:
REMARK  status: ('A' for Active; 'I' for Inactive)
REMARK    1  A    between atoms: C_1  and  C_2
REMARK    2  A    between atoms: C_6  and  C_7
REMARK    3  A    between atoms: C_8  and  O_9
REMARK    4  A    between atoms: C_10  and  O_11
REMARK    5  A    between atoms: C_20  and  C_21
REMARK                            x       y       z     vdW  Elec       q    Type
REMARK                         _______ _______ _______ _____ _____    ______ ____
ROOT
ATOM      1  C   UNL     1       0.849  11.655  18.793  0.00  0.00    +0.000 C 
ATOM      2  C   UNL     1       1.264  10.210  18.918  0.00  0.00    +0.000 A 
ATOM      3  C   UNL     1       1.772   9.558  17.787  0.00  0.00    +0.000 A 
ATOM      4  C   UNL     1       2.185   8.224  17.840  0.00  0.00    +0.000 A 
ATOM      5  C   UNL     1       2.091   7.520  19.055  0.00  0.00    +0.000 A 
ATOM      6  C   UNL     1       2.424   6.195  19.462  0.00  0.00    +0.000 A 
ATOM      7  C   UNL     1       2.109   6.068  20.794  0.00  0.00    +0.000 A 
ATOM      8  N   UNL     1       1.625   7.277  21.219  0.00  0.00    +0.000 N 
ATOM      9  C   UNL     1       1.584   8.183  20.176  0.00  0.00    +0.000 A 
ATOM     10  C   UNL     1       1.156   9.529  20.158  0.00  0.00    +0.000 A 
ATOM     11  C   UNL     1       0.622  10.234  21.375  0.00  0.00    +0.000 C 
ATOM     12  H   UNL     1       1.351   7.488  22.169  0.00  0.00    +0.000 HD
ENDROOT
BRANCH   6  13
ATOM     13  C   UNL     1       2.987   5.156  18.660  0.00  0.00    +0.000 C 
ATOM     14  C   UNL     1       2.342   4.017  18.340  0.00  0.00    +0.000 C 
ATOM     15  C   UNL     1       2.931   2.972  17.531  0.00  0.00    +0.000 C 
ATOM     16  C   UNL     1       4.151   3.043  17.004  0.00  0.00    +0.000 C 
ATOM     17  C   UNL     1       4.965   4.243  17.250  0.00  0.00    +0.000 C 
ATOM     18  O   UNL     1       6.077   4.349  16.756  0.00  0.00    +0.000 OA
ATOM     19  C   UNL     1       4.383   5.339  18.140  0.00  0.00    +0.000 C 
ATOM     20  O   UNL     1       5.062   6.324  18.404  0.00  0.00    +0.000 OA
BRANCH  14  21
ATOM     21  O   UNL     1       1.051   3.714  18.746  0.00  0.00    +0.000 OA
ATOM     22  H   UNL     1       0.552   4.550  18.832  0.00  0.00    +0.000 HD
ENDBRANCH  14  21
BRANCH  15  23
ATOM     23  O   UNL     1       2.142   1.860  17.318  0.00  0.00    +0.000 OA
ATOM     24  H   UNL     1       1.706   1.675  18.177  0.00  0.00    +0.000 HD
ENDBRANCH  15  23
ENDBRANCH   6  13
TORSDOF 3
ENDMDL
MODEL 5
REMARK VINA RESULT:      -7.1      4.105      6.618
REMARK  Name = 
REMARK  5 active torsions:
REMARK  status: ('A' for Active; 'I' for Inactive)
REMARK    1  A    between atoms: C_1  and  C_2
REMARK    2  A    between atoms: C_6  and  C_7
REMARK    3  A    between atoms: C_8  and  O_9
REMARK    4  A    between atoms: C_10  and  O_11
REMARK    5  A    between atoms: C_20  and  C_21
REMARK                            x       y       z     vdW  Elec       q    Type
REMARK                         _______ _______ _______ _____ _____    ______ ____
ROOT
ATOM      1  C   UNL     1       0.110  10.557  21.618  0.00  0.00    +0.000 C 
ATOM      2  C   UNL     1       0.772   9.459  20.824  0.00  0.00    +0.000 A 
ATOM      3  C   UNL     1       0.852   8.179  21.387  0.00  0.00    +0.000 A 
ATOM      4  C   UNL     1       1.442   7.116  20.698  0.00  0.00    +0.000 A 
ATOM      5  C   UNL     1       1.967   7.335  19.411  0.00  0.00    +0.000 A 
ATOM      6  C   UNL     1       2.607   6.502  18.446  0.00  0.00    +0.000 A 
ATOM      7  C   UNL     1       2.905   7.276  17.349  0.00  0.00    +0.000 A 
ATOM      8  N   UNL     1       2.445   8.541  17.601  0.00  0.00    +0.000 N 
ATOM      9  C   UNL     1       1.881   8.617  18.860  0.00  0.00    +0.000 A 
ATOM     10  C   UNL     1       1.293   9.713  19.529  0.00  0.00    +0.000 A 
ATOM     11  C   UNL     1       1.196  11.086  18.920  0.00  0.00    +0.000 C 
ATOM     12  H   UNL     1       2.492   9.313  16.950  0.00  0.00    +0.000 HD
ENDROOT
BRANCH   6  13
ATOM     13  C   UNL     1       2.900   5.109  18.559  0.00  0.00    +0.000 C 
ATOM     14  C   UNL     1       2.135   4.133  18.031  0.00  0.00    +0.000 C 
ATOM     15  C   UNL     1       2.443   2.726  18.160  0.00  0.00    +0.000 C 
ATOM     16  C   UNL     1       3.521   2.259  18.787  0.00  0.00    +0.000 C 
ATOM     17  C   UNL     1       4.462   3.214  19.392  0.00  0.00    +0.000 C 
ATOM     18  O   UNL     1       5.475   2.816  19.949  0.00  0.00    +0.000 OA
ATOM     19  C   UNL     1       4.133   4.702  19.309  0.00  0.00    +0.000 C 
ATOM     20  O   UNL     1       4.873   5.514  19.853  0.00  0.00    +0.000 OA
BRANCH  14  21
ATOM     21  O   UNL     1       0.971   4.360  17.311  0.00  0.00    +0.000 OA
ATOM     22  H   UNL     1       0.305   4.743  17.916  0.00  0.00    +0.000 HD
ENDBRANCH  14  21
BRANCH  15  23
ATOM     23  O   UNL     1       1.542   1.857  17.581  0.00  0.00    +0.000 OA
ATOM     24  H   UNL     1       2.053   1.049  17.363  0.00  0.00    +0.000 HD
ENDBRANCH  15  23
ENDBRANCH   6  13
TORSDOF 3
ENDMDL
MODEL 6
REMARK VINA RESULT:      -7.0      4.981      7.728
REMARK  Name = 
REMARK  5 active torsions:
REMARK  status: ('A' for Active; 'I' for Inactive)
REMARK    1  A    between atoms: C_1  and  C_2
REMARK    2  A    between atoms: C_6  and  C_7
REMARK    3  A    between atoms: C_8  and  O_9
REMARK    4  A    between atoms: C_10  and  O_11
REMARK    5  A    between atoms: C_20  and  C_21
REMARK                            x       y       z     vdW  Elec       q    Type
REMARK                         _______ _______ _______ _____ _____    ______ ____
ROOT
ATOM      1  C   UNL     1       4.109   5.327  17.733  0.00  0.00    +0.000 C 
ATOM      2  C   UNL     1       3.287   6.465  18.286  0.00  0.00    +0.000 A 
ATOM      3  C   UNL     1       3.137   7.622  17.510  0.00  0.00    +0.000 A 
ATOM      4  C   UNL     1       2.379   8.706  17.960  0.00  0.00    +0.000 A 
ATOM      5  C   UNL     1       1.751   8.635  19.217  0.00  0.00    +0.000 A 
ATOM      6  C   UNL     1       0.916   9.520  19.961  0.00  0.00    +0.000 A 
ATOM      7  C   UNL     1       0.593   8.904  21.147  0.00  0.00    +0.000 A 
ATOM      8  N   UNL     1       1.178   7.665  21.138  0.00  0.00    +0.000 N 
ATOM      9  C   UNL     1       1.907   7.474  19.981  0.00  0.00    +0.000 A 
ATOM     10  C   UNL     1       2.667   6.361  19.558  0.00  0.00    +0.000 A 
ATOM     11  C   UNL     1       2.819   5.113  20.385  0.00  0.00    +0.000 C 
ATOM     12  H   UNL     1       1.076   6.974  21.869  0.00  0.00    +0.000 HD
ENDROOT
BRANCH   6  13
ATOM     13  C   UNL     1       0.470  10.821  19.576  0.00  0.00    +0.000 C 
ATOM     14  C   UNL     1      -0.362  11.058  18.542  0.00  0.00    +0.000 C 
ATOM     15  C   UNL     1      -0.799  12.383  18.162  0.00  0.00    +0.000 C 
ATOM     16  C   UNL     1      -0.445  13.492  18.809  0.00  0.00    +0.000 C 
ATOM     17  C   UNL     1       0.443  13.384  19.976  0.00  0.00    +0.000 C 
ATOM     18  O   UNL     1       0.761  14.382  20.607  0.00  0.00    +0.000 OA
ATOM     19  C   UNL     1       0.955  12.000  20.368  0.00  0.00    +0.000 C 
ATOM     20  O   UNL     1       1.739  11.890  21.302  0.00  0.00    +0.000 OA
BRANCH  14  21
ATOM     21  O   UNL     1      -0.890  10.068  17.727  0.00  0.00    +0.000 OA
ATOM     22  H   UNL     1      -0.533  10.189  16.825  0.00  0.00    +0.000 HD
ENDBRANCH  14  21
BRANCH  15  23
ATOM     23  O   UNL     1      -1.631  12.450  17.065  0.00  0.00    +0.000 OA
ATOM     24  H   UNL     1      -1.632  11.550  16.675  0.00  0.00    +0.000 HD
ENDBRANCH  15  23
ENDBRANCH   6  13
TORSDOF 3
ENDMDL
MODEL 7
REMARK VINA RESULT:      -6.9      0.165      2.330
REMARK  Name = 
REMARK  5 active torsions:
REMARK  status: ('A' for Active; 'I' for Inactive)
REMARK    1  A    between atoms: C_1  and  C_2
REMARK    2  A    between atoms: C_6  and  C_7
REMARK    3  A    between atoms: C_8  and  O_9
REMARK    4  A    between atoms: C_10  and  O_11
REMARK    5  A    between atoms: C_20  and  C_21
REMARK                            x       y       z     vdW  Elec       q    Type
REMARK                         _______ _______ _______ _____ _____    ______ ____
ROOT
ATOM      1  C   UNL     1       6.712   3.571  11.953  0.00  0.00    +0.000 C 
ATOM      2  C   UNL     1       6.372   4.113  13.319  0.00  0.00    +0.000 A 
ATOM      3  C   UNL     1       5.187   3.686  13.934  0.00  0.00    +0.000 A 
ATOM      4  C   UNL     1       4.821   4.142  15.203  0.00  0.00    +0.000 A 
ATOM      5  C   UNL     1       5.660   5.047  15.879  0.00  0.00    +0.000 A 
ATOM      6  C   UNL     1       5.606   5.687  17.153  0.00  0.00    +0.000 A 
ATOM      7  C   UNL     1       6.724   6.478  17.278  0.00  0.00    +0.000 A 
ATOM      8  N   UNL     1       7.469   6.319  16.139  0.00  0.00    +0.000 N 
ATOM      9  C   UNL     1       6.839   5.464  15.256  0.00  0.00    +0.000 A 
ATOM     10  C   UNL     1       7.239   5.025  13.974  0.00  0.00    +0.000 A 
ATOM     11  C   UNL     1       8.517   5.474  13.318  0.00  0.00    +0.000 C 
ATOM     12  H   UNL     1       8.368   6.752  15.972  0.00  0.00    +0.000 HD
ENDROOT
BRANCH   6  13
ATOM     13  C   UNL     1       4.592   5.555  18.149  0.00  0.00    +0.000 C 
ATOM     14  C   UNL     1       3.665   6.498  18.412  0.00  0.00    +0.000 C 
ATOM     15  C   UNL     1       2.648   6.350  19.429  0.00  0.00    +0.000 C 
ATOM     16  C   UNL     1       2.511   5.262  20.185  0.00  0.00    +0.000 C 
ATOM     17  C   UNL     1       3.440   4.139  19.992  0.00  0.00    +0.000 C 
ATOM     18  O   UNL     1       3.320   3.116  20.651  0.00  0.00    +0.000 OA
ATOM     19  C   UNL     1       4.551   4.291  18.956  0.00  0.00    +0.000 C 
ATOM     20  O   UNL     1       5.370   3.391  18.814  0.00  0.00    +0.000 OA
BRANCH  14  21
ATOM     21  O   UNL     1       3.580   7.711  17.745  0.00  0.00    +0.000 OA
ATOM     22  H   UNL     1       3.435   7.531  16.795  0.00  0.00    +0.000 HD
ENDBRANCH  14  21
BRANCH  15  23
ATOM     23  O   UNL     1       1.793   7.421  19.585  0.00  0.00    +0.000 OA
ATOM     24  H   UNL     1       2.355   8.172  19.870  0.00  0.00    +0.000 HD
ENDBRANCH  15  23
ENDBRANCH   6  13
TORSDOF 3
ENDMDL
MODEL 8
REMARK VINA RESULT:      -6.9      2.786      6.340
REMARK  Name = 
REMARK  5 active torsions:
REMARK  status: ('A' for Active; 'I' for Inactive)
REMARK    1  A    between atoms: C_1  and  C_2
REMARK    2  A    between atoms: C_6  and  C_7
REMARK    3  A    between atoms: C_8  and  O_9
REMARK    4  A    between atoms: C_10  and  O_11
REMARK    5  A    between atoms: C_20  and  C_21
REMARK                            x       y       z     vdW  Elec       q    Type
REMARK                         _______ _______ _______ _____ _____    ______ ____
ROOT
ATOM      1  C   UNL     1       0.244  10.406  19.164  0.00  0.00    +0.000 C 
ATOM      2  C   UNL     1       1.185   9.238  18.995  0.00  0.00    +0.000 A 
ATOM      3  C   UNL     1       1.941   9.150  17.819  0.00  0.00    +0.000 A 
ATOM      4  C   UNL     1       2.838   8.100  17.607  0.00  0.00    +0.000 A 
ATOM      5  C   UNL     1       2.988   7.110  18.597  0.00  0.00    +0.000 A 
ATOM      6  C   UNL     1       3.797   5.942  18.716  0.00  0.00    +0.000 A 
ATOM      7  C   UNL     1       3.515   5.353  19.927  0.00  0.00    +0.000 A 
ATOM      8  N   UNL     1       2.586   6.137  20.559  0.00  0.00    +0.000 N 
ATOM      9  C   UNL     1       2.229   7.210  19.766  0.00  0.00    +0.000 A 
ATOM     10  C   UNL     1       1.312   8.256  20.012  0.00  0.00    +0.000 A 
ATOM     11  C   UNL     1       0.508   8.359  21.280  0.00  0.00    +0.000 C 
ATOM     12  H   UNL     1       2.223   5.967  21.487  0.00  0.00    +0.000 HD
ENDROOT
BRANCH   6  13
ATOM     13  C   UNL     1       4.744   5.441  17.772  0.00  0.00    +0.000 C 
ATOM     14  C   UNL     1       4.651   4.235  17.178  0.00  0.00    +0.000 C 
ATOM     15  C   UNL     1       5.623   3.741  16.228  0.00  0.00    +0.000 C 
ATOM     16  C   UNL     1       6.686   4.435  15.829  0.00  0.00    +0.000 C 
ATOM     17  C   UNL     1       6.905   5.782  16.378  0.00  0.00    +0.000 C 
ATOM     18  O   UNL     1       7.856   6.454  16.008  0.00  0.00    +0.000 OA
ATOM     19  C   UNL     1       5.917   6.307  17.417  0.00  0.00    +0.000 C 
ATOM     20  O   UNL     1       6.107   7.403  17.929  0.00  0.00    +0.000 OA
BRANCH  14  21
ATOM     21  O   UNL     1       3.622   3.333  17.407  0.00  0.00    +0.000 OA
ATOM     22  H   UNL     1       4.007   2.436  17.467  0.00  0.00    +0.000 HD
ENDBRANCH  14  21
BRANCH  15  23
ATOM     23  O   UNL     1       5.389   2.475  15.733  0.00  0.00    +0.000 OA
ATOM     24  H   UNL     1       6.244   1.999  15.802  0.00  0.00    +0.000 HD
ENDBRANCH  15  23
ENDBRANCH   6  13
TORSDOF 3
ENDMDL
MODEL 9
REMARK VINA RESULT:      -6.8      2.843      6.619
REMARK  Name = 
REMARK  5 active torsions:
REMARK  status: ('A' for Active; 'I' for Inactive)
REMARK    1  A    between atoms: C_1  and  C_2
REMARK    2  A    between atoms: C_6  and  C_7
REMARK    3  A    between atoms: C_8  and  O_9
REMARK    4  A    between atoms: C_10  and  O_11
REMARK    5  A    between atoms: C_20  and  C_21
REMARK                            x       y       z     vdW  Elec       q    Type
REMARK                         _______ _______ _______ _____ _____    ______ ____
ROOT
ATOM      1  C   UNL     1       0.155  10.440  19.292  0.00  0.00    +0.000 C 
ATOM      2  C   UNL     1       1.122   9.303  19.071  0.00  0.00    +0.000 A 
ATOM      3  C   UNL     1       1.881   9.287  17.893  0.00  0.00    +0.000 A 
ATOM      4  C   UNL     1       2.801   8.268  17.635  0.00  0.00    +0.000 A 
ATOM      5  C   UNL     1       2.972   7.237  18.577  0.00  0.00    +0.000 A 
ATOM      6  C   UNL     1       3.807   6.083  18.644  0.00  0.00    +0.000 A 
ATOM      7  C   UNL     1       3.538   5.433  19.825  0.00  0.00    +0.000 A 
ATOM      8  N   UNL     1       2.591   6.165  20.491  0.00  0.00    +0.000 N 
ATOM      9  C   UNL     1       2.211   7.266  19.749  0.00  0.00    +0.000 A 
ATOM     10  C   UNL     1       1.270   8.279  20.041  0.00  0.00    +0.000 A 
ATOM     11  C   UNL     1       0.464   8.303  21.311  0.00  0.00    +0.000 C 
ATOM     12  H   UNL     1       2.231   5.944  21.409  0.00  0.00    +0.000 HD
ENDROOT
BRANCH   6  13
ATOM     13  C   UNL     1       4.767   5.648  17.679  0.00  0.00    +0.000 C 
ATOM     14  C   UNL     1       5.908   6.309  17.400  0.00  0.00    +0.000 C 
ATOM     15  C   UNL     1       6.866   5.857  16.415  0.00  0.00    +0.000 C 
ATOM     16  C   UNL     1       6.728   4.737  15.710  0.00  0.00    +0.000 C 
ATOM     17  C   UNL     1       5.539   3.899  15.927  0.00  0.00    +0.000 C 
ATOM     18  O   UNL     1       5.400   2.850  15.314  0.00  0.00    +0.000 OA
ATOM     19  C   UNL     1       4.492   4.379  16.928  0.00  0.00    +0.000 C 
ATOM     20  O   UNL     1       3.466   3.728  17.086  0.00  0.00    +0.000 OA
BRANCH  14  21
ATOM     21  O   UNL     1       6.294   7.490  18.017  0.00  0.00    +0.000 OA
ATOM     22  H   UNL     1       5.553   8.125  17.956  0.00  0.00    +0.000 HD
ENDBRANCH  14  21
BRANCH  15  23
ATOM     23  O   UNL     1       7.970   6.664  16.236  0.00  0.00    +0.000 OA
ATOM     24  H   UNL     1       8.669   6.082  15.870  0.00  0.00    +0.000 HD
ENDBRANCH  15  23
ENDBRANCH   6  13
TORSDOF 3
ENDMDL
