MODEL 1
REMARK VINA RESULT:      -7.8      0.000      0.000
REMARK  Name = 
REMARK  7 active torsions:
REMARK  status: ('A' for Active; 'I' for Inactive)
REMARK    1  A    between atoms: C_1  and  C_2
REMARK    2  A    between atoms: C_2  and  C_3
REMARK    3  A    between atoms: C_3  and  C_4
REMARK    4  A    between atoms: C_6  and  N_7
REMARK    5  A    between atoms: C_10  and  O_11
REMARK    6  A    between atoms: C_16  and  C_17
REMARK    7  A    between atoms: C_20  and  N_21
REMARK                            x       y       z     vdW  Elec       q    Type
REMARK                         _______ _______ _______ _____ _____    ______ ____
ROOT
ATOM      1  C   UNL     1       2.959   5.606  19.678  0.00  0.00    +0.000 A 
ATOM      2  C   UNL     1       2.159   6.756  19.794  0.00  0.00    +0.000 A 
ATOM      3  C   UNL     1       2.253   7.824  18.902  0.00  0.00    +0.000 A 
ATOM      4  N   UNL     1       3.118   7.789  17.867  0.00  0.00    +0.000 NA
ATOM      5  C   UNL     1       3.910   6.692  17.778  0.00  0.00    +0.000 A 
ATOM      6  S   UNL     1       5.088   6.550  16.541  0.00  0.00    +0.000 S 
ATOM      7  C   UNL     1       5.629   5.022  17.100  0.00  0.00    +0.000 A 
ATOM      8  C   UNL     1       4.904   4.631  18.214  0.00  0.00    +0.000 A 
ATOM      9  C   UNL     1       3.907   5.587  18.626  0.00  0.00    +0.000 A 
ENDROOT
BRANCH   3  10
ATOM     10  N   UNL     1       1.451   8.934  19.078  0.00  0.00    +0.000 N 
ATOM     11  C   UNL     1       0.881   9.280  20.373  0.00  0.00    +0.000 C 
ATOM     12  C   UNL     1       0.221  10.649  20.158  0.00  0.00    +0.000 C 
ATOM     13  C   UNL     1       0.870  11.203  18.895  0.00  0.00    +0.000 C 
ATOM     14  C   UNL     1       1.160   9.945  18.070  0.00  0.00    +0.000 C 
BRANCH  13  15
ATOM     15  O   UNL     1       0.027  12.133  18.231  0.00  0.00    +0.000 OA
ATOM     16  H   UNL     1      -0.739  12.323  18.799  0.00  0.00    +0.000 HD
ENDBRANCH  13  15
ENDBRANCH   3  10
BRANCH   7  17
ATOM     17  C   UNL     1       6.699   4.261  16.465  0.00  0.00    +0.000 C 
ATOM     18  N   UNL     1       6.380   3.379  15.481  0.00  0.00    +0.000 N 
ATOM     19  O   UNL     1       7.901   4.363  16.775  0.00  0.00    +0.000 OA
ATOM     20  H   UNL     1       5.429   3.224  15.185  0.00  0.00    +0.000 HD
ATOM     21  H   UNL     1       7.133   2.852  15.057  0.00  0.00    +0.000 HD
ENDBRANCH   7  17
BRANCH   8  22
ATOM     22  N   UNL     1       5.163   3.453  18.828  0.00  0.00    +0.000 N 
ATOM     23  H   UNL     1       5.755   3.425  19.664  0.00  0.00    +0.000 HD
ATOM     24  H   UNL     1       5.026   2.540  18.422  0.00  0.00    +0.000 HD
ENDBRANCH   8  22
BRANCH   1  25
ATOM     25  C   UNL     1       2.765   4.488  20.670  0.00  0.00    +0.000 C 
BRANCH  25  27
ATOM     26  C   UNL     1       0.994   3.079  19.577  0.00  0.00    +0.000 C 
ATOM     27  C   UNL     1       1.312   4.023  20.725  0.00  0.00    +0.000 C 
ENDBRANCH  25  27
ENDBRANCH   1  25
TORSDOF 6
ENDMDL
MODEL 2
REMARK VINA RESULT:      -7.7      0.726      1.121
REMARK  Name = 
REMARK  7 active torsions:
REMARK  status: ('A' for Active; 'I' for Inactive)
REMARK    1  A    between atoms: C_1  and  C_2
REMARK    2  A    between atoms: C_2  and  C_3
REMARK    3  A    between atoms: C_3  and  C_4
REMARK    4  A    between atoms: C_6  and  N_7
REMARK    5  A    between atoms: C_10  and  O_11
REMARK    6  A    between atoms: C_16  and  C_17
REMARK    7  A    between atoms: C_20  and  N_21
REMARK                            x       y       z     vdW  Elec       q    Type
REMARK                         _______ _______ _______ _____ _____    ______ ____
ROOT
ATOM      1  C   UNL     1       2.953   5.521  19.732  0.00  0.00    +0.000 A 
ATOM      2  C   UNL     1       2.148   6.667  19.855  0.00  0.00    +0.000 A 
ATOM      3  C   UNL     1       2.249   7.747  18.980  0.00  0.00    +0.000 A 
ATOM      4  N   UNL     1       3.127   7.730  17.956  0.00  0.00    +0.000 NA
ATOM      5  C   UNL     1       3.924   6.636  17.861  0.00  0.00    +0.000 A 
ATOM      6  S   UNL     1       5.118   6.517  16.636  0.00  0.00    +0.000 S 
ATOM      7  C   UNL     1       5.657   4.982  17.181  0.00  0.00    +0.000 A 
ATOM      8  C   UNL     1       4.920   4.573  18.279  0.00  0.00    +0.000 A 
ATOM      9  C   UNL     1       3.914   5.520  18.692  0.00  0.00    +0.000 A 
ENDROOT
BRANCH   3  10
ATOM     10  N   UNL     1       1.442   8.851  19.162  0.00  0.00    +0.000 N 
ATOM     11  C   UNL     1       0.951   9.645  18.042  0.00  0.00    +0.000 C 
ATOM     12  C   UNL     1      -0.029  10.645  18.671  0.00  0.00    +0.000 C 
ATOM     13  C   UNL     1      -0.393  10.042  20.023  0.00  0.00    +0.000 C 
ATOM     14  C   UNL     1       0.886   9.304  20.431  0.00  0.00    +0.000 C 
BRANCH  13  15
ATOM     15  O   UNL     1      -0.794  11.035  20.955  0.00  0.00    +0.000 OA
ATOM     16  H   UNL     1      -0.016  11.319  21.465  0.00  0.00    +0.000 HD
ENDBRANCH  13  15
ENDBRANCH   3  10
BRANCH   7  17
ATOM     17  C   UNL     1       6.738   4.234  16.548  0.00  0.00    +0.000 C 
ATOM     18  N   UNL     1       6.454   3.462  15.466  0.00  0.00    +0.000 N 
ATOM     19  O   UNL     1       7.918   4.253  16.944  0.00  0.00    +0.000 OA
ATOM     20  H   UNL     1       5.520   3.378  15.095  0.00  0.00    +0.000 HD
ATOM     21  H   UNL     1       7.212   2.942  15.044  0.00  0.00    +0.000 HD
ENDBRANCH   7  17
BRANCH   8  22
ATOM     22  N   UNL     1       5.175   3.387  18.880  0.00  0.00    +0.000 N 
ATOM     23  H   UNL     1       5.174   3.315  19.902  0.00  0.00    +0.000 HD
ATOM     24  H   UNL     1       5.603   2.589  18.438  0.00  0.00    +0.000 HD
ENDBRANCH   8  22
BRANCH   1  25
ATOM     25  C   UNL     1       2.752   4.388  20.706  0.00  0.00    +0.000 C 
BRANCH  25  27
ATOM     26  C   UNL     1       0.998   2.971  19.596  0.00  0.00    +0.000 C 
ATOM     27  C   UNL     1       1.298   3.923  20.742  0.00  0.00    +0.000 C 
ENDBRANCH  25  27
ENDBRANCH   1  25
TORSDOF 6
ENDMDL
MODEL 3
REMARK VINA RESULT:      -7.6      1.657      1.944
REMARK  Name = 
REMARK  7 active torsions:
REMARK  status: ('A' for Active; 'I' for Inactive)
REMARK    1  A    between atoms: C_1  and  C_2
REMARK    2  A    between atoms: C_2  and  C_3
REMARK    3  A    between atoms: C_3  and  C_4
REMARK    4  A    between atoms: C_6  and  N_7
REMARK    5  A    between atoms: C_10  and  O_11
REMARK    6  A    between atoms: C_16  and  C_17
REMARK    7  A    between atoms: C_20  and  N_21
REMARK                            x       y       z     vdW  Elec       q    Type
REMARK                         _______ _______ _______ _____ _____    ______ ____
ROOT
ATOM      1  C   UNL     1       2.839   4.821  18.964  0.00  0.00    +0.000 A 
ATOM      2  C   UNL     1       2.160   5.885  19.584  0.00  0.00    +0.000 A 
ATOM      3  C   UNL     1       2.348   7.213  19.203  0.00  0.00    +0.000 A 
ATOM      4  N   UNL     1       3.190   7.534  18.199  0.00  0.00    +0.000 NA
ATOM      5  C   UNL     1       3.866   6.507  17.626  0.00  0.00    +0.000 A 
ATOM      6  S   UNL     1       5.006   6.789  16.377  0.00  0.00    +0.000 S 
ATOM      7  C   UNL     1       5.399   5.126  16.232  0.00  0.00    +0.000 A 
ATOM      8  C   UNL     1       4.655   4.374  17.126  0.00  0.00    +0.000 A 
ATOM      9  C   UNL     1       3.765   5.157  17.947  0.00  0.00    +0.000 A 
ENDROOT
BRANCH   3  10
ATOM     10  N   UNL     1       1.665   8.215  19.861  0.00  0.00    +0.000 N 
ATOM     11  C   UNL     1       1.201   9.415  19.177  0.00  0.00    +0.000 C 
ATOM     12  C   UNL     1       0.358  10.161  20.220  0.00  0.00    +0.000 C 
ATOM     13  C   UNL     1       0.004   9.107  21.264  0.00  0.00    +0.000 C 
ATOM     14  C   UNL     1       1.221   8.178  21.249  0.00  0.00    +0.000 C 
BRANCH  13  15
ATOM     15  O   UNL     1      -0.250   9.687  22.535  0.00  0.00    +0.000 OA
ATOM     16  H   UNL     1       0.348   9.284  23.188  0.00  0.00    +0.000 HD
ENDBRANCH  13  15
ENDBRANCH   3  10
BRANCH   7  17
ATOM     17  C   UNL     1       6.378   4.606  15.284  0.00  0.00    +0.000 C 
ATOM     18  N   UNL     1       7.556   5.268  15.130  0.00  0.00    +0.000 N 
ATOM     19  O   UNL     1       6.200   3.586  14.592  0.00  0.00    +0.000 OA
ATOM     20  H   UNL     1       7.769   6.112  15.638  0.00  0.00    +0.000 HD
ATOM     21  H   UNL     1       8.220   4.900  14.461  0.00  0.00    +0.000 HD
ENDBRANCH   7  17
BRANCH   8  22
ATOM     22  N   UNL     1       4.803   3.030  17.189  0.00  0.00    +0.000 N 
ATOM     23  H   UNL     1       5.363   2.606  17.935  0.00  0.00    +0.000 HD
ATOM     24  H   UNL     1       4.611   2.385  16.439  0.00  0.00    +0.000 HD
ENDBRANCH   8  22
BRANCH   1  25
ATOM     25  C   UNL     1       2.549   3.415  19.421  0.00  0.00    +0.000 C 
BRANCH  25  27
ATOM     26  C   UNL     1       1.564   2.705  21.622  0.00  0.00    +0.000 C 
ATOM     27  C   UNL     1       1.283   3.344  20.272  0.00  0.00    +0.000 C 
ENDBRANCH  25  27
ENDBRANCH   1  25
TORSDOF 6
ENDMDL
MODEL 4
REMARK VINA RESULT:      -7.5      1.115      1.179
REMARK  Name = 
REMARK  7 active torsions:
REMARK  status: ('A' for Active; 'I' for Inactive)
REMARK    1  A    between atoms: C_1  and  C_2
REMARK    2  A    between atoms: C_2  and  C_3
REMARK    3  A    between atoms: C_3  and  C_4
REMARK    4  A    between atoms: C_6  and  N_7
REMARK    5  A    between atoms: C_10  and  O_11
REMARK    6  A    between atoms: C_16  and  C_17
REMARK    7  A    between atoms: C_20  and  N_21
REMARK                            x       y       z     vdW  Elec       q    Type
REMARK                         _______ _______ _______ _____ _____    ______ ____
ROOT
ATOM      1  C   UNL     1       2.692   5.060  19.942  0.00  0.00    +0.000 A 
ATOM      2  C   UNL     1       1.960   6.188  20.352  0.00  0.00    +0.000 A 
ATOM      3  C   UNL     1       2.075   7.423  19.716  0.00  0.00    +0.000 A 
ATOM      4  N   UNL     1       2.894   7.585  18.656  0.00  0.00    +0.000 NA
ATOM      5  C   UNL     1       3.621   6.502  18.284  0.00  0.00    +0.000 A 
ATOM      6  S   UNL     1       4.738   6.591  16.987  0.00  0.00    +0.000 S 
ATOM      7  C   UNL     1       5.218   4.954  17.164  0.00  0.00    +0.000 A 
ATOM      8  C   UNL     1       4.520   4.355  18.199  0.00  0.00    +0.000 A 
ATOM      9  C   UNL     1       3.593   5.237  18.864  0.00  0.00    +0.000 A 
ENDROOT
BRANCH   3  10
ATOM     10  N   UNL     1       1.342   8.499  20.176  0.00  0.00    +0.000 N 
ATOM     11  C   UNL     1       1.005   8.661  21.584  0.00  0.00    +0.000 C 
ATOM     12  C   UNL     1       0.353  10.048  21.674  0.00  0.00    +0.000 C 
ATOM     13  C   UNL     1       0.796  10.773  20.408  0.00  0.00    +0.000 C 
ATOM     14  C   UNL     1       0.913   9.642  19.381  0.00  0.00    +0.000 C 
BRANCH  13  15
ATOM     15  O   UNL     1      -0.122  11.788  20.029  0.00  0.00    +0.000 OA
ATOM     16  H   UNL     1      -0.760  11.919  20.752  0.00  0.00    +0.000 HD
ENDBRANCH  13  15
ENDBRANCH   3  10
BRANCH   7  17
ATOM     17  C   UNL     1       6.219   4.309  16.320  0.00  0.00    +0.000 C 
ATOM     18  N   UNL     1       7.516   4.705  16.424  0.00  0.00    +0.000 N 
ATOM     19  O   UNL     1       5.958   3.414  15.496  0.00  0.00    +0.000 OA
ATOM     20  H   UNL     1       7.806   5.437  17.054  0.00  0.00    +0.000 HD
ATOM     21  H   UNL     1       8.196   4.255  15.826  0.00  0.00    +0.000 HD
ENDBRANCH   7  17
BRANCH   8  22
ATOM     22  N   UNL     1       4.740   3.059  18.521  0.00  0.00    +0.000 N 
ATOM     23  H   UNL     1       5.358   2.480  17.944  0.00  0.00    +0.000 HD
ATOM     24  H   UNL     1       4.176   2.510  19.152  0.00  0.00    +0.000 HD
ENDBRANCH   8  22
BRANCH   1  25
ATOM     25  C   UNL     1       2.480   3.757  20.669  0.00  0.00    +0.000 C 
BRANCH  25  27
ATOM     26  C   UNL     1       0.941   2.599  19.054  0.00  0.00    +0.000 C 
ATOM     27  C   UNL     1       1.075   3.202  20.443  0.00  0.00    +0.000 C 
ENDBRANCH  25  27
ENDBRANCH   1  25
TORSDOF 6
ENDMDL
MODEL 5
REMARK VINA RESULT:      -7.3      2.168      3.515
REMARK  Name = 
REMARK  7 active torsions:
REMARK  status: ('A' for Active; 'I' for Inactive)
REMARK    1  A    between atoms: C_1  and  C_2
REMARK    2  A    between atoms: C_2  and  C_3
REMARK    3  A    between atoms: C_3  and  C_4
REMARK    4  A    between atoms: C_6  and  N_7
REMARK    5  A    between atoms: C_10  and  O_11
REMARK    6  A    between atoms: C_16  and  C_17
REMARK    7  A    between atoms: C_20  and  N_21
REMARK                            x       y       z     vdW  Elec       q    Type
REMARK                         _______ _______ _______ _____ _____    ______ ____
ROOT
ATOM      1  C   UNL     1       4.257   6.548  17.630  0.00  0.00    +0.000 A 
ATOM      2  C   UNL     1       3.422   7.653  17.872  0.00  0.00    +0.000 A 
ATOM      3  C   UNL     1       2.405   7.624  18.825  0.00  0.00    +0.000 A 
ATOM      4  N   UNL     1       2.187   6.524  19.575  0.00  0.00    +0.000 NA
ATOM      5  C   UNL     1       2.974   5.450  19.315  0.00  0.00    +0.000 A 
ATOM      6  S   UNL     1       2.762   3.974  20.161  0.00  0.00    +0.000 S 
ATOM      7  C   UNL     1       4.020   3.190  19.299  0.00  0.00    +0.000 A 
ATOM      8  C   UNL     1       4.594   4.059  18.385  0.00  0.00    +0.000 A 
ATOM      9  C   UNL     1       3.998   5.372  18.375  0.00  0.00    +0.000 A 
ENDROOT
BRANCH   3  10
ATOM     10  N   UNL     1       1.608   8.736  19.006  0.00  0.00    +0.000 N 
ATOM     11  C   UNL     1       1.024   9.069  20.300  0.00  0.00    +0.000 C 
ATOM     12  C   UNL     1       0.374  10.444  20.094  0.00  0.00    +0.000 C 
ATOM     13  C   UNL     1       1.040  11.011  18.845  0.00  0.00    +0.000 C 
ATOM     14  C   UNL     1       1.333   9.762  18.008  0.00  0.00    +0.000 C 
BRANCH  13  15
ATOM     15  O   UNL     1       0.210  11.954  18.183  0.00  0.00    +0.000 OA
ATOM     16  H   UNL     1       0.372  12.835  18.563  0.00  0.00    +0.000 HD
ENDBRANCH  13  15
ENDBRANCH   3  10
BRANCH   7  17
ATOM     17  C   UNL     1       4.414   1.804  19.525  0.00  0.00    +0.000 C 
ATOM     18  N   UNL     1       3.971   0.849  18.665  0.00  0.00    +0.000 N 
ATOM     19  O   UNL     1       5.132   1.433  20.471  0.00  0.00    +0.000 OA
ATOM     20  H   UNL     1       3.369   1.064  17.884  0.00  0.00    +0.000 HD
ATOM     21  H   UNL     1       4.245  -0.109  18.840  0.00  0.00    +0.000 HD
ENDBRANCH   7  17
BRANCH   8  22
ATOM     22  N   UNL     1       5.609   3.652  17.588  0.00  0.00    +0.000 N 
ATOM     23  H   UNL     1       5.674   2.673  17.291  0.00  0.00    +0.000 HD
ATOM     24  H   UNL     1       6.465   4.160  17.428  0.00  0.00    +0.000 HD
ENDBRANCH   8  22
BRANCH   1  25
ATOM     25  C   UNL     1       5.351   6.680  16.602  0.00  0.00    +0.000 C 
BRANCH  25  27
ATOM     26  C   UNL     1       7.483   6.580  17.929  0.00  0.00    +0.000 C 
ATOM     27  C   UNL     1       6.541   7.473  17.138  0.00  0.00    +0.000 C 
ENDBRANCH  25  27
ENDBRANCH   1  25
TORSDOF 6
ENDMDL
MODEL 6
REMARK VINA RESULT:      -7.2      2.282      3.682
REMARK  Name = 
REMARK  7 active torsions:
REMARK  status: ('A' for Active; 'I' for Inactive)
REMARK    1  A    between atoms: C_1  and  C_2
REMARK    2  A    between atoms: C_2  and  C_3
REMARK    3  A    between atoms: C_3  and  C_4
REMARK    4  A    between atoms: C_6  and  N_7
REMARK    5  A    between atoms: C_10  and  O_11
REMARK    6  A    between atoms: C_16  and  C_17
REMARK    7  A    between atoms: C_20  and  N_21
REMARK                            x       y       z     vdW  Elec       q    Type
REMARK                         _______ _______ _______ _____ _____    ______ ____
ROOT
ATOM      1  C   UNL     1       4.215   6.537  17.644  0.00  0.00    +0.000 A 
ATOM      2  C   UNL     1       3.387   7.642  17.910  0.00  0.00    +0.000 A 
ATOM      3  C   UNL     1       2.394   7.612  18.888  0.00  0.00    +0.000 A 
ATOM      4  N   UNL     1       2.195   6.510  19.641  0.00  0.00    +0.000 NA
ATOM      5  C   UNL     1       2.974   5.437  19.359  0.00  0.00    +0.000 A 
ATOM      6  S   UNL     1       2.783   3.959  20.206  0.00  0.00    +0.000 S 
ATOM      7  C   UNL     1       4.019   3.176  19.311  0.00  0.00    +0.000 A 
ATOM      8  C   UNL     1       4.569   4.047  18.385  0.00  0.00    +0.000 A 
ATOM      9  C   UNL     1       3.974   5.360  18.393  0.00  0.00    +0.000 A 
ENDROOT
BRANCH   3  10
ATOM     10  N   UNL     1       1.602   8.724  19.092  0.00  0.00    +0.000 N 
ATOM     11  C   UNL     1       1.183   9.588  17.996  0.00  0.00    +0.000 C 
ATOM     12  C   UNL     1       0.194  10.575  18.631  0.00  0.00    +0.000 C 
ATOM     13  C   UNL     1      -0.246   9.909  19.930  0.00  0.00    +0.000 C 
ATOM     14  C   UNL     1       0.996   9.121  20.357  0.00  0.00    +0.000 C 
BRANCH  13  15
ATOM     15  O   UNL     1      -0.672  10.860  20.895  0.00  0.00    +0.000 OA
ATOM     16  H   UNL     1       0.068  11.047  21.498  0.00  0.00    +0.000 HD
ENDBRANCH  13  15
ENDBRANCH   3  10
BRANCH   7  17
ATOM     17  C   UNL     1       4.417   1.789  19.524  0.00  0.00    +0.000 C 
ATOM     18  N   UNL     1       3.974   0.840  18.657  0.00  0.00    +0.000 N 
ATOM     19  O   UNL     1       5.141   1.412  20.464  0.00  0.00    +0.000 OA
ATOM     20  H   UNL     1       3.369   1.060  17.881  0.00  0.00    +0.000 HD
ATOM     21  H   UNL     1       4.251  -0.118  18.824  0.00  0.00    +0.000 HD
ENDBRANCH   7  17
BRANCH   8  22
ATOM     22  N   UNL     1       5.564   3.641  17.562  0.00  0.00    +0.000 N 
ATOM     23  H   UNL     1       6.427   4.189  17.485  0.00  0.00    +0.000 HD
ATOM     24  H   UNL     1       5.470   2.965  16.820  0.00  0.00    +0.000 HD
ENDBRANCH   8  22
BRANCH   1  25
ATOM     25  C   UNL     1       5.282   6.672  16.589  0.00  0.00    +0.000 C 
BRANCH  25  27
ATOM     26  C   UNL     1       7.447   6.551  17.860  0.00  0.00    +0.000 C 
ATOM     27  C   UNL     1       6.490   7.454  17.100  0.00  0.00    +0.000 C 
ENDBRANCH  25  27
ENDBRANCH   1  25
TORSDOF 6
ENDMDL
MODEL 7
REMARK VINA RESULT:      -7.1      3.938      5.673
REMARK  Name = 
REMARK  7 active torsions:
REMARK  status: ('A' for Active; 'I' for Inactive)
REMARK    1  A    between atoms: C_1  and  C_2
REMARK    2  A    between atoms: C_2  and  C_3
REMARK    3  A    between atoms: C_3  and  C_4
REMARK    4  A    between atoms: C_6  and  N_7
REMARK    5  A    between atoms: C_10  and  O_11
REMARK    6  A    between atoms: C_16  and  C_17
REMARK    7  A    between atoms: C_20  and  N_21
REMARK                            x       y       z     vdW  Elec       q    Type
REMARK                         _______ _______ _______ _____ _____    ______ ____
ROOT
ATOM      1  C   UNL     1       6.417   5.526  17.593  0.00  0.00    +0.000 A 
ATOM      2  C   UNL     1       5.482   5.299  18.618  0.00  0.00    +0.000 A 
ATOM      3  C   UNL     1       4.387   4.452  18.454  0.00  0.00    +0.000 A 
ATOM      4  N   UNL     1       4.185   3.795  17.293  0.00  0.00    +0.000 NA
ATOM      5  C   UNL     1       5.072   4.043  16.297  0.00  0.00    +0.000 A 
ATOM      6  S   UNL     1       4.896   3.313  14.756  0.00  0.00    +0.000 S 
ATOM      7  C   UNL     1       6.284   4.096  14.122  0.00  0.00    +0.000 A 
ATOM      8  C   UNL     1       6.871   4.896  15.088  0.00  0.00    +0.000 A 
ATOM      9  C   UNL     1       6.181   4.882  16.354  0.00  0.00    +0.000 A 
ENDROOT
BRANCH   3  10
ATOM     10  N   UNL     1       3.494   4.282  19.493  0.00  0.00    +0.000 N 
ATOM     11  C   UNL     1       2.424   5.234  19.759  0.00  0.00    +0.000 C 
ATOM     12  C   UNL     1       1.583   4.581  20.864  0.00  0.00    +0.000 C 
ATOM     13  C   UNL     1       1.950   3.102  20.814  0.00  0.00    +0.000 C 
ATOM     14  C   UNL     1       3.416   3.120  20.370  0.00  0.00    +0.000 C 
BRANCH  13  15
ATOM     15  O   UNL     1       1.747   2.463  22.066  0.00  0.00    +0.000 OA
ATOM     16  H   UNL     1       2.462   2.725  22.671  0.00  0.00    +0.000 HD
ENDBRANCH  13  15
ENDBRANCH   3  10
BRANCH   7  17
ATOM     17  C   UNL     1       6.759   3.918  12.754  0.00  0.00    +0.000 C 
ATOM     18  N   UNL     1       6.417   2.785  12.085  0.00  0.00    +0.000 N 
ATOM     19  O   UNL     1       7.472   4.744  12.154  0.00  0.00    +0.000 OA
ATOM     20  H   UNL     1       5.858   2.059  12.506  0.00  0.00    +0.000 HD
ATOM     21  H   UNL     1       6.761   2.672  11.140  0.00  0.00    +0.000 HD
ENDBRANCH   7  17
BRANCH   8  22
ATOM     22  N   UNL     1       7.984   5.614  14.808  0.00  0.00    +0.000 N 
ATOM     23  H   UNL     1       8.313   5.702  13.842  0.00  0.00    +0.000 HD
ATOM     24  H   UNL     1       8.681   5.895  15.479  0.00  0.00    +0.000 HD
ENDBRANCH   8  22
BRANCH   1  25
ATOM     25  C   UNL     1       7.588   6.434  17.871  0.00  0.00    +0.000 C 
BRANCH  25  27
ATOM     26  C   UNL     1       8.267   8.846  18.061  0.00  0.00    +0.000 C 
ATOM     27  C   UNL     1       7.331   7.858  17.385  0.00  0.00    +0.000 C 
ENDBRANCH  25  27
ENDBRANCH   1  25
TORSDOF 6
ENDMDL
MODEL 8
REMARK VINA RESULT:      -7.1      1.038      1.167
REMARK  Name = 
REMARK  7 active torsions:
REMARK  status: ('A' for Active; 'I' for Inactive)
REMARK    1  A    between atoms: C_1  and  C_2
REMARK    2  A    between atoms: C_2  and  C_3
REMARK    3  A    between atoms: C_3  and  C_4
REMARK    4  A    between atoms: C_6  and  N_7
REMARK    5  A    between atoms: C_10  and  O_11
REMARK    6  A    between atoms: C_16  and  C_17
REMARK    7  A    between atoms: C_20  and  N_21
REMARK                            x       y       z     vdW  Elec       q    Type
REMARK                         _______ _______ _______ _____ _____    ______ ____
ROOT
ATOM      1  C   UNL     1       2.575   5.231  18.129  0.00  0.00    +0.000 A 
ATOM      2  C   UNL     1       1.806   6.320  18.574  0.00  0.00    +0.000 A 
ATOM      3  C   UNL     1       2.258   7.637  18.488  0.00  0.00    +0.000 A 
ATOM      4  N   UNL     1       3.462   7.924  17.952  0.00  0.00    +0.000 NA
ATOM      5  C   UNL     1       4.213   6.867  17.553  0.00  0.00    +0.000 A 
ATOM      6  S   UNL     1       5.784   7.093  16.906  0.00  0.00    +0.000 S 
ATOM      7  C   UNL     1       6.043   5.411  16.696  0.00  0.00    +0.000 A 
ATOM      8  C   UNL     1       4.932   4.696  17.111  0.00  0.00    +0.000 A 
ATOM      9  C   UNL     1       3.863   5.521  17.616  0.00  0.00    +0.000 A 
ENDROOT
BRANCH   3  10
ATOM     10  N   UNL     1       1.463   8.663  18.957  0.00  0.00    +0.000 N 
ATOM     11  C   UNL     1       1.178   8.836  20.375  0.00  0.00    +0.000 C 
ATOM     12  C   UNL     1       0.423  10.169  20.464  0.00  0.00    +0.000 C 
ATOM     13  C   UNL     1       0.749  10.893  19.162  0.00  0.00    +0.000 C 
ATOM     14  C   UNL     1       0.909   9.748  18.157  0.00  0.00    +0.000 C 
BRANCH  13  15
ATOM     15  O   UNL     1      -0.263  11.823  18.805  0.00  0.00    +0.000 OA
ATOM     16  H   UNL     1      -0.763  11.466  18.050  0.00  0.00    +0.000 HD
ENDBRANCH  13  15
ENDBRANCH   3  10
BRANCH   7  17
ATOM     17  C   UNL     1       7.270   4.844  16.147  0.00  0.00    +0.000 C 
ATOM     18  N   UNL     1       7.581   5.093  14.847  0.00  0.00    +0.000 N 
ATOM     19  O   UNL     1       8.057   4.132  16.798  0.00  0.00    +0.000 OA
ATOM     20  H   UNL     1       6.987   5.644  14.247  0.00  0.00    +0.000 HD
ATOM     21  H   UNL     1       8.431   4.685  14.478  0.00  0.00    +0.000 HD
ENDBRANCH   7  17
BRANCH   8  22
ATOM     22  N   UNL     1       4.914   3.345  17.039  0.00  0.00    +0.000 N 
ATOM     23  H   UNL     1       4.882   2.876  16.128  0.00  0.00    +0.000 HD
ATOM     24  H   UNL     1       4.693   2.722  17.800  0.00  0.00    +0.000 HD
ENDBRANCH   8  22
BRANCH   1  25
ATOM     25  C   UNL     1       1.993   3.845  18.234  0.00  0.00    +0.000 C 
BRANCH  25  27
ATOM     26  C   UNL     1       1.106   3.266  20.514  0.00  0.00    +0.000 C 
ATOM     27  C   UNL     1       2.305   3.198  19.582  0.00  0.00    +0.000 C 
ENDBRANCH  25  27
ENDBRANCH   1  25
TORSDOF 6
ENDMDL
MODEL 9
REMARK VINA RESULT:      -7.0      1.847      6.497
REMARK  Name = 
REMARK  7 active torsions:
REMARK  status: ('A' for Active; 'I' for Inactive)
REMARK    1  A    between atoms: C_1  and  C_2
REMARK    2  A    between atoms: C_2  and  C_3
REMARK    3  A    between atoms: C_3  and  C_4
REMARK    4  A    between atoms: C_6  and  N_7
REMARK    5  A    between atoms: C_10  and  O_11
REMARK    6  A    between atoms: C_16  and  C_17
REMARK    7  A    between atoms: C_20  and  N_21
REMARK                            x       y       z     vdW  Elec       q    Type
REMARK                         _______ _______ _______ _____ _____    ______ ____
ROOT
ATOM      1  C   UNL     1       2.649   6.002  19.764  0.00  0.00    +0.000 A 
ATOM      2  C   UNL     1       3.564   5.417  18.871  0.00  0.00    +0.000 A 
ATOM      3  C   UNL     1       4.040   6.087  17.745  0.00  0.00    +0.000 A 
ATOM      4  N   UNL     1       3.647   7.348  17.470  0.00  0.00    +0.000 NA
ATOM      5  C   UNL     1       2.740   7.896  18.317  0.00  0.00    +0.000 A 
ATOM      6  S   UNL     1       2.119   9.472  18.048  0.00  0.00    +0.000 S 
ATOM      7  C   UNL     1       1.102   9.409  19.428  0.00  0.00    +0.000 A 
ATOM      8  C   UNL     1       1.251   8.198  20.082  0.00  0.00    +0.000 A 
ATOM      9  C   UNL     1       2.191   7.305  19.451  0.00  0.00    +0.000 A 
ENDROOT
BRANCH   3  10
ATOM     10  N   UNL     1       4.925   5.454  16.896  0.00  0.00    +0.000 N 
ATOM     11  C   UNL     1       4.754   4.063  16.496  0.00  0.00    +0.000 C 
ATOM     12  C   UNL     1       5.837   3.825  15.435  0.00  0.00    +0.000 C 
ATOM     13  C   UNL     1       6.234   5.218  14.959  0.00  0.00    +0.000 C 
ATOM     14  C   UNL     1       6.049   6.080  16.211  0.00  0.00    +0.000 C 
BRANCH  13  15
ATOM     15  O   UNL     1       7.558   5.245  14.445  0.00  0.00    +0.000 OA
ATOM     16  H   UNL     1       7.986   6.072  14.725  0.00  0.00    +0.000 HD
ENDBRANCH  13  15
ENDBRANCH   3  10
BRANCH   7  17
ATOM     17  C   UNL     1       0.222  10.499  19.833  0.00  0.00    +0.000 C 
ATOM     18  N   UNL     1      -0.621  11.037  18.912  0.00  0.00    +0.000 N 
ATOM     19  O   UNL     1       0.197  10.980  20.982  0.00  0.00    +0.000 OA
ATOM     20  H   UNL     1      -0.648  10.718  17.956  0.00  0.00    +0.000 HD
ATOM     21  H   UNL     1      -1.218  11.799  19.206  0.00  0.00    +0.000 HD
ENDBRANCH   7  17
BRANCH   8  22
ATOM     22  N   UNL     1       0.540   7.926  21.202  0.00  0.00    +0.000 N 
ATOM     23  H   UNL     1       0.064   8.680  21.708  0.00  0.00    +0.000 HD
ATOM     24  H   UNL     1       0.608   7.080  21.745  0.00  0.00    +0.000 HD
ENDBRANCH   8  22
BRANCH   1  25
ATOM     25  C   UNL     1       2.214   5.214  20.972  0.00  0.00    +0.000 C 
BRANCH  25  27
ATOM     26  C   UNL     1       1.445   2.861  21.408  0.00  0.00    +0.000 C 
ATOM     27  C   UNL     1       1.201   4.131  20.609  0.00  0.00    +0.000 C 
ENDBRANCH  25  27
ENDBRANCH   1  25
TORSDOF 6
ENDMDL
