MODEL 1
REMARK VINA RESULT:      -8.5      0.000      0.000
REMARK  Name = 
REMARK  5 active torsions:
REMARK  status: ('A' for Active; 'I' for Inactive)
REMARK    1  A    between atoms: C_1  and  C_2
REMARK    2  A    between atoms: C_6  and  C_8
REMARK    3  A    between atoms: C_15  and  S_16
REMARK    4  A    between atoms: S_16  and  C_19
REMARK    5  A    between atoms: C_19  and  C_20
REMARK                            x       y       z     vdW  Elec       q    Type
REMARK                         _______ _______ _______ _____ _____    ______ ____
ROOT
ATOM      1  C   UNL     1       2.763   2.800  20.780  0.00  0.00    +0.000 C 
ATOM      2  C   UNL     1       2.782   4.224  20.354  0.00  0.00    +0.000 A 
ATOM      3  N   UNL     1       2.080   5.149  21.121  0.00  0.00    +0.000 NA
ATOM      4  C   UNL     1       2.104   6.328  20.546  0.00  0.00    +0.000 A 
ATOM      5  N   UNL     1       1.437   7.409  21.064  0.00  0.00    +0.000 N 
ATOM      6  C   UNL     1       1.224   8.620  20.444  0.00  0.00    +0.000 C 
ATOM      7  O   UNL     1       1.606   8.958  19.328  0.00  0.00    +0.000 OA
ATOM      8  S   UNL     1       3.054   6.429  19.136  0.00  0.00    +0.000 S 
ATOM      9  C   UNL     1       3.419   4.758  19.243  0.00  0.00    +0.000 A 
ATOM     10  H   UNL     1       0.975   7.256  21.954  0.00  0.00    +0.000 HD
ENDROOT
BRANCH   6  11
ATOM     11  C   UNL     1       0.406   9.584  21.254  0.00  0.00    +0.000 A 
ATOM     12  C   UNL     1       0.174  10.866  20.765  0.00  0.00    +0.000 A 
ATOM     13  C   UNL     1      -0.589  11.741  21.532  0.00  0.00    +0.000 A 
ATOM     14  C   UNL     1      -1.090  11.310  22.756  0.00  0.00    +0.000 A 
ATOM     15  C   UNL     1      -0.808  10.012  23.165  0.00  0.00    +0.000 A 
ATOM     16  N   UNL     1      -0.073   9.131  22.446  0.00  0.00    +0.000 NA
ENDBRANCH   6  11
BRANCH   9  17
ATOM     17  S   UNL     1       4.439   4.082  17.953  0.00  0.00    +0.000 S 
ATOM     18  O   UNL     1       5.694   3.766  18.604  0.00  0.00    +0.000 OA
ATOM     19  O   UNL     1       3.630   3.055  17.328  0.00  0.00    +0.000 OA
BRANCH  17  20
ATOM     20  C   UNL     1       4.677   5.446  16.821  0.00  0.00    +0.000 C 
BRANCH  20  21
ATOM     21  C   UNL     1       5.427   4.989  15.593  0.00  0.00    +0.000 A 
ATOM     22  C   UNL     1       4.759   4.362  14.528  0.00  0.00    +0.000 A 
ATOM     23  C   UNL     1       5.459   4.015  13.371  0.00  0.00    +0.000 A 
ATOM     24  F   UNL     1       4.800   3.449  12.351  0.00  0.00    +0.000 F 
ATOM     25  C   UNL     1       6.821   4.274  13.265  0.00  0.00    +0.000 A 
ATOM     26  F   UNL     1       7.482   3.959  12.143  0.00  0.00    +0.000 F 
ATOM     27  C   UNL     1       7.504   4.873  14.315  0.00  0.00    +0.000 A 
ATOM     28  C   UNL     1       6.804   5.223  15.467  0.00  0.00    +0.000 A 
ATOM     29  F   UNL     1       7.463   5.834  16.459  0.00  0.00    +0.000 F 
ENDBRANCH  20  21
ENDBRANCH  17  20
ENDBRANCH   9  17
TORSDOF 4
ENDMDL
MODEL 2
REMARK VINA RESULT:      -8.3      1.009      1.335
REMARK  Name = 
REMARK  5 active torsions:
REMARK  status: ('A' for Active; 'I' for Inactive)
REMARK    1  A    between atoms: C_1  and  C_2
REMARK    2  A    between atoms: C_6  and  C_8
REMARK    3  A    between atoms: C_15  and  S_16
REMARK    4  A    between atoms: S_16  and  C_19
REMARK    5  A    between atoms: C_19  and  C_20
REMARK                            x       y       z     vdW  Elec       q    Type
REMARK                         _______ _______ _______ _____ _____    ______ ____
ROOT
ATOM      1  C   UNL     1       2.527   2.552  21.254  0.00  0.00    +0.000 C 
ATOM      2  C   UNL     1       2.621   3.935  20.718  0.00  0.00    +0.000 A 
ATOM      3  N   UNL     1       1.992   4.958  21.423  0.00  0.00    +0.000 NA
ATOM      4  C   UNL     1       2.073   6.085  20.758  0.00  0.00    +0.000 A 
ATOM      5  N   UNL     1       1.483   7.241  21.202  0.00  0.00    +0.000 N 
ATOM      6  C   UNL     1       1.329   8.412  20.493  0.00  0.00    +0.000 C 
ATOM      7  O   UNL     1       1.706   8.639  19.348  0.00  0.00    +0.000 OA
ATOM      8  S   UNL     1       2.997   6.020  19.328  0.00  0.00    +0.000 S 
ATOM      9  C   UNL     1       3.264   4.343  19.559  0.00  0.00    +0.000 A 
ATOM     10  H   UNL     1       1.032   7.186  22.109  0.00  0.00    +0.000 HD
ENDROOT
BRANCH   6  11
ATOM     11  C   UNL     1       0.588   9.483  21.239  0.00  0.00    +0.000 A 
ATOM     12  C   UNL     1      -0.140   9.149  22.378  0.00  0.00    +0.000 A 
ATOM     13  C   UNL     1      -0.816  10.159  23.054  0.00  0.00    +0.000 A 
ATOM     14  C   UNL     1      -0.746  11.462  22.572  0.00  0.00    +0.000 A 
ATOM     15  C   UNL     1       0.004  11.704  21.427  0.00  0.00    +0.000 A 
ATOM     16  N   UNL     1       0.679  10.750  20.744  0.00  0.00    +0.000 NA
ENDBRANCH   6  11
BRANCH   9  17
ATOM     17  S   UNL     1       4.214   3.509  18.308  0.00  0.00    +0.000 S 
ATOM     18  O   UNL     1       5.594   3.794  18.643  0.00  0.00    +0.000 OA
ATOM     19  O   UNL     1       3.704   2.153  18.283  0.00  0.00    +0.000 OA
BRANCH  17  20
ATOM     20  C   UNL     1       3.780   4.353  16.791  0.00  0.00    +0.000 C 
BRANCH  20  21
ATOM     21  C   UNL     1       5.007   4.576  15.941  0.00  0.00    +0.000 A 
ATOM     22  C   UNL     1       5.274   3.763  14.827  0.00  0.00    +0.000 A 
ATOM     23  C   UNL     1       6.374   4.034  14.012  0.00  0.00    +0.000 A 
ATOM     24  F   UNL     1       6.595   3.269  12.934  0.00  0.00    +0.000 F 
ATOM     25  C   UNL     1       7.220   5.099  14.297  0.00  0.00    +0.000 A 
ATOM     26  F   UNL     1       8.261   5.367  13.497  0.00  0.00    +0.000 F 
ATOM     27  C   UNL     1       6.986   5.902  15.405  0.00  0.00    +0.000 A 
ATOM     28  C   UNL     1       5.885   5.634  16.216  0.00  0.00    +0.000 A 
ATOM     29  F   UNL     1       5.646   6.436  17.261  0.00  0.00    +0.000 F 
ENDBRANCH  20  21
ENDBRANCH  17  20
ENDBRANCH   9  17
TORSDOF 4
ENDMDL
MODEL 3
REMARK VINA RESULT:      -8.2      2.556      3.525
REMARK  Name = 
REMARK  5 active torsions:
REMARK  status: ('A' for Active; 'I' for Inactive)
REMARK    1  A    between atoms: C_1  and  C_2
REMARK    2  A    between atoms: C_6  and  C_8
REMARK    3  A    between atoms: C_15  and  S_16
REMARK    4  A    between atoms: S_16  and  C_19
REMARK    5  A    between atoms: C_19  and  C_20
REMARK                            x       y       z     vdW  Elec       q    Type
REMARK                         _______ _______ _______ _____ _____    ______ ____
ROOT
ATOM      1  C   UNL     1       2.050   3.795  21.288  0.00  0.00    +0.000 C 
ATOM      2  C   UNL     1       2.349   4.891  20.329  0.00  0.00    +0.000 A 
ATOM      3  N   UNL     1       1.847   6.160  20.604  0.00  0.00    +0.000 NA
ATOM      4  C   UNL     1       2.101   6.975  19.608  0.00  0.00    +0.000 A 
ATOM      5  N   UNL     1       1.664   8.275  19.596  0.00  0.00    +0.000 N 
ATOM      6  C   UNL     1       1.692   9.144  18.527  0.00  0.00    +0.000 C 
ATOM      7  O   UNL     1       2.129   8.920  17.402  0.00  0.00    +0.000 OA
ATOM      8  S   UNL     1       3.046   6.315  18.353  0.00  0.00    +0.000 S 
ATOM      9  C   UNL     1       3.073   4.798  19.150  0.00  0.00    +0.000 A 
ATOM     10  H   UNL     1       1.185   8.587  20.434  0.00  0.00    +0.000 HD
ENDROOT
BRANCH   6  11
ATOM     11  C   UNL     1       1.085  10.486  18.817  0.00  0.00    +0.000 A 
ATOM     12  C   UNL     1       1.736  11.640  18.390  0.00  0.00    +0.000 A 
ATOM     13  C   UNL     1       1.153  12.871  18.666  0.00  0.00    +0.000 A 
ATOM     14  C   UNL     1      -0.053  12.911  19.360  0.00  0.00    +0.000 A 
ATOM     15  C   UNL     1      -0.631  11.709  19.748  0.00  0.00    +0.000 A 
ATOM     16  N   UNL     1      -0.098  10.491  19.494  0.00  0.00    +0.000 NA
ENDBRANCH   6  11
BRANCH   9  17
ATOM     17  S   UNL     1       3.933   3.480  18.322  0.00  0.00    +0.000 S 
ATOM     18  O   UNL     1       4.910   3.017  19.286  0.00  0.00    +0.000 OA
ATOM     19  O   UNL     1       2.893   2.607  17.816  0.00  0.00    +0.000 OA
BRANCH  17  20
ATOM     20  C   UNL     1       4.769   4.287  16.962  0.00  0.00    +0.000 C 
BRANCH  20  21
ATOM     21  C   UNL     1       5.817   5.243  17.478  0.00  0.00    +0.000 A 
ATOM     22  C   UNL     1       6.683   4.874  18.522  0.00  0.00    +0.000 A 
ATOM     23  C   UNL     1       7.693   5.745  18.933  0.00  0.00    +0.000 A 
ATOM     24  F   UNL     1       8.531   5.364  19.907  0.00  0.00    +0.000 F 
ATOM     25  C   UNL     1       7.846   6.986  18.326  0.00  0.00    +0.000 A 
ATOM     26  F   UNL     1       8.832   7.807  18.710  0.00  0.00    +0.000 F 
ATOM     27  C   UNL     1       6.988   7.379  17.308  0.00  0.00    +0.000 A 
ATOM     28  C   UNL     1       5.983   6.507  16.895  0.00  0.00    +0.000 A 
ATOM     29  F   UNL     1       5.184   6.879  15.887  0.00  0.00    +0.000 F 
ENDBRANCH  20  21
ENDBRANCH  17  20
ENDBRANCH   9  17
TORSDOF 4
ENDMDL
MODEL 4
REMARK VINA RESULT:      -7.9      1.113      1.370
REMARK  Name = 
REMARK  5 active torsions:
REMARK  status: ('A' for Active; 'I' for Inactive)
REMARK    1  A    between atoms: C_1  and  C_2
REMARK    2  A    between atoms: C_6  and  C_8
REMARK    3  A    between atoms: C_15  and  S_16
REMARK    4  A    between atoms: S_16  and  C_19
REMARK    5  A    between atoms: C_19  and  C_20
REMARK                            x       y       z     vdW  Elec       q    Type
REMARK                         _______ _______ _______ _____ _____    ______ ____
ROOT
ATOM      1  C   UNL     1       2.656   2.693  21.070  0.00  0.00    +0.000 C 
ATOM      2  C   UNL     1       2.641   4.071  20.513  0.00  0.00    +0.000 A 
ATOM      3  N   UNL     1       2.079   5.086  21.282  0.00  0.00    +0.000 NA
ATOM      4  C   UNL     1       2.042   6.206  20.601  0.00  0.00    +0.000 A 
ATOM      5  N   UNL     1       1.481   7.352  21.105  0.00  0.00    +0.000 N 
ATOM      6  C   UNL     1       1.204   8.509  20.411  0.00  0.00    +0.000 C 
ATOM      7  O   UNL     1       1.424   8.730  19.224  0.00  0.00    +0.000 OA
ATOM      8  S   UNL     1       2.776   6.146  19.064  0.00  0.00    +0.000 S 
ATOM      9  C   UNL     1       3.118   4.480  19.276  0.00  0.00    +0.000 A 
ATOM     10  H   UNL     1       1.153   7.297  22.064  0.00  0.00    +0.000 HD
ENDROOT
BRANCH   6  11
ATOM     11  C   UNL     1       0.535   9.570  21.235  0.00  0.00    +0.000 A 
ATOM     12  C   UNL     1      -0.055   9.226  22.448  0.00  0.00    +0.000 A 
ATOM     13  C   UNL     1      -0.666  10.227  23.195  0.00  0.00    +0.000 A 
ATOM     14  C   UNL     1      -0.671  11.531  22.709  0.00  0.00    +0.000 A 
ATOM     15  C   UNL     1      -0.058  11.782  21.488  0.00  0.00    +0.000 A 
ATOM     16  N   UNL     1       0.551  10.837  20.733  0.00  0.00    +0.000 NA
ENDBRANCH   6  11
BRANCH   9  17
ATOM     17  S   UNL     1       3.921   3.655  17.922  0.00  0.00    +0.000 S 
ATOM     18  O   UNL     1       3.820   2.245  18.238  0.00  0.00    +0.000 OA
ATOM     19  O   UNL     1       3.318   4.209  16.726  0.00  0.00    +0.000 OA
BRANCH  17  20
ATOM     20  C   UNL     1       5.629   4.174  18.042  0.00  0.00    +0.000 C 
BRANCH  20  21
ATOM     21  C   UNL     1       6.205   4.417  16.668  0.00  0.00    +0.000 A 
ATOM     22  C   UNL     1       5.832   3.616  15.574  0.00  0.00    +0.000 A 
ATOM     23  C   UNL     1       6.319   3.905  14.298  0.00  0.00    +0.000 A 
ATOM     24  F   UNL     1       5.926   3.153  13.261  0.00  0.00    +0.000 F 
ATOM     25  C   UNL     1       7.184   4.975  14.098  0.00  0.00    +0.000 A 
ATOM     26  F   UNL     1       7.629   5.260  12.866  0.00  0.00    +0.000 F 
ATOM     27  C   UNL     1       7.581   5.765  15.168  0.00  0.00    +0.000 A 
ATOM     28  C   UNL     1       7.091   5.479  16.440  0.00  0.00    +0.000 A 
ATOM     29  F   UNL     1       7.451   6.268  17.460  0.00  0.00    +0.000 F 
ENDBRANCH  20  21
ENDBRANCH  17  20
ENDBRANCH   9  17
TORSDOF 4
ENDMDL
MODEL 5
REMARK VINA RESULT:      -7.9      5.811      7.609
REMARK  Name = 
REMARK  5 active torsions:
REMARK  status: ('A' for Active; 'I' for Inactive)
REMARK    1  A    between atoms: C_1  and  C_2
REMARK    2  A    between atoms: C_6  and  C_8
REMARK    3  A    between atoms: C_15  and  S_16
REMARK    4  A    between atoms: S_16  and  C_19
REMARK    5  A    between atoms: C_19  and  C_20
REMARK                            x       y       z     vdW  Elec       q    Type
REMARK                         _______ _______ _______ _____ _____    ______ ____
ROOT
ATOM      1  C   UNL     1       6.996   4.408  19.185  0.00  0.00    +0.000 C 
ATOM      2  C   UNL     1       7.151   5.735  18.534  0.00  0.00    +0.000 A 
ATOM      3  N   UNL     1       8.158   6.580  18.994  0.00  0.00    +0.000 NA
ATOM      4  C   UNL     1       8.082   7.745  18.396  0.00  0.00    +0.000 A 
ATOM      5  N   UNL     1       8.922   8.783  18.709  0.00  0.00    +0.000 N 
ATOM      6  C   UNL     1       8.799  10.093  18.301  0.00  0.00    +0.000 C 
ATOM      7  O   UNL     1       7.929  10.563  17.573  0.00  0.00    +0.000 OA
ATOM      8  S   UNL     1       6.895   7.861  17.180  0.00  0.00    +0.000 S 
ATOM      9  C   UNL     1       6.382   6.258  17.506  0.00  0.00    +0.000 A 
ATOM     10  H   UNL     1       9.647   8.575  19.386  0.00  0.00    +0.000 HD
ENDROOT
BRANCH   6  11
ATOM     11  C   UNL     1       9.850  11.007  18.859  0.00  0.00    +0.000 A 
ATOM     12  C   UNL     1       9.931  11.201  20.234  0.00  0.00    +0.000 A 
ATOM     13  C   UNL     1      10.916  12.050  20.728  0.00  0.00    +0.000 A 
ATOM     14  C   UNL     1      11.781  12.677  19.837  0.00  0.00    +0.000 A 
ATOM     15  C   UNL     1      11.627  12.425  18.479  0.00  0.00    +0.000 A 
ATOM     16  N   UNL     1      10.685  11.603  17.960  0.00  0.00    +0.000 NA
ENDBRANCH   6  11
BRANCH   9  17
ATOM     17  S   UNL     1       5.013   5.651  16.547  0.00  0.00    +0.000 S 
ATOM     18  O   UNL     1       5.186   6.251  15.239  0.00  0.00    +0.000 OA
ATOM     19  O   UNL     1       5.029   4.213  16.730  0.00  0.00    +0.000 OA
BRANCH  17  20
ATOM     20  C   UNL     1       3.573   6.353  17.343  0.00  0.00    +0.000 C 
BRANCH  20  21
ATOM     21  C   UNL     1       2.927   5.339  18.255  0.00  0.00    +0.000 A 
ATOM     22  C   UNL     1       1.915   4.483  17.786  0.00  0.00    +0.000 A 
ATOM     23  C   UNL     1       1.385   3.503  18.627  0.00  0.00    +0.000 A 
ATOM     24  F   UNL     1       0.445   2.674  18.153  0.00  0.00    +0.000 F 
ATOM     25  C   UNL     1       1.841   3.370  19.933  0.00  0.00    +0.000 A 
ATOM     26  F   UNL     1       1.343   2.411  20.726  0.00  0.00    +0.000 F 
ATOM     27  C   UNL     1       2.824   4.218  20.422  0.00  0.00    +0.000 A 
ATOM     28  C   UNL     1       3.357   5.193  19.582  0.00  0.00    +0.000 A 
ATOM     29  F   UNL     1       4.331   5.983  20.050  0.00  0.00    +0.000 F 
ENDBRANCH  20  21
ENDBRANCH  17  20
ENDBRANCH   9  17
TORSDOF 4
ENDMDL
MODEL 6
REMARK VINA RESULT:      -7.8      2.213      2.998
REMARK  Name = 
REMARK  5 active torsions:
REMARK  status: ('A' for Active; 'I' for Inactive)
REMARK    1  A    between atoms: C_1  and  C_2
REMARK    2  A    between atoms: C_6  and  C_8
REMARK    3  A    between atoms: C_15  and  S_16
REMARK    4  A    between atoms: S_16  and  C_19
REMARK    5  A    between atoms: C_19  and  C_20
REMARK                            x       y       z     vdW  Elec       q    Type
REMARK                         _______ _______ _______ _____ _____    ______ ____
ROOT
ATOM      1  C   UNL     1       1.925   3.626  21.436  0.00  0.00    +0.000 C 
ATOM      2  C   UNL     1       1.999   4.676  20.386  0.00  0.00    +0.000 A 
ATOM      3  N   UNL     1       1.946   6.009  20.784  0.00  0.00    +0.000 NA
ATOM      4  C   UNL     1       1.905   6.795  19.735  0.00  0.00    +0.000 A 
ATOM      5  N   UNL     1       1.790   8.157  19.845  0.00  0.00    +0.000 N 
ATOM      6  C   UNL     1       1.532   9.048  18.826  0.00  0.00    +0.000 C 
ATOM      7  O   UNL     1       1.377   8.787  17.637  0.00  0.00    +0.000 OA
ATOM      8  S   UNL     1       2.047   6.007  18.231  0.00  0.00    +0.000 S 
ATOM      9  C   UNL     1       2.100   4.485  19.016  0.00  0.00    +0.000 A 
ATOM     10  H   UNL     1       1.802   8.526  20.790  0.00  0.00    +0.000 HD
ENDROOT
BRANCH   6  11
ATOM     11  C   UNL     1       1.409  10.474  19.279  0.00  0.00    +0.000 A 
ATOM     12  C   UNL     1       1.854  11.498  18.449  0.00  0.00    +0.000 A 
ATOM     13  C   UNL     1       1.727  12.811  18.888  0.00  0.00    +0.000 A 
ATOM     14  C   UNL     1       1.165  13.057  20.137  0.00  0.00    +0.000 A 
ATOM     15  C   UNL     1       0.748  11.973  20.899  0.00  0.00    +0.000 A 
ATOM     16  N   UNL     1       0.851  10.682  20.505  0.00  0.00    +0.000 NA
ENDBRANCH   6  11
BRANCH   9  17
ATOM     17  S   UNL     1       2.214   3.053  17.968  0.00  0.00    +0.000 S 
ATOM     18  O   UNL     1       1.372   2.062  18.607  0.00  0.00    +0.000 OA
ATOM     19  O   UNL     1       1.935   3.537  16.631  0.00  0.00    +0.000 OA
BRANCH  17  20
ATOM     20  C   UNL     1       3.928   2.553  18.092  0.00  0.00    +0.000 C 
BRANCH  20  21
ATOM     21  C   UNL     1       4.840   3.702  17.736  0.00  0.00    +0.000 A 
ATOM     22  C   UNL     1       5.029   4.089  16.398  0.00  0.00    +0.000 A 
ATOM     23  C   UNL     1       5.818   5.200  16.098  0.00  0.00    +0.000 A 
ATOM     24  F   UNL     1       5.961   5.575  14.820  0.00  0.00    +0.000 F 
ATOM     25  C   UNL     1       6.431   5.927  17.112  0.00  0.00    +0.000 A 
ATOM     26  F   UNL     1       7.167   7.007  16.817  0.00  0.00    +0.000 F 
ATOM     27  C   UNL     1       6.273   5.549  18.438  0.00  0.00    +0.000 A 
ATOM     28  C   UNL     1       5.482   4.442  18.738  0.00  0.00    +0.000 A 
ATOM     29  F   UNL     1       5.306   4.107  20.022  0.00  0.00    +0.000 F 
ENDBRANCH  20  21
ENDBRANCH  17  20
ENDBRANCH   9  17
TORSDOF 4
ENDMDL
MODEL 7
REMARK VINA RESULT:      -7.7      4.183      8.965
REMARK  Name = 
REMARK  5 active torsions:
REMARK  status: ('A' for Active; 'I' for Inactive)
REMARK    1  A    between atoms: C_1  and  C_2
REMARK    2  A    between atoms: C_6  and  C_8
REMARK    3  A    between atoms: C_15  and  S_16
REMARK    4  A    between atoms: S_16  and  C_19
REMARK    5  A    between atoms: C_19  and  C_20
REMARK                            x       y       z     vdW  Elec       q    Type
REMARK                         _______ _______ _______ _____ _____    ______ ____
ROOT
ATOM      1  C   UNL     1       1.106   2.149  18.815  0.00  0.00    +0.000 C 
ATOM      2  C   UNL     1       2.035   3.217  18.360  0.00  0.00    +0.000 A 
ATOM      3  N   UNL     1       2.688   3.046  17.143  0.00  0.00    +0.000 NA
ATOM      4  C   UNL     1       3.550   4.016  16.949  0.00  0.00    +0.000 A 
ATOM      5  N   UNL     1       4.370   4.056  15.850  0.00  0.00    +0.000 N 
ATOM      6  C   UNL     1       5.441   4.900  15.653  0.00  0.00    +0.000 C 
ATOM      7  O   UNL     1       5.842   5.777  16.413  0.00  0.00    +0.000 OA
ATOM      8  S   UNL     1       3.547   5.238  18.136  0.00  0.00    +0.000 S 
ATOM      9  C   UNL     1       2.353   4.391  19.028  0.00  0.00    +0.000 A 
ATOM     10  H   UNL     1       4.225   3.324  15.164  0.00  0.00    +0.000 HD
ENDROOT
BRANCH   6  11
ATOM     11  C   UNL     1       6.178   4.660  14.368  0.00  0.00    +0.000 A 
ATOM     12  C   UNL     1       5.690   3.723  13.462  0.00  0.00    +0.000 A 
ATOM     13  C   UNL     1       6.389   3.520  12.277  0.00  0.00    +0.000 A 
ATOM     14  C   UNL     1       7.548   4.252  12.038  0.00  0.00    +0.000 A 
ATOM     15  C   UNL     1       7.962   5.165  13.000  0.00  0.00    +0.000 A 
ATOM     16  N   UNL     1       7.308   5.395  14.162  0.00  0.00    +0.000 NA
ENDBRANCH   6  11
BRANCH   9  17
ATOM     17  S   UNL     1       1.837   5.125  20.562  0.00  0.00    +0.000 S 
ATOM     18  O   UNL     1       0.404   5.290  20.427  0.00  0.00    +0.000 OA
ATOM     19  O   UNL     1       2.410   4.287  21.597  0.00  0.00    +0.000 OA
BRANCH  17  20
ATOM     20  C   UNL     1       2.627   6.730  20.569  0.00  0.00    +0.000 C 
BRANCH  20  21
ATOM     21  C   UNL     1       1.592   7.828  20.522  0.00  0.00    +0.000 A 
ATOM     22  C   UNL     1       0.813   8.139  21.650  0.00  0.00    +0.000 A 
ATOM     23  C   UNL     1      -0.085   9.207  21.607  0.00  0.00    +0.000 A 
ATOM     24  F   UNL     1      -0.795   9.511  22.701  0.00  0.00    +0.000 F 
ATOM     25  C   UNL     1      -0.227   9.964  20.449  0.00  0.00    +0.000 A 
ATOM     26  F   UNL     1      -1.073  11.002  20.423  0.00  0.00    +0.000 F 
ATOM     27  C   UNL     1       0.518   9.661  19.318  0.00  0.00    +0.000 A 
ATOM     28  C   UNL     1       1.417   8.598  19.363  0.00  0.00    +0.000 A 
ATOM     29  F   UNL     1       2.158   8.335  18.279  0.00  0.00    +0.000 F 
ENDBRANCH  20  21
ENDBRANCH  17  20
ENDBRANCH   9  17
TORSDOF 4
ENDMDL
MODEL 8
REMARK VINA RESULT:      -7.7      5.387      9.751
REMARK  Name = 
REMARK  5 active torsions:
REMARK  status: ('A' for Active; 'I' for Inactive)
REMARK    1  A    between atoms: C_1  and  C_2
REMARK    2  A    between atoms: C_6  and  C_8
REMARK    3  A    between atoms: C_15  and  S_16
REMARK    4  A    between atoms: S_16  and  C_19
REMARK    5  A    between atoms: C_19  and  C_20
REMARK                            x       y       z     vdW  Elec       q    Type
REMARK                         _______ _______ _______ _____ _____    ______ ____
ROOT
ATOM      1  C   UNL     1       0.241   9.397  23.380  0.00  0.00    +0.000 C 
ATOM      2  C   UNL     1       0.538   9.353  21.924  0.00  0.00    +0.000 A 
ATOM      3  N   UNL     1       1.194   8.234  21.420  0.00  0.00    +0.000 NA
ATOM      4  C   UNL     1       1.480   8.407  20.152  0.00  0.00    +0.000 A 
ATOM      5  N   UNL     1       2.181   7.478  19.426  0.00  0.00    +0.000 N 
ATOM      6  C   UNL     1       2.709   7.645  18.165  0.00  0.00    +0.000 C 
ATOM      7  O   UNL     1       2.635   8.646  17.458  0.00  0.00    +0.000 OA
ATOM      8  S   UNL     1       0.884   9.847  19.464  0.00  0.00    +0.000 S 
ATOM      9  C   UNL     1       0.248  10.327  20.981  0.00  0.00    +0.000 A 
ATOM     10  H   UNL     1       2.409   6.618  19.914  0.00  0.00    +0.000 HD
ENDROOT
BRANCH   6  11
ATOM     11  C   UNL     1       3.474   6.456  17.661  0.00  0.00    +0.000 A 
ATOM     12  C   UNL     1       4.733   6.637  17.099  0.00  0.00    +0.000 A 
ATOM     13  C   UNL     1       5.423   5.520  16.642  0.00  0.00    +0.000 A 
ATOM     14  C   UNL     1       4.835   4.264  16.758  0.00  0.00    +0.000 A 
ATOM     15  C   UNL     1       3.573   4.177  17.332  0.00  0.00    +0.000 A 
ATOM     16  N   UNL     1       2.872   5.240  17.793  0.00  0.00    +0.000 NA
ENDBRANCH   6  11
BRANCH   9  17
ATOM     17  S   UNL     1      -0.562  11.909  21.039  0.00  0.00    +0.000 S 
ATOM     18  O   UNL     1      -1.795  11.665  21.759  0.00  0.00    +0.000 OA
ATOM     19  O   UNL     1       0.439  12.831  21.538  0.00  0.00    +0.000 OA
BRANCH  17  20
ATOM     20  C   UNL     1      -0.932  12.277  19.327  0.00  0.00    +0.000 C 
BRANCH  20  21
ATOM     21  C   UNL     1      -2.340  11.852  18.988  0.00  0.00    +0.000 A 
ATOM     22  C   UNL     1      -3.449  12.489  19.571  0.00  0.00    +0.000 A 
ATOM     23  C   UNL     1      -4.742  12.131  19.187  0.00  0.00    +0.000 A 
ATOM     24  F   UNL     1      -5.787  12.771  19.728  0.00  0.00    +0.000 F 
ATOM     25  C   UNL     1      -4.947  11.137  18.236  0.00  0.00    +0.000 A 
ATOM     26  F   UNL     1      -6.191  10.815  17.856  0.00  0.00    +0.000 F 
ATOM     27  C   UNL     1      -3.866  10.481  17.664  0.00  0.00    +0.000 A 
ATOM     28  C   UNL     1      -2.575  10.843  18.044  0.00  0.00    +0.000 A 
ATOM     29  F   UNL     1      -1.538  10.230  17.460  0.00  0.00    +0.000 F 
ENDBRANCH  20  21
ENDBRANCH  17  20
ENDBRANCH   9  17
TORSDOF 4
ENDMDL
MODEL 9
REMARK VINA RESULT:      -7.6      4.907      9.315
REMARK  Name = 
REMARK  5 active torsions:
REMARK  status: ('A' for Active; 'I' for Inactive)
REMARK    1  A    between atoms: C_1  and  C_2
REMARK    2  A    between atoms: C_6  and  C_8
REMARK    3  A    between atoms: C_15  and  S_16
REMARK    4  A    between atoms: S_16  and  C_19
REMARK    5  A    between atoms: C_19  and  C_20
REMARK                            x       y       z     vdW  Elec       q    Type
REMARK                         _______ _______ _______ _____ _____    ______ ____
ROOT
ATOM      1  C   UNL     1       0.054   9.573  23.168  0.00  0.00    +0.000 C 
ATOM      2  C   UNL     1       0.469   9.447  21.747  0.00  0.00    +0.000 A 
ATOM      3  N   UNL     1       1.022   8.240  21.328  0.00  0.00    +0.000 NA
ATOM      4  C   UNL     1       1.438   8.336  20.087  0.00  0.00    +0.000 A 
ATOM      5  N   UNL     1       2.077   7.305  19.448  0.00  0.00    +0.000 N 
ATOM      6  C   UNL     1       2.731   7.366  18.237  0.00  0.00    +0.000 C 
ATOM      7  O   UNL     1       2.844   8.345  17.505  0.00  0.00    +0.000 OA
ATOM      8  S   UNL     1       1.089   9.815  19.318  0.00  0.00    +0.000 S 
ATOM      9  C   UNL     1       0.387  10.418  20.760  0.00  0.00    +0.000 A 
ATOM     10  H   UNL     1       2.154   6.440  19.972  0.00  0.00    +0.000 HD
ENDROOT
BRANCH   6  11
ATOM     11  C   UNL     1       3.382   6.076  17.829  0.00  0.00    +0.000 A 
ATOM     12  C   UNL     1       4.535   6.105  17.050  0.00  0.00    +0.000 A 
ATOM     13  C   UNL     1       5.121   4.897  16.688  0.00  0.00    +0.000 A 
ATOM     14  C   UNL     1       4.539   3.706  17.111  0.00  0.00    +0.000 A 
ATOM     15  C   UNL     1       3.388   3.772  17.886  0.00  0.00    +0.000 A 
ATOM     16  N   UNL     1       2.790   4.927  18.263  0.00  0.00    +0.000 NA
ENDBRANCH   6  11
BRANCH   9  17
ATOM     17  S   UNL     1      -0.221  12.088  20.711  0.00  0.00    +0.000 S 
ATOM     18  O   UNL     1      -1.616  11.983  21.089  0.00  0.00    +0.000 OA
ATOM     19  O   UNL     1       0.721  12.860  21.496  0.00  0.00    +0.000 OA
BRANCH  17  20
ATOM     20  C   UNL     1      -0.101  12.549  18.986  0.00  0.00    +0.000 C 
BRANCH  20  21
ATOM     21  C   UNL     1       0.886  13.677  18.808  0.00  0.00    +0.000 A 
ATOM     22  C   UNL     1       2.224  13.421  18.462  0.00  0.00    +0.000 A 
ATOM     23  C   UNL     1       3.101  14.482  18.229  0.00  0.00    +0.000 A 
ATOM     24  F   UNL     1       4.364  14.220  17.867  0.00  0.00    +0.000 F 
ATOM     25  C   UNL     1       2.666  15.797  18.348  0.00  0.00    +0.000 A 
ATOM     26  F   UNL     1       3.507  16.810  18.100  0.00  0.00    +0.000 F 
ATOM     27  C   UNL     1       1.354  16.071  18.710  0.00  0.00    +0.000 A 
ATOM     28  C   UNL     1       0.478  15.012  18.937  0.00  0.00    +0.000 A 
ATOM     29  F   UNL     1      -0.795  15.286  19.250  0.00  0.00    +0.000 F 
ENDBRANCH  20  21
ENDBRANCH  17  20
ENDBRANCH   9  17
TORSDOF 4
ENDMDL
