MODEL 1
REMARK VINA RESULT:      -6.9      0.000      0.000
REMARK  Name = 
REMARK  6 active torsions:
REMARK  status: ('A' for Active; 'I' for Inactive)
REMARK    1  A    between atoms: C_2  and  C_3
REMARK    2  A    between atoms: C_3  and  C_13
REMARK    3  A    between atoms: C_4  and  C_5
REMARK    4  A    between atoms: N_15  and  C_16
REMARK    5  A    between atoms: C_22  and  N_23
REMARK    6  A    between atoms: C_28  and  C_29
REMARK                            x       y       z     vdW  Elec       q    Type
REMARK                         _______ _______ _______ _____ _____    ______ ____
ROOT
ATOM      1  C   UNL     1       2.652   7.237  18.392  0.00  0.00    +0.000 A 
ATOM      2  N   UNL     1       3.761   7.276  17.607  0.00  0.00    +0.000 NA
ATOM      3  N   UNL     1       4.139   5.954  17.415  0.00  0.00    +0.000 N 
ATOM      4  C   UNL     1       3.410   5.127  18.259  0.00  0.00    +0.000 A 
ATOM      5  C   UNL     1       2.397   5.898  18.792  0.00  0.00    +0.000 A 
ENDROOT
BRANCH   3   6
ATOM      6  C   UNL     1       5.116   5.548  16.423  0.00  0.00    +0.000 A 
ATOM      7  C   UNL     1       6.484   5.790  16.598  0.00  0.00    +0.000 A 
ATOM      8  C   UNL     1       7.422   5.217  15.711  0.00  0.00    +0.000 A 
ATOM      9  C   UNL     1       7.012   4.418  14.643  0.00  0.00    +0.000 A 
ATOM     10  C   UNL     1       5.658   4.240  14.412  0.00  0.00    +0.000 A 
ATOM     11  C   UNL     1       4.722   4.832  15.271  0.00  0.00    +0.000 A 
ENDBRANCH   3   6
BRANCH   4  12
ATOM     12  N   UNL     1       3.695   3.789  18.561  0.00  0.00    +0.000 N 
ATOM     13  C   UNL     1       4.515   3.346  19.584  0.00  0.00    +0.000 A 
ATOM     14  C   UNL     1       4.535   1.968  19.596  0.00  0.00    +0.000 A 
ATOM     15  C   UNL     1       3.718   1.531  18.535  0.00  0.00    +0.000 A 
ATOM     16  C   UNL     1       3.238   2.660  17.906  0.00  0.00    +0.000 A 
ENDBRANCH   4  12
BRANCH   1  17
ATOM     17  C   UNL     1       1.833   8.375  18.870  0.00  0.00    +0.000 C 
ATOM     18  C   UNL     1       1.310   9.317  18.057  0.00  0.00    +0.000 C 
BRANCH  18  19
ATOM     19  C   UNL     1       0.568  10.492  18.558  0.00  0.00    +0.000 A 
ATOM     20  C   UNL     1      -0.761  10.337  18.976  0.00  0.00    +0.000 A 
ATOM     21  F   UNL     1      -1.321   9.118  18.986  0.00  0.00    +0.000 F 
ATOM     22  C   UNL     1      -1.537  11.425  19.374  0.00  0.00    +0.000 A 
ATOM     23  C   UNL     1      -0.987  12.704  19.366  0.00  0.00    +0.000 A 
ATOM     24  C   UNL     1       0.341  12.881  18.971  0.00  0.00    +0.000 A 
ATOM     25  C   UNL     1       1.113  11.784  18.570  0.00  0.00    +0.000 A 
ATOM     26 CL   UNL     1       2.744  12.083  18.085  0.00  0.00    +0.000 Cl
ENDBRANCH  18  19
BRANCH  17  28
ATOM     27  N   UNL     1       1.537   8.582  21.626  0.00  0.00    +0.000 NA
ATOM     28  C   UNL     1       1.671   8.488  20.376  0.00  0.00    +0.000 C 
ENDBRANCH  17  28
ENDBRANCH   1  17
BRANCH   5  29
ATOM     29  C   UNL     1       1.387   5.487  19.711  0.00  0.00    +0.000 C 
ATOM     30  N   UNL     1       0.569   5.142  20.460  0.00  0.00    +0.000 NA
ENDBRANCH   5  29
TORSDOF 6
ENDMDL
MODEL 2
REMARK VINA RESULT:      -6.9      0.180      1.121
REMARK  Name = 
REMARK  6 active torsions:
REMARK  status: ('A' for Active; 'I' for Inactive)
REMARK    1  A    between atoms: C_2  and  C_3
REMARK    2  A    between atoms: C_3  and  C_13
REMARK    3  A    between atoms: C_4  and  C_5
REMARK    4  A    between atoms: N_15  and  C_16
REMARK    5  A    between atoms: C_22  and  N_23
REMARK    6  A    between atoms: C_28  and  C_29
REMARK                            x       y       z     vdW  Elec       q    Type
REMARK                         _______ _______ _______ _____ _____    ______ ____
ROOT
ATOM      1  C   UNL     1       2.672   7.119  18.400  0.00  0.00    +0.000 A 
ATOM      2  N   UNL     1       3.783   7.122  17.618  0.00  0.00    +0.000 NA
ATOM      3  N   UNL     1       4.143   5.791  17.461  0.00  0.00    +0.000 N 
ATOM      4  C   UNL     1       3.401   4.995  18.323  0.00  0.00    +0.000 A 
ATOM      5  C   UNL     1       2.397   5.794  18.832  0.00  0.00    +0.000 A 
ENDROOT
BRANCH   3   6
ATOM      6  C   UNL     1       5.118   5.347  16.482  0.00  0.00    +0.000 A 
ATOM      7  C   UNL     1       4.750   4.563  15.383  0.00  0.00    +0.000 A 
ATOM      8  C   UNL     1       5.682   4.308  14.353  0.00  0.00    +0.000 A 
ATOM      9  C   UNL     1       6.982   4.814  14.412  0.00  0.00    +0.000 A 
ATOM     10  C   UNL     1       7.381   5.521  15.534  0.00  0.00    +0.000 A 
ATOM     11  C   UNL     1       6.469   5.750  16.573  0.00  0.00    +0.000 A 
ENDBRANCH   3   6
BRANCH   4  12
ATOM     12  N   UNL     1       3.667   3.662  18.659  0.00  0.00    +0.000 N 
ATOM     13  C   UNL     1       3.140   2.547  18.032  0.00  0.00    +0.000 A 
ATOM     14  C   UNL     1       3.648   1.405  18.613  0.00  0.00    +0.000 A 
ATOM     15  C   UNL     1       4.508   1.816  19.651  0.00  0.00    +0.000 A 
ATOM     16  C   UNL     1       4.483   3.194  19.674  0.00  0.00    +0.000 A 
ENDBRANCH   4  12
BRANCH   1  17
ATOM     17  C   UNL     1       1.867   8.279  18.846  0.00  0.00    +0.000 C 
ATOM     18  C   UNL     1       1.369   9.213  18.009  0.00  0.00    +0.000 C 
BRANCH  18  19
ATOM     19  C   UNL     1       0.642  10.411  18.478  0.00  0.00    +0.000 A 
ATOM     20  C   UNL     1      -0.696  10.288  18.877  0.00  0.00    +0.000 A 
ATOM     21  F   UNL     1      -1.280   9.080  18.898  0.00  0.00    +0.000 F 
ATOM     22  C   UNL     1      -1.458  11.396  19.244  0.00  0.00    +0.000 A 
ATOM     23  C   UNL     1      -0.884  12.664  19.224  0.00  0.00    +0.000 A 
ATOM     24  C   UNL     1       0.453  12.810  18.848  0.00  0.00    +0.000 A 
ATOM     25  C   UNL     1       1.210  11.692  18.477  0.00  0.00    +0.000 A 
ATOM     26 CL   UNL     1       2.855  11.952  18.015  0.00  0.00    +0.000 Cl
ENDBRANCH  18  19
BRANCH  17  28
ATOM     27  N   UNL     1       1.543   8.546  21.594  0.00  0.00    +0.000 NA
ATOM     28  C   UNL     1       1.690   8.425  20.348  0.00  0.00    +0.000 C 
ENDBRANCH  17  28
ENDBRANCH   1  17
BRANCH   5  29
ATOM     29  C   UNL     1       1.379   5.419  19.758  0.00  0.00    +0.000 C 
ATOM     30  N   UNL     1       0.551   5.104  20.510  0.00  0.00    +0.000 NA
ENDBRANCH   5  29
TORSDOF 6
ENDMDL
MODEL 3
REMARK VINA RESULT:      -6.6      1.309      1.548
REMARK  Name = 
REMARK  6 active torsions:
REMARK  status: ('A' for Active; 'I' for Inactive)
REMARK    1  A    between atoms: C_2  and  C_3
REMARK    2  A    between atoms: C_3  and  C_13
REMARK    3  A    between atoms: C_4  and  C_5
REMARK    4  A    between atoms: N_15  and  C_16
REMARK    5  A    between atoms: C_22  and  N_23
REMARK    6  A    between atoms: C_28  and  C_29
REMARK                            x       y       z     vdW  Elec       q    Type
REMARK                         _______ _______ _______ _____ _____    ______ ____
ROOT
ATOM      1  C   UNL     1       2.636   7.305  18.306  0.00  0.00    +0.000 A 
ATOM      2  N   UNL     1       3.749   7.331  17.526  0.00  0.00    +0.000 NA
ATOM      3  N   UNL     1       4.137   6.008  17.370  0.00  0.00    +0.000 N 
ATOM      4  C   UNL     1       3.408   5.197  18.229  0.00  0.00    +0.000 A 
ATOM      5  C   UNL     1       2.387   5.975  18.737  0.00  0.00    +0.000 A 
ENDROOT
BRANCH   3   6
ATOM      6  C   UNL     1       5.123   5.584  16.394  0.00  0.00    +0.000 A 
ATOM      7  C   UNL     1       6.491   5.812  16.585  0.00  0.00    +0.000 A 
ATOM      8  C   UNL     1       7.434   5.223  15.716  0.00  0.00    +0.000 A 
ATOM      9  C   UNL     1       7.030   4.419  14.648  0.00  0.00    +0.000 A 
ATOM     10  C   UNL     1       5.677   4.254  14.401  0.00  0.00    +0.000 A 
ATOM     11  C   UNL     1       4.737   4.862  15.242  0.00  0.00    +0.000 A 
ENDBRANCH   3   6
BRANCH   4  12
ATOM     12  N   UNL     1       3.700   3.869  18.566  0.00  0.00    +0.000 N 
ATOM     13  C   UNL     1       4.511   3.457  19.608  0.00  0.00    +0.000 A 
ATOM     14  C   UNL     1       4.542   2.080  19.654  0.00  0.00    +0.000 A 
ATOM     15  C   UNL     1       3.740   1.611  18.595  0.00  0.00    +0.000 A 
ATOM     16  C   UNL     1       3.258   2.721  17.933  0.00  0.00    +0.000 A 
ENDBRANCH   4  12
BRANCH   1  17
ATOM     17  C   UNL     1       1.806   8.449  18.749  0.00  0.00    +0.000 C 
ATOM     18  C   UNL     1       1.322   9.393  17.916  0.00  0.00    +0.000 C 
BRANCH  18  19
ATOM     19  C   UNL     1       0.569  10.575  18.386  0.00  0.00    +0.000 A 
ATOM     20  C   UNL     1       1.264  11.644  18.967  0.00  0.00    +0.000 A 
ATOM     21  F   UNL     1       2.605  11.618  19.026  0.00  0.00    +0.000 F 
ATOM     22  C   UNL     1       0.600  12.745  19.507  0.00  0.00    +0.000 A 
ATOM     23  C   UNL     1      -0.790  12.797  19.470  0.00  0.00    +0.000 A 
ATOM     24  C   UNL     1      -1.504  11.752  18.879  0.00  0.00    +0.000 A 
ATOM     25  C   UNL     1      -0.830  10.649  18.341  0.00  0.00    +0.000 A 
ATOM     26 CL   UNL     1      -1.781   9.391  17.636  0.00  0.00    +0.000 Cl
ENDBRANCH  18  19
BRANCH  17  28
ATOM     27  N   UNL     1       1.404   8.662  21.492  0.00  0.00    +0.000 NA
ATOM     28  C   UNL     1       1.586   8.565  20.248  0.00  0.00    +0.000 C 
ENDBRANCH  17  28
ENDBRANCH   1  17
BRANCH   5  29
ATOM     29  C   UNL     1       1.374   5.580  19.659  0.00  0.00    +0.000 C 
ATOM     30  N   UNL     1       0.553   5.264  20.419  0.00  0.00    +0.000 NA
ENDBRANCH   5  29
TORSDOF 6
ENDMDL
MODEL 4
REMARK VINA RESULT:      -6.6      1.329      1.920
REMARK  Name = 
REMARK  6 active torsions:
REMARK  status: ('A' for Active; 'I' for Inactive)
REMARK    1  A    between atoms: C_2  and  C_3
REMARK    2  A    between atoms: C_3  and  C_13
REMARK    3  A    between atoms: C_4  and  C_5
REMARK    4  A    between atoms: N_15  and  C_16
REMARK    5  A    between atoms: C_22  and  N_23
REMARK    6  A    between atoms: C_28  and  C_29
REMARK                            x       y       z     vdW  Elec       q    Type
REMARK                         _______ _______ _______ _____ _____    ______ ____
ROOT
ATOM      1  C   UNL     1       2.694   7.170  18.261  0.00  0.00    +0.000 A 
ATOM      2  N   UNL     1       3.803   7.142  17.475  0.00  0.00    +0.000 NA
ATOM      3  N   UNL     1       4.159   5.806  17.364  0.00  0.00    +0.000 N 
ATOM      4  C   UNL     1       3.417   5.043  18.256  0.00  0.00    +0.000 A 
ATOM      5  C   UNL     1       2.418   5.862  18.741  0.00  0.00    +0.000 A 
ENDROOT
BRANCH   3   6
ATOM      6  C   UNL     1       5.129   5.324  16.398  0.00  0.00    +0.000 A 
ATOM      7  C   UNL     1       4.744   4.561  15.290  0.00  0.00    +0.000 A 
ATOM      8  C   UNL     1       5.680   4.271  14.273  0.00  0.00    +0.000 A 
ATOM      9  C   UNL     1       6.999   4.720  14.354  0.00  0.00    +0.000 A 
ATOM     10  C   UNL     1       7.411   5.405  15.486  0.00  0.00    +0.000 A 
ATOM     11  C   UNL     1       6.494   5.668  16.511  0.00  0.00    +0.000 A 
ENDBRANCH   3   6
BRANCH   4  12
ATOM     12  N   UNL     1       3.681   3.722  18.639  0.00  0.00    +0.000 N 
ATOM     13  C   UNL     1       3.170   2.586  18.036  0.00  0.00    +0.000 A 
ATOM     14  C   UNL     1       3.671   1.465  18.662  0.00  0.00    +0.000 A 
ATOM     15  C   UNL     1       4.508   1.910  19.704  0.00  0.00    +0.000 A 
ATOM     16  C   UNL     1       4.478   3.288  19.683  0.00  0.00    +0.000 A 
ENDBRANCH   4  12
BRANCH   1  17
ATOM     17  C   UNL     1       1.894   8.348  18.668  0.00  0.00    +0.000 C 
ATOM     18  C   UNL     1       1.449   9.287  17.807  0.00  0.00    +0.000 C 
BRANCH  18  19
ATOM     19  C   UNL     1       0.726  10.501  18.240  0.00  0.00    +0.000 A 
ATOM     20  C   UNL     1       1.452  11.584  18.755  0.00  0.00    +0.000 A 
ATOM     21  F   UNL     1       2.793  11.538  18.784  0.00  0.00    +0.000 F 
ATOM     22  C   UNL     1       0.819  12.718  19.261  0.00  0.00    +0.000 A 
ATOM     23  C   UNL     1      -0.571  12.792  19.254  0.00  0.00    +0.000 A 
ATOM     24  C   UNL     1      -1.316  11.733  18.728  0.00  0.00    +0.000 A 
ATOM     25  C   UNL     1      -0.672  10.596  18.226  0.00  0.00    +0.000 A 
ATOM     26 CL   UNL     1      -1.660   9.323  17.601  0.00  0.00    +0.000 Cl
ENDBRANCH  18  19
BRANCH  17  28
ATOM     27  N   UNL     1       1.464   8.635  21.400  0.00  0.00    +0.000 NA
ATOM     28  C   UNL     1       1.659   8.505  20.161  0.00  0.00    +0.000 C 
ENDBRANCH  17  28
ENDBRANCH   1  17
BRANCH   5  29
ATOM     29  C   UNL     1       1.402   5.524  19.683  0.00  0.00    +0.000 C 
ATOM     30  N   UNL     1       0.582   5.244  20.457  0.00  0.00    +0.000 NA
ENDBRANCH   5  29
TORSDOF 6
ENDMDL
MODEL 5
REMARK VINA RESULT:      -6.4      2.766      7.767
REMARK  Name = 
REMARK  6 active torsions:
REMARK  status: ('A' for Active; 'I' for Inactive)
REMARK    1  A    between atoms: C_2  and  C_3
REMARK    2  A    between atoms: C_3  and  C_13
REMARK    3  A    between atoms: C_4  and  C_5
REMARK    4  A    between atoms: N_15  and  C_16
REMARK    5  A    between atoms: C_22  and  N_23
REMARK    6  A    between atoms: C_28  and  C_29
REMARK                            x       y       z     vdW  Elec       q    Type
REMARK                         _______ _______ _______ _____ _____    ______ ____
ROOT
ATOM      1  C   UNL     1       2.410   7.665  18.516  0.00  0.00    +0.000 A 
ATOM      2  N   UNL     1       1.935   8.834  18.011  0.00  0.00    +0.000 NA
ATOM      3  N   UNL     1       1.389   9.520  19.087  0.00  0.00    +0.000 N 
ATOM      4  C   UNL     1       1.322   8.686  20.195  0.00  0.00    +0.000 A 
ATOM      5  C   UNL     1       2.061   7.561  19.889  0.00  0.00    +0.000 A 
ENDROOT
BRANCH   3   6
ATOM      6  C   UNL     1       1.015  10.920  19.023  0.00  0.00    +0.000 A 
ATOM      7  C   UNL     1       1.976  11.933  18.920  0.00  0.00    +0.000 A 
ATOM      8  C   UNL     1       1.576  13.264  18.669  0.00  0.00    +0.000 A 
ATOM      9  C   UNL     1       0.228  13.600  18.534  0.00  0.00    +0.000 A 
ATOM     10  C   UNL     1      -0.734  12.621  18.716  0.00  0.00    +0.000 A 
ATOM     11  C   UNL     1      -0.344  11.305  18.996  0.00  0.00    +0.000 A 
ENDBRANCH   3   6
BRANCH   4  12
ATOM     12  N   UNL     1       0.588   8.916  21.365  0.00  0.00    +0.000 N 
ATOM     13  C   UNL     1       1.061   9.527  22.513  0.00  0.00    +0.000 A 
ATOM     14  C   UNL     1       0.050   9.607  23.446  0.00  0.00    +0.000 A 
ATOM     15  C   UNL     1      -1.091   9.011  22.873  0.00  0.00    +0.000 A 
ATOM     16  C   UNL     1      -0.730   8.577  21.615  0.00  0.00    +0.000 A 
ENDBRANCH   4  12
BRANCH   1  17
ATOM     17  C   UNL     1       3.115   6.580  17.794  0.00  0.00    +0.000 C 
ATOM     18  C   UNL     1       4.372   6.690  17.317  0.00  0.00    +0.000 C 
BRANCH  18  19
ATOM     19  C   UNL     1       5.030   5.631  16.525  0.00  0.00    +0.000 A 
ATOM     20  C   UNL     1       5.224   5.823  15.150  0.00  0.00    +0.000 A 
ATOM     21  F   UNL     1       4.878   6.988  14.581  0.00  0.00    +0.000 F 
ATOM     22  C   UNL     1       5.758   4.824  14.337  0.00  0.00    +0.000 A 
ATOM     23  C   UNL     1       6.117   3.600  14.894  0.00  0.00    +0.000 A 
ATOM     24  C   UNL     1       5.951   3.392  16.266  0.00  0.00    +0.000 A 
ATOM     25  C   UNL     1       5.412   4.399  17.075  0.00  0.00    +0.000 A 
ATOM     26 CL   UNL     1       5.227   4.065  18.760  0.00  0.00    +0.000 Cl
ENDBRANCH  18  19
BRANCH  17  28
ATOM     27  N   UNL     1       1.630   4.279  17.313  0.00  0.00    +0.000 NA
ATOM     28  C   UNL     1       2.304   5.323  17.532  0.00  0.00    +0.000 C 
ENDBRANCH  17  28
ENDBRANCH   1  17
BRANCH   5  29
ATOM     29  C   UNL     1       2.289   6.423  20.717  0.00  0.00    +0.000 C 
ATOM     30  N   UNL     1       2.468   5.490  21.386  0.00  0.00    +0.000 NA
ENDBRANCH   5  29
TORSDOF 6
ENDMDL
MODEL 6
REMARK VINA RESULT:      -6.4      7.996     10.339
REMARK  Name = 
REMARK  6 active torsions:
REMARK  status: ('A' for Active; 'I' for Inactive)
REMARK    1  A    between atoms: C_2  and  C_3
REMARK    2  A    between atoms: C_3  and  C_13
REMARK    3  A    between atoms: C_4  and  C_5
REMARK    4  A    between atoms: N_15  and  C_16
REMARK    5  A    between atoms: C_22  and  N_23
REMARK    6  A    between atoms: C_28  and  C_29
REMARK                            x       y       z     vdW  Elec       q    Type
REMARK                         _______ _______ _______ _____ _____    ______ ____
ROOT
ATOM      1  C   UNL     1       6.366  15.007  19.170  0.00  0.00    +0.000 A 
ATOM      2  N   UNL     1       7.258  14.071  18.752  0.00  0.00    +0.000 NA
ATOM      3  N   UNL     1       8.509  14.662  18.856  0.00  0.00    +0.000 N 
ATOM      4  C   UNL     1       8.372  16.019  19.115  0.00  0.00    +0.000 A 
ATOM      5  C   UNL     1       7.044  16.229  19.429  0.00  0.00    +0.000 A 
ENDROOT
BRANCH   3   6
ATOM      6  C   UNL     1       9.748  13.913  18.757  0.00  0.00    +0.000 A 
ATOM      7  C   UNL     1      10.619  13.787  19.846  0.00  0.00    +0.000 A 
ATOM      8  C   UNL     1      11.714  12.898  19.776  0.00  0.00    +0.000 A 
ATOM      9  C   UNL     1      11.961  12.144  18.628  0.00  0.00    +0.000 A 
ATOM     10  C   UNL     1      11.154  12.322  17.516  0.00  0.00    +0.000 A 
ATOM     11  C   UNL     1      10.085  13.225  17.570  0.00  0.00    +0.000 A 
ENDBRANCH   3   6
BRANCH   4  12
ATOM     12  N   UNL     1       9.373  16.992  19.007  0.00  0.00    +0.000 N 
ATOM     13  C   UNL     1       9.785  17.605  17.837  0.00  0.00    +0.000 A 
ATOM     14  C   UNL     1      10.768  18.529  18.119  0.00  0.00    +0.000 A 
ATOM     15  C   UNL     1      10.996  18.480  19.509  0.00  0.00    +0.000 A 
ATOM     16  C   UNL     1      10.151  17.520  20.022  0.00  0.00    +0.000 A 
ENDBRANCH   4  12
BRANCH   1  17
ATOM     17  C   UNL     1       4.895  14.878  19.286  0.00  0.00    +0.000 C 
ATOM     18  C   UNL     1       4.042  15.076  18.260  0.00  0.00    +0.000 C 
BRANCH  18  19
ATOM     19  C   UNL     1       2.573  15.028  18.412  0.00  0.00    +0.000 A 
ATOM     20  C   UNL     1       1.869  16.216  18.655  0.00  0.00    +0.000 A 
ATOM     21  F   UNL     1       2.522  17.388  18.676  0.00  0.00    +0.000 F 
ATOM     22  C   UNL     1       0.496  16.220  18.895  0.00  0.00    +0.000 A 
ATOM     23  C   UNL     1      -0.208  15.020  18.890  0.00  0.00    +0.000 A 
ATOM     24  C   UNL     1       0.468  13.825  18.631  0.00  0.00    +0.000 A 
ATOM     25  C   UNL     1       1.847  13.828  18.395  0.00  0.00    +0.000 A 
ATOM     26 CL   UNL     1       2.616  12.311  18.092  0.00  0.00    +0.000 Cl
ENDBRANCH  18  19
BRANCH  17  28
ATOM     27  N   UNL     1       3.923  14.342  21.835  0.00  0.00    +0.000 NA
ATOM     28  C   UNL     1       4.364  14.586  20.679  0.00  0.00    +0.000 C 
ENDBRANCH  17  28
ENDBRANCH   1  17
BRANCH   5  29
ATOM     29  C   UNL     1       6.420  17.464  19.774  0.00  0.00    +0.000 C 
ATOM     30  N   UNL     1       5.906  18.465  20.062  0.00  0.00    +0.000 NA
ENDBRANCH   5  29
TORSDOF 6
ENDMDL
MODEL 7
REMARK VINA RESULT:      -6.3      7.961      9.439
REMARK  Name = 
REMARK  6 active torsions:
REMARK  status: ('A' for Active; 'I' for Inactive)
REMARK    1  A    between atoms: C_2  and  C_3
REMARK    2  A    between atoms: C_3  and  C_13
REMARK    3  A    between atoms: C_4  and  C_5
REMARK    4  A    between atoms: N_15  and  C_16
REMARK    5  A    between atoms: C_22  and  N_23
REMARK    6  A    between atoms: C_28  and  C_29
REMARK                            x       y       z     vdW  Elec       q    Type
REMARK                         _______ _______ _______ _____ _____    ______ ____
ROOT
ATOM      1  C   UNL     1       5.324  15.114  18.717  0.00  0.00    +0.000 A 
ATOM      2  N   UNL     1       6.371  14.915  17.874  0.00  0.00    +0.000 NA
ATOM      3  N   UNL     1       7.434  14.517  18.672  0.00  0.00    +0.000 N 
ATOM      4  C   UNL     1       7.112  14.691  20.011  0.00  0.00    +0.000 A 
ATOM      5  C   UNL     1       5.758  14.953  20.060  0.00  0.00    +0.000 A 
ENDROOT
BRANCH   3   6
ATOM      6  C   UNL     1       8.659  13.954  18.134  0.00  0.00    +0.000 A 
ATOM      7  C   UNL     1       9.746  14.763  17.781  0.00  0.00    +0.000 A 
ATOM      8  C   UNL     1      10.984  14.174  17.443  0.00  0.00    +0.000 A 
ATOM      9  C   UNL     1      11.148  12.788  17.437  0.00  0.00    +0.000 A 
ATOM     10  C   UNL     1      10.057  11.978  17.703  0.00  0.00    +0.000 A 
ATOM     11  C   UNL     1       8.819  12.556  18.010  0.00  0.00    +0.000 A 
ENDBRANCH   3   6
BRANCH   4  12
ATOM     12  N   UNL     1       8.004  14.673  21.090  0.00  0.00    +0.000 N 
ATOM     13  C   UNL     1       8.276  13.585  21.899  0.00  0.00    +0.000 A 
ATOM     14  C   UNL     1       9.226  13.930  22.836  0.00  0.00    +0.000 A 
ATOM     15  C   UNL     1       9.548  15.284  22.621  0.00  0.00    +0.000 A 
ATOM     16  C   UNL     1       8.773  15.720  21.567  0.00  0.00    +0.000 A 
ENDBRANCH   4  12
BRANCH   1  17
ATOM     17  C   UNL     1       3.941  15.518  18.375  0.00  0.00    +0.000 C 
ATOM     18  C   UNL     1       3.524  16.800  18.324  0.00  0.00    +0.000 C 
BRANCH  18  19
ATOM     19  C   UNL     1       2.120  17.181  18.065  0.00  0.00    +0.000 A 
ATOM     20  C   UNL     1       1.760  17.648  16.793  0.00  0.00    +0.000 A 
ATOM     21  F   UNL     1       2.670  17.675  15.808  0.00  0.00    +0.000 F 
ATOM     22  C   UNL     1       0.472  18.105  16.517  0.00  0.00    +0.000 A 
ATOM     23  C   UNL     1      -0.492  18.098  17.520  0.00  0.00    +0.000 A 
ATOM     24  C   UNL     1      -0.162  17.620  18.791  0.00  0.00    +0.000 A 
ATOM     25  C   UNL     1       1.134  17.165  19.062  0.00  0.00    +0.000 A 
ATOM     26 CL   UNL     1       1.470  16.599  20.659  0.00  0.00    +0.000 Cl
ENDBRANCH  18  19
BRANCH  17  28
ATOM     27  N   UNL     1       2.136  13.440  17.977  0.00  0.00    +0.000 NA
ATOM     28  C   UNL     1       2.955  14.382  18.157  0.00  0.00    +0.000 C 
ENDBRANCH  17  28
ENDBRANCH   1  17
BRANCH   5  29
ATOM     29  C   UNL     1       4.965  15.197  21.221  0.00  0.00    +0.000 C 
ATOM     30  N   UNL     1       4.311  15.389  22.162  0.00  0.00    +0.000 NA
ENDBRANCH   5  29
TORSDOF 6
ENDMDL
MODEL 8
REMARK VINA RESULT:      -6.3      6.751      9.149
REMARK  Name = 
REMARK  6 active torsions:
REMARK  status: ('A' for Active; 'I' for Inactive)
REMARK    1  A    between atoms: C_2  and  C_3
REMARK    2  A    between atoms: C_3  and  C_13
REMARK    3  A    between atoms: C_4  and  C_5
REMARK    4  A    between atoms: N_15  and  C_16
REMARK    5  A    between atoms: C_22  and  N_23
REMARK    6  A    between atoms: C_28  and  C_29
REMARK                            x       y       z     vdW  Elec       q    Type
REMARK                         _______ _______ _______ _____ _____    ______ ____
ROOT
ATOM      1  C   UNL     1       1.811  13.890  19.243  0.00  0.00    +0.000 A 
ATOM      2  N   UNL     1       1.230  12.988  18.410  0.00  0.00    +0.000 NA
ATOM      3  N   UNL     1       0.166  12.446  19.117  0.00  0.00    +0.000 N 
ATOM      4  C   UNL     1       0.231  12.841  20.446  0.00  0.00    +0.000 A 
ATOM      5  C   UNL     1       1.186  13.835  20.517  0.00  0.00    +0.000 A 
ENDROOT
BRANCH   3   6
ATOM      6  C   UNL     1      -0.868  11.639  18.495  0.00  0.00    +0.000 A 
ATOM      7  C   UNL     1      -2.167  12.127  18.307  0.00  0.00    +0.000 A 
ATOM      8  C   UNL     1      -3.091  11.394  17.531  0.00  0.00    +0.000 A 
ATOM      9  C   UNL     1      -2.742  10.173  16.952  0.00  0.00    +0.000 A 
ATOM     10  C   UNL     1      -1.487   9.642  17.201  0.00  0.00    +0.000 A 
ATOM     11  C   UNL     1      -0.576  10.351  17.995  0.00  0.00    +0.000 A 
ENDBRANCH   3   6
BRANCH   4  12
ATOM     12  N   UNL     1      -0.484  12.285  21.514  0.00  0.00    +0.000 N 
ATOM     13  C   UNL     1      -0.241  11.054  22.099  0.00  0.00    +0.000 A 
ATOM     14  C   UNL     1      -1.122  10.854  23.139  0.00  0.00    +0.000 A 
ATOM     15  C   UNL     1      -1.958  11.986  23.199  0.00  0.00    +0.000 A 
ATOM     16  C   UNL     1      -1.564  12.832  22.184  0.00  0.00    +0.000 A 
ENDBRANCH   4  12
BRANCH   1  17
ATOM     17  C   UNL     1       2.971  14.770  18.968  0.00  0.00    +0.000 C 
ATOM     18  C   UNL     1       4.220  14.527  19.417  0.00  0.00    +0.000 C 
BRANCH  18  19
ATOM     19  C   UNL     1       5.348  15.458  19.206  0.00  0.00    +0.000 A 
ATOM     20  C   UNL     1       6.330  15.142  18.258  0.00  0.00    +0.000 A 
ATOM     21  F   UNL     1       6.202  14.040  17.503  0.00  0.00    +0.000 F 
ATOM     22  C   UNL     1       7.461  15.937  18.079  0.00  0.00    +0.000 A 
ATOM     23  C   UNL     1       7.628  17.082  18.853  0.00  0.00    +0.000 A 
ATOM     24  C   UNL     1       6.653  17.428  19.792  0.00  0.00    +0.000 A 
ATOM     25  C   UNL     1       5.522  16.623  19.967  0.00  0.00    +0.000 A 
ATOM     26 CL   UNL     1       4.364  17.109  21.154  0.00  0.00    +0.000 Cl
ENDBRANCH  18  19
BRANCH  17  28
ATOM     27  N   UNL     1       2.415  17.106  17.568  0.00  0.00    +0.000 NA
ATOM     28  C   UNL     1       2.667  16.046  18.203  0.00  0.00    +0.000 C 
ENDBRANCH  17  28
ENDBRANCH   1  17
BRANCH   5  29
ATOM     29  C   UNL     1       1.603  14.554  21.676  0.00  0.00    +0.000 C 
ATOM     30  N   UNL     1       1.951  15.145  22.614  0.00  0.00    +0.000 NA
ENDBRANCH   5  29
TORSDOF 6
ENDMDL
MODEL 9
REMARK VINA RESULT:      -6.3      8.161      9.453
REMARK  Name = 
REMARK  6 active torsions:
REMARK  status: ('A' for Active; 'I' for Inactive)
REMARK    1  A    between atoms: C_2  and  C_3
REMARK    2  A    between atoms: C_3  and  C_13
REMARK    3  A    between atoms: C_4  and  C_5
REMARK    4  A    between atoms: N_15  and  C_16
REMARK    5  A    between atoms: C_22  and  N_23
REMARK    6  A    between atoms: C_28  and  C_29
REMARK                            x       y       z     vdW  Elec       q    Type
REMARK                         _______ _______ _______ _____ _____    ______ ____
ROOT
ATOM      1  C   UNL     1       4.956  15.208  19.174  0.00  0.00    +0.000 A 
ATOM      2  N   UNL     1       6.074  15.272  18.404  0.00  0.00    +0.000 NA
ATOM      3  N   UNL     1       7.110  14.799  19.196  0.00  0.00    +0.000 N 
ATOM      4  C   UNL     1       6.679  14.664  20.509  0.00  0.00    +0.000 A 
ATOM      5  C   UNL     1       5.306  14.805  20.490  0.00  0.00    +0.000 A 
ENDROOT
BRANCH   3   6
ATOM      6  C   UNL     1       8.417  14.457  18.666  0.00  0.00    +0.000 A 
ATOM      7  C   UNL     1       8.713  13.164  18.219  0.00  0.00    +0.000 A 
ATOM      8  C   UNL     1       9.922  12.912  17.536  0.00  0.00    +0.000 A 
ATOM      9  C   UNL     1      10.849  13.930  17.307  0.00  0.00    +0.000 A 
ATOM     10  C   UNL     1      10.604  15.194  17.818  0.00  0.00    +0.000 A 
ATOM     11  C   UNL     1       9.420  15.442  18.522  0.00  0.00    +0.000 A 
ENDBRANCH   3   6
BRANCH   4  12
ATOM     12  N   UNL     1       7.490  14.490  21.637  0.00  0.00    +0.000 N 
ATOM     13  C   UNL     1       7.767  13.285  22.258  0.00  0.00    +0.000 A 
ATOM     14  C   UNL     1       8.625  13.496  23.317  0.00  0.00    +0.000 A 
ATOM     15  C   UNL     1       8.880  14.881  23.374  0.00  0.00    +0.000 A 
ATOM     16  C   UNL     1       8.158  15.466  22.355  0.00  0.00    +0.000 A 
ENDBRANCH   4  12
BRANCH   1  17
ATOM     17  C   UNL     1       3.568  15.567  18.799  0.00  0.00    +0.000 C 
ATOM     18  C   UNL     1       3.077  16.822  18.852  0.00  0.00    +0.000 C 
BRANCH  18  19
ATOM     19  C   UNL     1       1.667  17.150  18.557  0.00  0.00    +0.000 A 
ATOM     20  C   UNL     1       1.336  17.695  17.309  0.00  0.00    +0.000 A 
ATOM     21  F   UNL     1       2.285  17.847  16.372  0.00  0.00    +0.000 F 
ATOM     22  C   UNL     1       0.038  18.104  17.007  0.00  0.00    +0.000 A 
ATOM     23  C   UNL     1      -0.967  17.968  17.960  0.00  0.00    +0.000 A 
ATOM     24  C   UNL     1      -0.666  17.410  19.205  0.00  0.00    +0.000 A 
ATOM     25  C   UNL     1       0.641  17.004  19.501  0.00  0.00    +0.000 A 
ATOM     26 CL   UNL     1       0.939  16.332  21.065  0.00  0.00    +0.000 Cl
ENDBRANCH  18  19
BRANCH  17  28
ATOM     27  N   UNL     1       1.915  13.443  18.101  0.00  0.00    +0.000 NA
ATOM     28  C   UNL     1       2.665  14.407  18.418  0.00  0.00    +0.000 C 
ENDBRANCH  17  28
ENDBRANCH   1  17
BRANCH   5  29
ATOM     29  C   UNL     1       4.413  14.739  21.601  0.00  0.00    +0.000 C 
ATOM     30  N   UNL     1       3.679  14.691  22.500  0.00  0.00    +0.000 NA
ENDBRANCH   5  29
TORSDOF 6
ENDMDL
