MODEL 1
REMARK VINA RESULT:      -7.9      0.000      0.000
REMARK  Name = 
REMARK  5 active torsions:
REMARK  status: ('A' for Active; 'I' for Inactive)
REMARK    1  A    between atoms: C_2  and  O_3
REMARK    2  A    between atoms: C_2  and  C_11
REMARK    3  A    between atoms: O_3  and  C_4
REMARK    4  A    between atoms: C_4  and  C_5
REMARK    5  A    between atoms: N_18  and  C_19
REMARK                            x       y       z     vdW  Elec       q    Type
REMARK                         _______ _______ _______ _____ _____    ______ ____
ROOT
ATOM      1  C   UNL     1       6.058   7.244  17.627  0.00  0.00    +0.000 C 
ATOM      2  C   UNL     1       7.478   7.493  17.083  0.00  0.00    +0.000 C 
ATOM      3  C   UNL     1       8.386   7.238  18.277  0.00  0.00    +0.000 C 
ATOM      4  C   UNL     1       7.661   6.159  19.063  0.00  0.00    +0.000 C 
ATOM      5  N   UNL     1       6.311   6.075  18.509  0.00  0.00    +0.000 N 
ATOM      6  C   UNL     1       5.445   5.220  19.164  0.00  0.00    +0.000 C 
ATOM      7  O   UNL     1       5.817   4.587  20.152  0.00  0.00    +0.000 OA
ATOM      8  N   UNL     1       4.193   5.072  18.632  0.00  0.00    +0.000 N 
ATOM      9  H   UNL     1       4.153   5.231  17.630  0.00  0.00    +0.000 HD
ENDROOT
BRANCH   8  10
ATOM     10  C   UNL     1       3.184   4.117  19.156  0.00  0.00    +0.000 C 
ATOM     11  C   UNL     1       2.653   4.583  20.536  0.00  0.00    +0.000 C 
ATOM     12  C   UNL     1       1.550   3.649  21.058  0.00  0.00    +0.000 C 
ATOM     13  C   UNL     1       0.386   3.628  20.060  0.00  0.00    +0.000 C 
ATOM     14  C   UNL     1       0.876   3.107  18.698  0.00  0.00    +0.000 C 
ATOM     15  C   UNL     1       1.981   4.039  18.167  0.00  0.00    +0.000 C 
ATOM     16  C   UNL     1       1.453   1.691  18.861  0.00  0.00    +0.000 C 
ATOM     17  C   UNL     1       2.631   1.723  19.849  0.00  0.00    +0.000 C 
ATOM     18  C   UNL     1       3.733   2.672  19.319  0.00  0.00    +0.000 C 
ATOM     19  C   UNL     1       2.118   2.227  21.207  0.00  0.00    +0.000 C 
ENDBRANCH   8  10
BRANCH   1  21
ATOM     20  O   UNL     1       3.956   7.596  16.430  0.00  0.00    +0.000 OA
ATOM     21  C   UNL     1       5.091   7.120  16.439  0.00  0.00    +0.000 C 
BRANCH  21  22
ATOM     22  O   UNL     1       5.654   6.476  15.382  0.00  0.00    +0.000 OA
BRANCH  22  23
ATOM     23  C   UNL     1       5.453   5.050  15.325  0.00  0.00    +0.000 C 
BRANCH  23  24
ATOM     24  C   UNL     1       5.940   4.530  13.993  0.00  0.00    +0.000 A 
ATOM     25  C   UNL     1       5.212   3.576  13.268  0.00  0.00    +0.000 A 
ATOM     26  C   UNL     1       5.711   3.068  12.064  0.00  0.00    +0.000 A 
ATOM     27  C   UNL     1       6.934   3.518  11.572  0.00  0.00    +0.000 A 
ATOM     28  C   UNL     1       7.655   4.483  12.271  0.00  0.00    +0.000 A 
ATOM     29  C   UNL     1       7.160   4.988  13.475  0.00  0.00    +0.000 A 
ENDBRANCH  23  24
ENDBRANCH  22  23
ENDBRANCH  21  22
ENDBRANCH   1  21
TORSDOF 5
ENDMDL
MODEL 2
REMARK VINA RESULT:      -7.9      0.114      1.670
REMARK  Name = 
REMARK  5 active torsions:
REMARK  status: ('A' for Active; 'I' for Inactive)
REMARK    1  A    between atoms: C_2  and  O_3
REMARK    2  A    between atoms: C_2  and  C_11
REMARK    3  A    between atoms: O_3  and  C_4
REMARK    4  A    between atoms: C_4  and  C_5
REMARK    5  A    between atoms: N_18  and  C_19
REMARK                            x       y       z     vdW  Elec       q    Type
REMARK                         _______ _______ _______ _____ _____    ______ ____
ROOT
ATOM      1  C   UNL     1       6.062   7.296  17.660  0.00  0.00    +0.000 C 
ATOM      2  C   UNL     1       7.484   7.539  17.117  0.00  0.00    +0.000 C 
ATOM      3  C   UNL     1       8.392   7.252  18.304  0.00  0.00    +0.000 C 
ATOM      4  C   UNL     1       7.656   6.167  19.072  0.00  0.00    +0.000 C 
ATOM      5  N   UNL     1       6.304   6.109  18.520  0.00  0.00    +0.000 N 
ATOM      6  C   UNL     1       5.430   5.252  19.161  0.00  0.00    +0.000 C 
ATOM      7  O   UNL     1       5.797   4.597  20.136  0.00  0.00    +0.000 OA
ATOM      8  N   UNL     1       4.176   5.128  18.629  0.00  0.00    +0.000 N 
ATOM      9  H   UNL     1       4.135   5.306  17.630  0.00  0.00    +0.000 HD
ENDROOT
BRANCH   8  10
ATOM     10  C   UNL     1       3.156   4.175  19.139  0.00  0.00    +0.000 C 
ATOM     11  C   UNL     1       3.787   2.782  19.396  0.00  0.00    +0.000 C 
ATOM     12  C   UNL     1       2.765   1.805  19.997  0.00  0.00    +0.000 C 
ATOM     13  C   UNL     1       2.245   2.367  21.326  0.00  0.00    +0.000 C 
ATOM     14  C   UNL     1       1.557   3.721  21.086  0.00  0.00    +0.000 C 
ATOM     15  C   UNL     1       2.575   4.708  20.484  0.00  0.00    +0.000 C 
ATOM     16  C   UNL     1       0.391   3.543  20.099  0.00  0.00    +0.000 C 
ATOM     17  C   UNL     1       0.923   2.998  18.763  0.00  0.00    +0.000 C 
ATOM     18  C   UNL     1       1.957   3.984  18.169  0.00  0.00    +0.000 C 
ATOM     19  C   UNL     1       1.589   1.636  19.021  0.00  0.00    +0.000 C 
ENDBRANCH   8  10
BRANCH   1  21
ATOM     20  O   UNL     1       3.967   7.707  16.469  0.00  0.00    +0.000 OA
ATOM     21  C   UNL     1       5.092   7.205  16.472  0.00  0.00    +0.000 C 
BRANCH  21  22
ATOM     22  O   UNL     1       5.638   6.558  15.408  0.00  0.00    +0.000 OA
BRANCH  22  23
ATOM     23  C   UNL     1       5.464   5.128  15.376  0.00  0.00    +0.000 C 
BRANCH  23  24
ATOM     24  C   UNL     1       6.010   4.587  14.075  0.00  0.00    +0.000 A 
ATOM     25  C   UNL     1       7.230   5.035  13.550  0.00  0.00    +0.000 A 
ATOM     26  C   UNL     1       7.688   4.561  12.316  0.00  0.00    +0.000 A 
ATOM     27  C   UNL     1       6.935   3.630  11.605  0.00  0.00    +0.000 A 
ATOM     28  C   UNL     1       5.734   3.159  12.129  0.00  0.00    +0.000 A 
ATOM     29  C   UNL     1       5.273   3.634  13.358  0.00  0.00    +0.000 A 
ENDBRANCH  23  24
ENDBRANCH  22  23
ENDBRANCH  21  22
ENDBRANCH   1  21
TORSDOF 5
ENDMDL
MODEL 3
REMARK VINA RESULT:      -7.9      0.111      1.717
REMARK  Name = 
REMARK  5 active torsions:
REMARK  status: ('A' for Active; 'I' for Inactive)
REMARK    1  A    between atoms: C_2  and  O_3
REMARK    2  A    between atoms: C_2  and  C_11
REMARK    3  A    between atoms: O_3  and  C_4
REMARK    4  A    between atoms: C_4  and  C_5
REMARK    5  A    between atoms: N_18  and  C_19
REMARK                            x       y       z     vdW  Elec       q    Type
REMARK                         _______ _______ _______ _____ _____    ______ ____
ROOT
ATOM      1  C   UNL     1       6.027   7.259  17.679  0.00  0.00    +0.000 C 
ATOM      2  C   UNL     1       7.449   7.481  17.130  0.00  0.00    +0.000 C 
ATOM      3  C   UNL     1       8.357   7.196  18.317  0.00  0.00    +0.000 C 
ATOM      4  C   UNL     1       7.612   6.126  19.097  0.00  0.00    +0.000 C 
ATOM      5  N   UNL     1       6.258   6.076  18.549  0.00  0.00    +0.000 N 
ATOM      6  C   UNL     1       5.376   5.235  19.201  0.00  0.00    +0.000 C 
ATOM      7  O   UNL     1       5.739   4.586  20.180  0.00  0.00    +0.000 OA
ATOM      8  N   UNL     1       4.119   5.120  18.673  0.00  0.00    +0.000 N 
ATOM      9  H   UNL     1       4.078   5.289  17.672  0.00  0.00    +0.000 HD
ENDROOT
BRANCH   8  10
ATOM     10  C   UNL     1       3.091   4.182  19.194  0.00  0.00    +0.000 C 
ATOM     11  C   UNL     1       1.940   4.007  18.171  0.00  0.00    +0.000 C 
ATOM     12  C   UNL     1       0.906   2.981  18.660  0.00  0.00    +0.000 C 
ATOM     13  C   UNL     1       1.594   1.626  18.870  0.00  0.00    +0.000 C 
ATOM     14  C   UNL     1       2.700   1.761  19.930  0.00  0.00    +0.000 C 
ATOM     15  C   UNL     1       3.742   2.788  19.447  0.00  0.00    +0.000 C 
ATOM     16  C   UNL     1       2.092   2.252  21.254  0.00  0.00    +0.000 C 
ATOM     17  C   UNL     1       1.421   3.619  21.040  0.00  0.00    +0.000 C 
ATOM     18  C   UNL     1       2.467   4.643  20.541  0.00  0.00    +0.000 C 
ATOM     19  C   UNL     1       0.307   3.459  19.993  0.00  0.00    +0.000 C 
ENDBRANCH   8  10
BRANCH   1  21
ATOM     20  O   UNL     1       3.925   7.663  16.497  0.00  0.00    +0.000 OA
ATOM     21  C   UNL     1       5.052   7.166  16.494  0.00  0.00    +0.000 C 
BRANCH  21  22
ATOM     22  O   UNL     1       5.597   6.525  15.427  0.00  0.00    +0.000 OA
BRANCH  22  23
ATOM     23  C   UNL     1       5.362   5.105  15.349  0.00  0.00    +0.000 C 
BRANCH  23  24
ATOM     24  C   UNL     1       5.951   4.570  14.065  0.00  0.00    +0.000 A 
ATOM     25  C   UNL     1       7.186   5.024  13.581  0.00  0.00    +0.000 A 
ATOM     26  C   UNL     1       7.685   4.555  12.361  0.00  0.00    +0.000 A 
ATOM     27  C   UNL     1       6.959   3.622  11.624  0.00  0.00    +0.000 A 
ATOM     28  C   UNL     1       5.743   3.145  12.108  0.00  0.00    +0.000 A 
ATOM     29  C   UNL     1       5.242   3.615  13.323  0.00  0.00    +0.000 A 
ENDBRANCH  23  24
ENDBRANCH  22  23
ENDBRANCH  21  22
ENDBRANCH   1  21
TORSDOF 5
ENDMDL
MODEL 4
REMARK VINA RESULT:      -7.7      5.817      8.845
REMARK  Name = 
REMARK  5 active torsions:
REMARK  status: ('A' for Active; 'I' for Inactive)
REMARK    1  A    between atoms: C_2  and  O_3
REMARK    2  A    between atoms: C_2  and  C_11
REMARK    3  A    between atoms: O_3  and  C_4
REMARK    4  A    between atoms: C_4  and  C_5
REMARK    5  A    between atoms: N_18  and  C_19
REMARK                            x       y       z     vdW  Elec       q    Type
REMARK                         _______ _______ _______ _____ _____    ______ ____
ROOT
ATOM      1  C   UNL     1       1.377   9.735  20.226  0.00  0.00    +0.000 C 
ATOM      2  C   UNL     1       0.722  11.009  19.657  0.00  0.00    +0.000 C 
ATOM      3  C   UNL     1       1.591  11.377  18.465  0.00  0.00    +0.000 C 
ATOM      4  C   UNL     1       2.076  10.037  17.939  0.00  0.00    +0.000 C 
ATOM      5  N   UNL     1       1.758   9.046  18.965  0.00  0.00    +0.000 N 
ATOM      6  C   UNL     1       2.220   7.765  18.728  0.00  0.00    +0.000 C 
ATOM      7  O   UNL     1       2.859   7.509  17.709  0.00  0.00    +0.000 OA
ATOM      8  N   UNL     1       1.884   6.802  19.640  0.00  0.00    +0.000 N 
ATOM      9  H   UNL     1       1.016   6.989  20.132  0.00  0.00    +0.000 HD
ENDROOT
BRANCH   8  10
ATOM     10  C   UNL     1       2.215   5.363  19.476  0.00  0.00    +0.000 C 
ATOM     11  C   UNL     1       1.453   4.504  20.517  0.00  0.00    +0.000 C 
ATOM     12  C   UNL     1       1.723   3.005  20.313  0.00  0.00    +0.000 C 
ATOM     13  C   UNL     1       1.273   2.594  18.905  0.00  0.00    +0.000 C 
ATOM     14  C   UNL     1       2.063   3.390  17.852  0.00  0.00    +0.000 C 
ATOM     15  C   UNL     1       1.797   4.894  18.049  0.00  0.00    +0.000 C 
ATOM     16  C   UNL     1       3.568   3.122  18.021  0.00  0.00    +0.000 C 
ATOM     17  C   UNL     1       4.015   3.554  19.428  0.00  0.00    +0.000 C 
ATOM     18  C   UNL     1       3.733   5.062  19.628  0.00  0.00    +0.000 C 
ATOM     19  C   UNL     1       3.229   2.735  20.464  0.00  0.00    +0.000 C 
ENDBRANCH   8  10
BRANCH   1  21
ATOM     20  O   UNL     1       0.575   7.960  21.704  0.00  0.00    +0.000 OA
ATOM     21  C   UNL     1       0.394   9.071  21.203  0.00  0.00    +0.000 C 
BRANCH  21  22
ATOM     22  O   UNL     1      -0.665   9.872  21.492  0.00  0.00    +0.000 OA
BRANCH  22  23
ATOM     23  C   UNL     1      -0.795  10.283  22.867  0.00  0.00    +0.000 C 
BRANCH  23  24
ATOM     24  C   UNL     1      -1.381  11.675  22.919  0.00  0.00    +0.000 A 
ATOM     25  C   UNL     1      -0.651  12.794  22.493  0.00  0.00    +0.000 A 
ATOM     26  C   UNL     1      -1.194  14.078  22.603  0.00  0.00    +0.000 A 
ATOM     27  C   UNL     1      -2.472  14.251  23.129  0.00  0.00    +0.000 A 
ATOM     28  C   UNL     1      -3.216  13.146  23.532  0.00  0.00    +0.000 A 
ATOM     29  C   UNL     1      -2.674  11.864  23.427  0.00  0.00    +0.000 A 
ENDBRANCH  23  24
ENDBRANCH  22  23
ENDBRANCH  21  22
ENDBRANCH   1  21
TORSDOF 5
ENDMDL
MODEL 5
REMARK VINA RESULT:      -7.7      5.720      8.816
REMARK  Name = 
REMARK  5 active torsions:
REMARK  status: ('A' for Active; 'I' for Inactive)
REMARK    1  A    between atoms: C_2  and  O_3
REMARK    2  A    between atoms: C_2  and  C_11
REMARK    3  A    between atoms: O_3  and  C_4
REMARK    4  A    between atoms: C_4  and  C_5
REMARK    5  A    between atoms: N_18  and  C_19
REMARK                            x       y       z     vdW  Elec       q    Type
REMARK                         _______ _______ _______ _____ _____    ______ ____
ROOT
ATOM      1  C   UNL     1       1.434   9.584  20.196  0.00  0.00    +0.000 C 
ATOM      2  C   UNL     1       0.819  10.881  19.636  0.00  0.00    +0.000 C 
ATOM      3  C   UNL     1       1.703  11.233  18.449  0.00  0.00    +0.000 C 
ATOM      4  C   UNL     1       2.149   9.883  17.914  0.00  0.00    +0.000 C 
ATOM      5  N   UNL     1       1.799   8.894  18.931  0.00  0.00    +0.000 N 
ATOM      6  C   UNL     1       2.223   7.602  18.684  0.00  0.00    +0.000 C 
ATOM      7  O   UNL     1       2.859   7.336  17.665  0.00  0.00    +0.000 OA
ATOM      8  N   UNL     1       1.856   6.642  19.587  0.00  0.00    +0.000 N 
ATOM      9  H   UNL     1       0.992   6.851  20.079  0.00  0.00    +0.000 HD
ENDROOT
BRANCH   8  10
ATOM     10  C   UNL     1       2.145   5.196  19.413  0.00  0.00    +0.000 C 
ATOM     11  C   UNL     1       3.647   4.902  19.661  0.00  0.00    +0.000 C 
ATOM     12  C   UNL     1       3.949   3.399  19.562  0.00  0.00    +0.000 C 
ATOM     13  C   UNL     1       3.118   2.643  20.605  0.00  0.00    +0.000 C 
ATOM     14  C   UNL     1       1.619   2.868  20.341  0.00  0.00    +0.000 C 
ATOM     15  C   UNL     1       1.307   4.373  20.439  0.00  0.00    +0.000 C 
ATOM     16  C   UNL     1       1.263   2.375  18.928  0.00  0.00    +0.000 C 
ATOM     17  C   UNL     1       2.086   3.151  17.887  0.00  0.00    +0.000 C 
ATOM     18  C   UNL     1       1.782   4.663  17.999  0.00  0.00    +0.000 C 
ATOM     19  C   UNL     1       3.579   2.898  18.156  0.00  0.00    +0.000 C 
ENDBRANCH   8  10
BRANCH   1  21
ATOM     20  O   UNL     1       0.579   7.825  21.662  0.00  0.00    +0.000 OA
ATOM     21  C   UNL     1       0.429   8.941  21.165  0.00  0.00    +0.000 C 
BRANCH  21  22
ATOM     22  O   UNL     1      -0.612   9.768  21.451  0.00  0.00    +0.000 OA
BRANCH  22  23
ATOM     23  C   UNL     1      -0.750  10.163  22.830  0.00  0.00    +0.000 C 
BRANCH  23  24
ATOM     24  C   UNL     1      -1.300  11.568  22.894  0.00  0.00    +0.000 A 
ATOM     25  C   UNL     1      -0.541  12.672  22.481  0.00  0.00    +0.000 A 
ATOM     26  C   UNL     1      -1.051  13.969  22.602  0.00  0.00    +0.000 A 
ATOM     27  C   UNL     1      -2.325  14.170  23.127  0.00  0.00    +0.000 A 
ATOM     28  C   UNL     1      -3.098  13.079  23.518  0.00  0.00    +0.000 A 
ATOM     29  C   UNL     1      -2.589  11.785  23.401  0.00  0.00    +0.000 A 
ENDBRANCH  23  24
ENDBRANCH  22  23
ENDBRANCH  21  22
ENDBRANCH   1  21
TORSDOF 5
ENDMDL
MODEL 6
REMARK VINA RESULT:      -7.7      5.263      7.843
REMARK  Name = 
REMARK  5 active torsions:
REMARK  status: ('A' for Active; 'I' for Inactive)
REMARK    1  A    between atoms: C_2  and  O_3
REMARK    2  A    between atoms: C_2  and  C_11
REMARK    3  A    between atoms: O_3  and  C_4
REMARK    4  A    between atoms: C_4  and  C_5
REMARK    5  A    between atoms: N_18  and  C_19
REMARK                            x       y       z     vdW  Elec       q    Type
REMARK                         _______ _______ _______ _____ _____    ______ ____
ROOT
ATOM      1  C   UNL     1       0.736   9.548  19.513  0.00  0.00    +0.000 C 
ATOM      2  C   UNL     1       0.366  10.551  20.623  0.00  0.00    +0.000 C 
ATOM      3  C   UNL     1      -0.224   9.687  21.727  0.00  0.00    +0.000 C 
ATOM      4  C   UNL     1       0.535   8.376  21.609  0.00  0.00    +0.000 C 
ATOM      5  N   UNL     1       1.246   8.418  20.333  0.00  0.00    +0.000 N 
ATOM      6  C   UNL     1       1.917   7.263  19.980  0.00  0.00    +0.000 C 
ATOM      7  O   UNL     1       1.893   6.276  20.715  0.00  0.00    +0.000 OA
ATOM      8  N   UNL     1       2.643   7.293  18.821  0.00  0.00    +0.000 N 
ATOM      9  H   UNL     1       2.977   8.219  18.571  0.00  0.00    +0.000 HD
ENDROOT
BRANCH   8  10
ATOM     10  C   UNL     1       3.499   6.170  18.357  0.00  0.00    +0.000 C 
ATOM     11  C   UNL     1       4.342   5.603  19.528  0.00  0.00    +0.000 C 
ATOM     12  C   UNL     1       5.175   4.391  19.084  0.00  0.00    +0.000 C 
ATOM     13  C   UNL     1       4.239   3.291  18.568  0.00  0.00    +0.000 C 
ATOM     14  C   UNL     1       3.436   3.811  17.364  0.00  0.00    +0.000 C 
ATOM     15  C   UNL     1       2.596   5.027  17.800  0.00  0.00    +0.000 C 
ATOM     16  C   UNL     1       4.400   4.246  16.248  0.00  0.00    +0.000 C 
ATOM     17  C   UNL     1       5.323   5.362  16.766  0.00  0.00    +0.000 C 
ATOM     18  C   UNL     1       4.475   6.575  17.217  0.00  0.00    +0.000 C 
ATOM     19  C   UNL     1       6.129   4.816  17.956  0.00  0.00    +0.000 C 
ENDBRANCH   8  10
BRANCH   1  21
ATOM     20  O   UNL     1       2.035   9.735  17.451  0.00  0.00    +0.000 OA
ATOM     21  C   UNL     1       1.660  10.249  18.504  0.00  0.00    +0.000 C 
BRANCH  21  22
ATOM     22  O   UNL     1       1.965  11.519  18.883  0.00  0.00    +0.000 OA
BRANCH  22  23
ATOM     23  C   UNL     1       2.633  12.332  17.898  0.00  0.00    +0.000 C 
BRANCH  23  24
ATOM     24  C   UNL     1       2.352  13.790  18.181  0.00  0.00    +0.000 A 
ATOM     25  C   UNL     1       1.140  14.205  18.749  0.00  0.00    +0.000 A 
ATOM     26  C   UNL     1       0.880  15.565  18.950  0.00  0.00    +0.000 A 
ATOM     27  C   UNL     1       1.834  16.516  18.594  0.00  0.00    +0.000 A 
ATOM     28  C   UNL     1       3.052  16.113  18.052  0.00  0.00    +0.000 A 
ATOM     29  C   UNL     1       3.311  14.757  17.847  0.00  0.00    +0.000 A 
ENDBRANCH  23  24
ENDBRANCH  22  23
ENDBRANCH  21  22
ENDBRANCH   1  21
TORSDOF 5
ENDMDL
MODEL 7
REMARK VINA RESULT:      -7.7      2.243      5.128
REMARK  Name = 
REMARK  5 active torsions:
REMARK  status: ('A' for Active; 'I' for Inactive)
REMARK    1  A    between atoms: C_2  and  O_3
REMARK    2  A    between atoms: C_2  and  C_11
REMARK    3  A    between atoms: O_3  and  C_4
REMARK    4  A    between atoms: C_4  and  C_5
REMARK    5  A    between atoms: N_18  and  C_19
REMARK                            x       y       z     vdW  Elec       q    Type
REMARK                         _______ _______ _______ _____ _____    ______ ____
ROOT
ATOM      1  C   UNL     1       6.757   5.585  16.282  0.00  0.00    +0.000 C 
ATOM      2  C   UNL     1       7.168   5.867  14.824  0.00  0.00    +0.000 C 
ATOM      3  C   UNL     1       7.151   4.499  14.159  0.00  0.00    +0.000 C 
ATOM      4  C   UNL     1       6.045   3.754  14.887  0.00  0.00    +0.000 C 
ATOM      5  N   UNL     1       5.715   4.547  16.069  0.00  0.00    +0.000 N 
ATOM      6  C   UNL     1       4.798   3.982  16.935  0.00  0.00    +0.000 C 
ATOM      7  O   UNL     1       4.312   2.877  16.699  0.00  0.00    +0.000 OA
ATOM      8  N   UNL     1       4.423   4.728  18.019  0.00  0.00    +0.000 N 
ATOM      9  H   UNL     1       4.491   5.730  17.870  0.00  0.00    +0.000 HD
ENDROOT
BRANCH   8  10
ATOM     10  C   UNL     1       3.375   4.307  18.984  0.00  0.00    +0.000 C 
ATOM     11  C   UNL     1       2.068   3.928  18.244  0.00  0.00    +0.000 C 
ATOM     12  C   UNL     1       0.997   3.415  19.220  0.00  0.00    +0.000 C 
ATOM     13  C   UNL     1       1.529   2.178  19.954  0.00  0.00    +0.000 C 
ATOM     14  C   UNL     1       2.793   2.546  20.749  0.00  0.00    +0.000 C 
ATOM     15  C   UNL     1       3.872   3.059  19.778  0.00  0.00    +0.000 C 
ATOM     16  C   UNL     1       2.464   3.655  21.762  0.00  0.00    +0.000 C 
ATOM     17  C   UNL     1       1.950   4.899  21.017  0.00  0.00    +0.000 C 
ATOM     18  C   UNL     1       3.030   5.403  20.031  0.00  0.00    +0.000 C 
ATOM     19  C   UNL     1       0.677   4.515  20.245  0.00  0.00    +0.000 C 
ENDBRANCH   8  10
BRANCH   1  21
ATOM     20  O   UNL     1       5.301   7.142  17.480  0.00  0.00    +0.000 OA
ATOM     21  C   UNL     1       6.393   6.918  16.956  0.00  0.00    +0.000 C 
BRANCH  21  22
ATOM     22  O   UNL     1       7.431   7.795  16.956  0.00  0.00    +0.000 OA
BRANCH  22  23
ATOM     23  C   UNL     1       8.136   7.947  18.204  0.00  0.00    +0.000 C 
BRANCH  23  24
ATOM     24  C   UNL     1       8.514   9.398  18.391  0.00  0.00    +0.000 A 
ATOM     25  C   UNL     1       8.063  10.392  17.511  0.00  0.00    +0.000 A 
ATOM     26  C   UNL     1       8.471  11.720  17.672  0.00  0.00    +0.000 A 
ATOM     27  C   UNL     1       9.324  12.064  18.719  0.00  0.00    +0.000 A 
ATOM     28  C   UNL     1       9.758  11.090  19.614  0.00  0.00    +0.000 A 
ATOM     29  C   UNL     1       9.355   9.763  19.452  0.00  0.00    +0.000 A 
ENDBRANCH  23  24
ENDBRANCH  22  23
ENDBRANCH  21  22
ENDBRANCH   1  21
TORSDOF 5
ENDMDL
MODEL 8
REMARK VINA RESULT:      -7.7      5.302      7.944
REMARK  Name = 
REMARK  5 active torsions:
REMARK  status: ('A' for Active; 'I' for Inactive)
REMARK    1  A    between atoms: C_2  and  O_3
REMARK    2  A    between atoms: C_2  and  C_11
REMARK    3  A    between atoms: O_3  and  C_4
REMARK    4  A    between atoms: C_4  and  C_5
REMARK    5  A    between atoms: N_18  and  C_19
REMARK                            x       y       z     vdW  Elec       q    Type
REMARK                         _______ _______ _______ _____ _____    ______ ____
ROOT
ATOM      1  C   UNL     1       0.755   9.618  19.533  0.00  0.00    +0.000 C 
ATOM      2  C   UNL     1       0.420  10.628  20.647  0.00  0.00    +0.000 C 
ATOM      3  C   UNL     1      -0.197   9.779  21.748  0.00  0.00    +0.000 C 
ATOM      4  C   UNL     1       0.519   8.445  21.624  0.00  0.00    +0.000 C 
ATOM      5  N   UNL     1       1.229   8.469  20.347  0.00  0.00    +0.000 N 
ATOM      6  C   UNL     1       1.861   7.294  19.989  0.00  0.00    +0.000 C 
ATOM      7  O   UNL     1       1.806   6.305  20.719  0.00  0.00    +0.000 OA
ATOM      8  N   UNL     1       2.587   7.305  18.829  0.00  0.00    +0.000 N 
ATOM      9  H   UNL     1       2.951   8.220  18.582  0.00  0.00    +0.000 HD
ENDROOT
BRANCH   8  10
ATOM     10  C   UNL     1       3.405   6.157  18.359  0.00  0.00    +0.000 C 
ATOM     11  C   UNL     1       4.381   6.601  17.240  0.00  0.00    +0.000 C 
ATOM     12  C   UNL     1       5.290   5.444  16.797  0.00  0.00    +0.000 C 
ATOM     13  C   UNL     1       6.104   4.947  17.998  0.00  0.00    +0.000 C 
ATOM     14  C   UNL     1       5.155   4.441  19.098  0.00  0.00    +0.000 C 
ATOM     15  C   UNL     1       4.241   5.595  19.550  0.00  0.00    +0.000 C 
ATOM     16  C   UNL     1       4.284   3.300  18.546  0.00  0.00    +0.000 C 
ATOM     17  C   UNL     1       3.456   3.811  17.354  0.00  0.00    +0.000 C 
ATOM     18  C   UNL     1       2.551   4.980  17.809  0.00  0.00    +0.000 C 
ATOM     19  C   UNL     1       4.422   4.294  16.260  0.00  0.00    +0.000 C 
ENDBRANCH   8  10
BRANCH   1  21
ATOM     20  O   UNL     1       2.068   9.766  17.476  0.00  0.00    +0.000 OA
ATOM     21  C   UNL     1       1.701  10.293  18.526  0.00  0.00    +0.000 C 
BRANCH  21  22
ATOM     22  O   UNL     1       2.036  11.556  18.901  0.00  0.00    +0.000 OA
BRANCH  22  23
ATOM     23  C   UNL     1       2.623  12.388  17.881  0.00  0.00    +0.000 C 
BRANCH  23  24
ATOM     24  C   UNL     1       2.327  13.838  18.188  0.00  0.00    +0.000 A 
ATOM     25  C   UNL     1       1.109  14.232  18.760  0.00  0.00    +0.000 A 
ATOM     26  C   UNL     1       0.836  15.586  18.983  0.00  0.00    +0.000 A 
ATOM     27  C   UNL     1       1.781  16.551  18.645  0.00  0.00    +0.000 A 
ATOM     28  C   UNL     1       3.004  16.170  18.099  0.00  0.00    +0.000 A 
ATOM     29  C   UNL     1       3.276  14.820  17.872  0.00  0.00    +0.000 A 
ENDBRANCH  23  24
ENDBRANCH  22  23
ENDBRANCH  21  22
ENDBRANCH   1  21
TORSDOF 5
ENDMDL
MODEL 9
REMARK VINA RESULT:      -7.7      5.281      7.874
REMARK  Name = 
REMARK  5 active torsions:
REMARK  status: ('A' for Active; 'I' for Inactive)
REMARK    1  A    between atoms: C_2  and  O_3
REMARK    2  A    between atoms: C_2  and  C_11
REMARK    3  A    between atoms: O_3  and  C_4
REMARK    4  A    between atoms: C_4  and  C_5
REMARK    5  A    between atoms: N_18  and  C_19
REMARK                            x       y       z     vdW  Elec       q    Type
REMARK                         _______ _______ _______ _____ _____    ______ ____
ROOT
ATOM      1  C   UNL     1       0.730   9.631  19.519  0.00  0.00    +0.000 C 
ATOM      2  C   UNL     1       0.368  10.649  20.618  0.00  0.00    +0.000 C 
ATOM      3  C   UNL     1      -0.243   9.803  21.725  0.00  0.00    +0.000 C 
ATOM      4  C   UNL     1       0.497   8.480  21.623  0.00  0.00    +0.000 C 
ATOM      5  N   UNL     1       1.217   8.501  20.352  0.00  0.00    +0.000 N 
ATOM      6  C   UNL     1       1.872   7.332  20.013  0.00  0.00    +0.000 C 
ATOM      7  O   UNL     1       1.828   6.352  20.755  0.00  0.00    +0.000 OA
ATOM      8  N   UNL     1       2.606   7.341  18.859  0.00  0.00    +0.000 N 
ATOM      9  H   UNL     1       2.957   8.259  18.603  0.00  0.00    +0.000 HD
ENDROOT
BRANCH   8  10
ATOM     10  C   UNL     1       3.447   6.202  18.410  0.00  0.00    +0.000 C 
ATOM     11  C   UNL     1       2.566   5.053  17.858  0.00  0.00    +0.000 C 
ATOM     12  C   UNL     1       3.423   3.898  17.317  0.00  0.00    +0.000 C 
ATOM     13  C   UNL     1       4.324   4.417  16.190  0.00  0.00    +0.000 C 
ATOM     14  C   UNL     1       5.254   5.516  16.730  0.00  0.00    +0.000 C 
ATOM     15  C   UNL     1       4.403   6.679  17.274  0.00  0.00    +0.000 C 
ATOM     16  C   UNL     1       6.115   4.951  17.872  0.00  0.00    +0.000 C 
ATOM     17  C   UNL     1       5.206   4.450  19.006  0.00  0.00    +0.000 C 
ATOM     18  C   UNL     1       4.341   5.617  19.539  0.00  0.00    +0.000 C 
ATOM     19  C   UNL     1       4.298   3.340  18.451  0.00  0.00    +0.000 C 
ENDBRANCH   8  10
BRANCH   1  21
ATOM     20  O   UNL     1       2.100   9.756  17.498  0.00  0.00    +0.000 OA
ATOM     21  C   UNL     1       1.671  10.310  18.511  0.00  0.00    +0.000 C 
BRANCH  21  22
ATOM     22  O   UNL     1       1.927  11.604  18.836  0.00  0.00    +0.000 OA
BRANCH  22  23
ATOM     23  C   UNL     1       2.689  12.363  17.877  0.00  0.00    +0.000 C 
BRANCH  23  24
ATOM     24  C   UNL     1       2.489  13.838  18.134  0.00  0.00    +0.000 A 
ATOM     25  C   UNL     1       1.320  14.325  18.735  0.00  0.00    +0.000 A 
ATOM     26  C   UNL     1       1.134  15.701  18.912  0.00  0.00    +0.000 A 
ATOM     27  C   UNL     1       2.119  16.595  18.499  0.00  0.00    +0.000 A 
ATOM     28  C   UNL     1       3.295  16.121  17.923  0.00  0.00    +0.000 A 
ATOM     29  C   UNL     1       3.480  14.750  17.742  0.00  0.00    +0.000 A 
ENDBRANCH  23  24
ENDBRANCH  22  23
ENDBRANCH  21  22
ENDBRANCH   1  21
TORSDOF 5
ENDMDL
