MODEL 1
REMARK VINA RESULT:      -6.7      0.000      0.000
REMARK  Name = 
REMARK  6 active torsions:
REMARK  status: ('A' for Active; 'I' for Inactive)
REMARK    1  A    between atoms: C_1  and  C_2
REMARK    2  A    between atoms: C_2  and  C_4
REMARK    3  A    between atoms: C_4  and  C_5
REMARK    4  A    between atoms: C_5  and  C_7
REMARK    5  A    between atoms: N_10  and  C_11
REMARK    6  A    between atoms: N_14  and  C_15
REMARK                            x       y       z     vdW  Elec       q    Type
REMARK                         _______ _______ _______ _____ _____    ______ ____
ROOT
ATOM      1  C   UNL     1       4.894   4.745  18.468  0.00  0.00    +0.000 C 
ATOM      2  C   UNL     1       4.202   6.063  18.386  0.00  0.00    +0.000 C 
ATOM      3  O   UNL     1       4.679   6.957  17.682  0.00  0.00    +0.000 OA
ATOM      4  N   UNL     1       3.009   6.197  19.065  0.00  0.00    +0.000 N 
ATOM      5  C   UNL     1       2.268   7.442  18.920  0.00  0.00    +0.000 C 
ATOM      6  C   UNL     1       2.493   5.280  19.968  0.00  0.00    +0.000 C 
ATOM      7  O   UNL     1       1.453   5.510  20.588  0.00  0.00    +0.000 OA
ATOM      8  N   UNL     1       3.205   4.104  20.136  0.00  0.00    +0.000 N 
ATOM      9  C   UNL     1       2.701   3.124  21.087  0.00  0.00    +0.000 C 
ATOM     10  C   UNL     1       4.357   3.767  19.453  0.00  0.00    +0.000 C 
ATOM     11  O   UNL     1       4.920   2.678  19.599  0.00  0.00    +0.000 OA
ENDROOT
BRANCH   1  12
ATOM     12  C   UNL     1       6.383   4.936  18.675  0.00  0.00    +0.000 C 
ATOM     13  O   UNL     1       6.817   5.440  19.716  0.00  0.00    +0.000 OA
BRANCH  12  14
ATOM     14  C   UNL     1       7.320   4.449  17.597  0.00  0.00    +0.000 C 
BRANCH  14  16
ATOM     15  C   UNL     1       6.446   4.327  15.165  0.00  0.00    +0.000 C 
ATOM     16  C   UNL     1       7.135   5.107  16.254  0.00  0.00    +0.000 C 
ATOM     17  O   UNL     1       7.473   6.280  16.082  0.00  0.00    +0.000 OA
ENDBRANCH  14  16
ENDBRANCH  12  14
ENDBRANCH   1  12
TORSDOF 3
ENDMDL
MODEL 2
REMARK VINA RESULT:      -6.5      1.663      2.045
REMARK  Name = 
REMARK  6 active torsions:
REMARK  status: ('A' for Active; 'I' for Inactive)
REMARK    1  A    between atoms: C_1  and  C_2
REMARK    2  A    between atoms: C_2  and  C_4
REMARK    3  A    between atoms: C_4  and  C_5
REMARK    4  A    between atoms: C_5  and  C_7
REMARK    5  A    between atoms: N_10  and  C_11
REMARK    6  A    between atoms: N_14  and  C_15
REMARK                            x       y       z     vdW  Elec       q    Type
REMARK                         _______ _______ _______ _____ _____    ______ ____
ROOT
ATOM      1  C   UNL     1       3.431   4.534  17.353  0.00  0.00    +0.000 C 
ATOM      2  C   UNL     1       3.285   5.877  17.984  0.00  0.00    +0.000 C 
ATOM      3  O   UNL     1       3.823   6.856  17.460  0.00  0.00    +0.000 OA
ATOM      4  N   UNL     1       2.490   5.967  19.107  0.00  0.00    +0.000 N 
ATOM      5  C   UNL     1       2.255   7.283  19.683  0.00  0.00    +0.000 C 
ATOM      6  C   UNL     1       1.970   4.890  19.810  0.00  0.00    +0.000 C 
ATOM      7  O   UNL     1       1.327   5.056  20.849  0.00  0.00    +0.000 OA
ATOM      8  N   UNL     1       2.212   3.631  19.288  0.00  0.00    +0.000 N 
ATOM      9  C   UNL     1       1.693   2.476  20.007  0.00  0.00    +0.000 C 
ATOM     10  C   UNL     1       2.894   3.374  18.116  0.00  0.00    +0.000 C 
ATOM     11  O   UNL     1       3.031   2.232  17.664  0.00  0.00    +0.000 OA
ENDROOT
BRANCH   1  12
ATOM     12  C   UNL     1       4.873   4.283  16.960  0.00  0.00    +0.000 C 
ATOM     13  O   UNL     1       5.185   4.104  15.778  0.00  0.00    +0.000 OA
BRANCH  12  14
ATOM     14  C   UNL     1       5.920   4.307  18.047  0.00  0.00    +0.000 C 
BRANCH  14  16
ATOM     15  C   UNL     1       7.377   6.426  17.777  0.00  0.00    +0.000 C 
ATOM     16  C   UNL     1       7.231   4.933  17.648  0.00  0.00    +0.000 C 
ATOM     17  O   UNL     1       8.180   4.227  17.299  0.00  0.00    +0.000 OA
ENDBRANCH  14  16
ENDBRANCH  12  14
ENDBRANCH   1  12
TORSDOF 3
ENDMDL
MODEL 3
REMARK VINA RESULT:      -6.4      1.558      1.678
REMARK  Name = 
REMARK  6 active torsions:
REMARK  status: ('A' for Active; 'I' for Inactive)
REMARK    1  A    between atoms: C_1  and  C_2
REMARK    2  A    between atoms: C_2  and  C_4
REMARK    3  A    between atoms: C_4  and  C_5
REMARK    4  A    between atoms: C_5  and  C_7
REMARK    5  A    between atoms: N_10  and  C_11
REMARK    6  A    between atoms: N_14  and  C_15
REMARK                            x       y       z     vdW  Elec       q    Type
REMARK                         _______ _______ _______ _____ _____    ______ ____
ROOT
ATOM      1  C   UNL     1       3.814   5.613  17.464  0.00  0.00    +0.000 C 
ATOM      2  C   UNL     1       3.210   6.717  18.264  0.00  0.00    +0.000 C 
ATOM      3  O   UNL     1       3.225   7.869  17.819  0.00  0.00    +0.000 OA
ATOM      4  N   UNL     1       2.598   6.379  19.453  0.00  0.00    +0.000 N 
ATOM      5  C   UNL     1       1.918   7.426  20.201  0.00  0.00    +0.000 C 
ATOM      6  C   UNL     1       2.661   5.135  20.061  0.00  0.00    +0.000 C 
ATOM      7  O   UNL     1       2.145   4.935  21.163  0.00  0.00    +0.000 OA
ATOM      8  N   UNL     1       3.332   4.138  19.372  0.00  0.00    +0.000 N 
ATOM      9  C   UNL     1       3.430   2.822  19.987  0.00  0.00    +0.000 C 
ATOM     10  C   UNL     1       3.904   4.282  18.124  0.00  0.00    +0.000 C 
ATOM     11  O   UNL     1       4.440   3.342  17.527  0.00  0.00    +0.000 OA
ENDROOT
BRANCH   1  12
ATOM     12  C   UNL     1       5.169   6.025  16.924  0.00  0.00    +0.000 C 
ATOM     13  O   UNL     1       6.098   6.301  17.691  0.00  0.00    +0.000 OA
BRANCH  12  14
ATOM     14  C   UNL     1       5.363   6.042  15.428  0.00  0.00    +0.000 C 
BRANCH  14  16
ATOM     15  C   UNL     1       6.025   3.827  14.268  0.00  0.00    +0.000 C 
ATOM     16  C   UNL     1       6.440   5.119  14.919  0.00  0.00    +0.000 C 
ATOM     17  O   UNL     1       7.626   5.455  14.971  0.00  0.00    +0.000 OA
ENDBRANCH  14  16
ENDBRANCH  12  14
ENDBRANCH   1  12
TORSDOF 3
ENDMDL
MODEL 4
REMARK VINA RESULT:      -6.3      1.402      3.062
REMARK  Name = 
REMARK  6 active torsions:
REMARK  status: ('A' for Active; 'I' for Inactive)
REMARK    1  A    between atoms: C_1  and  C_2
REMARK    2  A    between atoms: C_2  and  C_4
REMARK    3  A    between atoms: C_4  and  C_5
REMARK    4  A    between atoms: C_5  and  C_7
REMARK    5  A    between atoms: N_10  and  C_11
REMARK    6  A    between atoms: N_14  and  C_15
REMARK                            x       y       z     vdW  Elec       q    Type
REMARK                         _______ _______ _______ _____ _____    ______ ____
ROOT
ATOM      1  C   UNL     1       5.980   5.238  18.286  0.00  0.00    +0.000 C 
ATOM      2  C   UNL     1       5.074   4.279  18.982  0.00  0.00    +0.000 C 
ATOM      3  O   UNL     1       5.517   3.191  19.360  0.00  0.00    +0.000 OA
ATOM      4  N   UNL     1       3.781   4.691  19.227  0.00  0.00    +0.000 N 
ATOM      5  C   UNL     1       2.909   3.809  19.990  0.00  0.00    +0.000 C 
ATOM      6  C   UNL     1       3.195   5.839  18.717  0.00  0.00    +0.000 C 
ATOM      7  O   UNL     1       2.008   6.098  18.926  0.00  0.00    +0.000 OA
ATOM      8  N   UNL     1       4.007   6.670  17.965  0.00  0.00    +0.000 N 
ATOM      9  C   UNL     1       3.421   7.879  17.401  0.00  0.00    +0.000 C 
ATOM     10  C   UNL     1       5.349   6.461  17.718  0.00  0.00    +0.000 C 
ATOM     11  O   UNL     1       6.042   7.267  17.089  0.00  0.00    +0.000 OA
ENDROOT
BRANCH   1  12
ATOM     12  C   UNL     1       6.798   4.527  17.227  0.00  0.00    +0.000 C 
ATOM     13  O   UNL     1       8.009   4.341  17.383  0.00  0.00    +0.000 OA
BRANCH  12  14
ATOM     14  C   UNL     1       6.082   4.013  16.002  0.00  0.00    +0.000 C 
BRANCH  14  16
ATOM     15  C   UNL     1       6.170   3.824  13.425  0.00  0.00    +0.000 C 
ATOM     16  C   UNL     1       6.661   4.474  14.691  0.00  0.00    +0.000 C 
ATOM     17  O   UNL     1       7.461   5.413  14.657  0.00  0.00    +0.000 OA
ENDBRANCH  14  16
ENDBRANCH  12  14
ENDBRANCH   1  12
TORSDOF 3
ENDMDL
MODEL 5
REMARK VINA RESULT:      -6.2      2.011      2.590
REMARK  Name = 
REMARK  6 active torsions:
REMARK  status: ('A' for Active; 'I' for Inactive)
REMARK    1  A    between atoms: C_1  and  C_2
REMARK    2  A    between atoms: C_2  and  C_4
REMARK    3  A    between atoms: C_4  and  C_5
REMARK    4  A    between atoms: C_5  and  C_7
REMARK    5  A    between atoms: N_10  and  C_11
REMARK    6  A    between atoms: N_14  and  C_15
REMARK                            x       y       z     vdW  Elec       q    Type
REMARK                         _______ _______ _______ _____ _____    ______ ____
ROOT
ATOM      1  C   UNL     1       3.816   5.104  18.019  0.00  0.00    +0.000 C 
ATOM      2  C   UNL     1       2.856   5.398  19.122  0.00  0.00    +0.000 C 
ATOM      3  O   UNL     1       2.704   6.562  19.502  0.00  0.00    +0.000 OA
ATOM      4  N   UNL     1       2.129   4.340  19.628  0.00  0.00    +0.000 N 
ATOM      5  C   UNL     1       1.117   4.619  20.638  0.00  0.00    +0.000 C 
ATOM      6  C   UNL     1       2.347   3.003  19.335  0.00  0.00    +0.000 C 
ATOM      7  O   UNL     1       1.698   2.113  19.887  0.00  0.00    +0.000 OA
ATOM      8  N   UNL     1       3.328   2.724  18.398  0.00  0.00    +0.000 N 
ATOM      9  C   UNL     1       3.595   1.330  18.075  0.00  0.00    +0.000 C 
ATOM     10  C   UNL     1       4.070   3.669  17.717  0.00  0.00    +0.000 C 
ATOM     11  O   UNL     1       4.892   3.366  16.847  0.00  0.00    +0.000 OA
ENDROOT
BRANCH   1  12
ATOM     12  C   UNL     1       5.125   5.835  18.243  0.00  0.00    +0.000 C 
ATOM     13  O   UNL     1       5.852   5.550  19.201  0.00  0.00    +0.000 OA
BRANCH  12  14
ATOM     14  C   UNL     1       5.536   6.881  17.236  0.00  0.00    +0.000 C 
BRANCH  14  16
ATOM     15  C   UNL     1       7.823   8.010  17.665  0.00  0.00    +0.000 C 
ATOM     16  C   UNL     1       7.017   6.950  16.964  0.00  0.00    +0.000 C 
ATOM     17  O   UNL     1       7.559   6.108  16.244  0.00  0.00    +0.000 OA
ENDBRANCH  14  16
ENDBRANCH  12  14
ENDBRANCH   1  12
TORSDOF 3
ENDMDL
MODEL 6
REMARK VINA RESULT:      -6.2      1.674      2.293
REMARK  Name = 
REMARK  6 active torsions:
REMARK  status: ('A' for Active; 'I' for Inactive)
REMARK    1  A    between atoms: C_1  and  C_2
REMARK    2  A    between atoms: C_2  and  C_4
REMARK    3  A    between atoms: C_4  and  C_5
REMARK    4  A    between atoms: C_5  and  C_7
REMARK    5  A    between atoms: N_10  and  C_11
REMARK    6  A    between atoms: N_14  and  C_15
REMARK                            x       y       z     vdW  Elec       q    Type
REMARK                         _______ _______ _______ _____ _____    ______ ____
ROOT
ATOM      1  C   UNL     1       3.955   5.745  17.164  0.00  0.00    +0.000 C 
ATOM      2  C   UNL     1       3.303   6.777  18.020  0.00  0.00    +0.000 C 
ATOM      3  O   UNL     1       3.198   7.934  17.604  0.00  0.00    +0.000 OA
ATOM      4  N   UNL     1       2.786   6.364  19.230  0.00  0.00    +0.000 N 
ATOM      5  C   UNL     1       2.061   7.334  20.038  0.00  0.00    +0.000 C 
ATOM      6  C   UNL     1       2.986   5.118  19.804  0.00  0.00    +0.000 C 
ATOM      7  O   UNL     1       2.548   4.852  20.925  0.00  0.00    +0.000 OA
ATOM      8  N   UNL     1       3.701   4.196  19.057  0.00  0.00    +0.000 N 
ATOM      9  C   UNL     1       3.942   2.881  19.633  0.00  0.00    +0.000 C 
ATOM     10  C   UNL     1       4.192   4.413  17.785  0.00  0.00    +0.000 C 
ATOM     11  O   UNL     1       4.772   3.535  17.139  0.00  0.00    +0.000 OA
ENDROOT
BRANCH   1  12
ATOM     12  C   UNL     1       5.240   6.282  16.565  0.00  0.00    +0.000 C 
ATOM     13  O   UNL     1       5.388   6.348  15.340  0.00  0.00    +0.000 OA
BRANCH  12  14
ATOM     14  C   UNL     1       6.310   6.777  17.507  0.00  0.00    +0.000 C 
BRANCH  14  16
ATOM     15  C   UNL     1       7.910   5.733  19.250  0.00  0.00    +0.000 C 
ATOM     16  C   UNL     1       7.374   5.765  17.843  0.00  0.00    +0.000 C 
ATOM     17  O   UNL     1       7.737   4.937  17.003  0.00  0.00    +0.000 OA
ENDBRANCH  14  16
ENDBRANCH  12  14
ENDBRANCH   1  12
TORSDOF 3
ENDMDL
MODEL 7
REMARK VINA RESULT:      -6.2      1.006      2.895
REMARK  Name = 
REMARK  6 active torsions:
REMARK  status: ('A' for Active; 'I' for Inactive)
REMARK    1  A    between atoms: C_1  and  C_2
REMARK    2  A    between atoms: C_2  and  C_4
REMARK    3  A    between atoms: C_4  and  C_5
REMARK    4  A    between atoms: C_5  and  C_7
REMARK    5  A    between atoms: N_10  and  C_11
REMARK    6  A    between atoms: N_14  and  C_15
REMARK                            x       y       z     vdW  Elec       q    Type
REMARK                         _______ _______ _______ _____ _____    ______ ____
ROOT
ATOM      1  C   UNL     1       4.856   4.919  18.500  0.00  0.00    +0.000 C 
ATOM      2  C   UNL     1       4.245   3.951  19.455  0.00  0.00    +0.000 C 
ATOM      3  O   UNL     1       4.751   2.834  19.595  0.00  0.00    +0.000 OA
ATOM      4  N   UNL     1       3.162   4.383  20.192  0.00  0.00    +0.000 N 
ATOM      5  C   UNL     1       2.611   3.487  21.199  0.00  0.00    +0.000 C 
ATOM      6  C   UNL     1       2.475   5.569  19.987  0.00  0.00    +0.000 C 
ATOM      7  O   UNL     1       1.470   5.848  20.644  0.00  0.00    +0.000 OA
ATOM      8  N   UNL     1       2.973   6.416  19.011  0.00  0.00    +0.000 N 
ATOM      9  C   UNL     1       2.269   7.665  18.759  0.00  0.00    +0.000 C 
ATOM     10  C   UNL     1       4.109   6.185  18.261  0.00  0.00    +0.000 C 
ATOM     11  O   UNL     1       4.543   7.002  17.444  0.00  0.00    +0.000 OA
ENDROOT
BRANCH   1  12
ATOM     12  C   UNL     1       5.177   4.241  17.184  0.00  0.00    +0.000 C 
ATOM     13  O   UNL     1       4.274   3.808  16.459  0.00  0.00    +0.000 OA
BRANCH  12  14
ATOM     14  C   UNL     1       6.624   4.154  16.763  0.00  0.00    +0.000 C 
BRANCH  14  16
ATOM     15  C   UNL     1       6.628   4.547  14.207  0.00  0.00    +0.000 C 
ATOM     16  C   UNL     1       6.994   5.021  15.588  0.00  0.00    +0.000 C 
ATOM     17  O   UNL     1       7.514   6.125  15.766  0.00  0.00    +0.000 OA
ENDBRANCH  14  16
ENDBRANCH  12  14
ENDBRANCH   1  12
TORSDOF 3
ENDMDL
MODEL 8
REMARK VINA RESULT:      -6.2      1.347      1.522
REMARK  Name = 
REMARK  6 active torsions:
REMARK  status: ('A' for Active; 'I' for Inactive)
REMARK    1  A    between atoms: C_1  and  C_2
REMARK    2  A    between atoms: C_2  and  C_4
REMARK    3  A    between atoms: C_4  and  C_5
REMARK    4  A    between atoms: C_5  and  C_7
REMARK    5  A    between atoms: N_10  and  C_11
REMARK    6  A    between atoms: N_14  and  C_15
REMARK                            x       y       z     vdW  Elec       q    Type
REMARK                         _______ _______ _______ _____ _____    ______ ____
ROOT
ATOM      1  C   UNL     1       3.870   4.481  17.660  0.00  0.00    +0.000 C 
ATOM      2  C   UNL     1       3.558   5.801  18.280  0.00  0.00    +0.000 C 
ATOM      3  O   UNL     1       4.164   6.808  17.904  0.00  0.00    +0.000 OA
ATOM      4  N   UNL     1       2.545   5.839  19.216  0.00  0.00    +0.000 N 
ATOM      5  C   UNL     1       2.159   7.131  19.763  0.00  0.00    +0.000 C 
ATOM      6  C   UNL     1       1.923   4.730  19.769  0.00  0.00    +0.000 C 
ATOM      7  O   UNL     1       1.074   4.849  20.655  0.00  0.00    +0.000 OA
ATOM      8  N   UNL     1       2.304   3.493  19.277  0.00  0.00    +0.000 N 
ATOM      9  C   UNL     1       1.680   2.305  19.844  0.00  0.00    +0.000 C 
ATOM     10  C   UNL     1       3.220   3.287  18.266  0.00  0.00    +0.000 C 
ATOM     11  O   UNL     1       3.480   2.163  17.824  0.00  0.00    +0.000 OA
ENDROOT
BRANCH   1  12
ATOM     12  C   UNL     1       5.369   4.275  17.569  0.00  0.00    +0.000 C 
ATOM     13  O   UNL     1       6.047   4.108  18.588  0.00  0.00    +0.000 OA
BRANCH  12  14
ATOM     14  C   UNL     1       5.998   4.232  16.198  0.00  0.00    +0.000 C 
BRANCH  14  16
ATOM     15  C   UNL     1       7.240   6.354  17.000  0.00  0.00    +0.000 C 
ATOM     16  C   UNL     1       6.984   5.338  15.920  0.00  0.00    +0.000 C 
ATOM     17  O   UNL     1       7.616   5.358  14.861  0.00  0.00    +0.000 OA
ENDBRANCH  14  16
ENDBRANCH  12  14
ENDBRANCH   1  12
TORSDOF 3
ENDMDL
MODEL 9
REMARK VINA RESULT:      -6.1      1.962      4.088
REMARK  Name = 
REMARK  6 active torsions:
REMARK  status: ('A' for Active; 'I' for Inactive)
REMARK    1  A    between atoms: C_1  and  C_2
REMARK    2  A    between atoms: C_2  and  C_4
REMARK    3  A    between atoms: C_4  and  C_5
REMARK    4  A    between atoms: C_5  and  C_7
REMARK    5  A    between atoms: N_10  and  C_11
REMARK    6  A    between atoms: N_14  and  C_15
REMARK                            x       y       z     vdW  Elec       q    Type
REMARK                         _______ _______ _______ _____ _____    ______ ____
ROOT
ATOM      1  C   UNL     1       4.614   4.433  19.196  0.00  0.00    +0.000 C 
ATOM      2  C   UNL     1       3.464   5.179  19.784  0.00  0.00    +0.000 C 
ATOM      3  O   UNL     1       2.913   4.745  20.799  0.00  0.00    +0.000 OA
ATOM      4  N   UNL     1       3.109   6.370  19.187  0.00  0.00    +0.000 N 
ATOM      5  C   UNL     1       2.053   7.162  19.801  0.00  0.00    +0.000 C 
ATOM      6  C   UNL     1       3.601   6.840  17.979  0.00  0.00    +0.000 C 
ATOM      7  O   UNL     1       3.177   7.883  17.478  0.00  0.00    +0.000 OA
ATOM      8  N   UNL     1       4.585   6.079  17.370  0.00  0.00    +0.000 N 
ATOM      9  C   UNL     1       5.117   6.535  16.094  0.00  0.00    +0.000 C 
ATOM     10  C   UNL     1       5.130   4.921  17.888  0.00  0.00    +0.000 C 
ATOM     11  O   UNL     1       6.049   4.313  17.331  0.00  0.00    +0.000 OA
ENDROOT
BRANCH   1  12
ATOM     12  C   UNL     1       4.306   2.951  19.120  0.00  0.00    +0.000 C 
ATOM     13  O   UNL     1       4.677   2.181  20.012  0.00  0.00    +0.000 OA
BRANCH  12  14
ATOM     14  C   UNL     1       3.491   2.454  17.950  0.00  0.00    +0.000 C 
BRANCH  14  16
ATOM     15  C   UNL     1       1.146   2.213  19.014  0.00  0.00    +0.000 C 
ATOM     16  C   UNL     1       2.037   2.847  17.979  0.00  0.00    +0.000 C 
ATOM     17  O   UNL     1       1.612   3.723  17.222  0.00  0.00    +0.000 OA
ENDBRANCH  14  16
ENDBRANCH  12  14
ENDBRANCH   1  12
TORSDOF 3
ENDMDL
