MODEL 1
REMARK VINA RESULT:      -6.8      0.000      0.000
REMARK  Name = 
REMARK  4 active torsions:
REMARK  status: ('A' for Active; 'I' for Inactive)
REMARK    1  A    between atoms: C_2  and  C_3
REMARK    2  A    between atoms: C_7  and  C_8
REMARK    3  A    between atoms: N_10  and  C_11
REMARK    4  A    between atoms: C_17  and  C_19
REMARK                            x       y       z     vdW  Elec       q    Type
REMARK                         _______ _______ _______ _____ _____    ______ ____
ROOT
ATOM      1  C   UNL     1      -0.339  10.704  20.131  0.00  0.00    +0.000 C 
ATOM      2  O   UNL     1      -1.168  10.111  19.450  0.00  0.00    +0.000 OA
ATOM      3  N   UNL     1       0.999  10.332  20.243  0.00  0.00    +0.000 N 
ATOM      4  H   UNL     1       1.604  10.874  20.848  0.00  0.00    +0.000 HD
ENDROOT
BRANCH   3   5
ATOM      5  C   UNL     1       1.585   9.215  19.581  0.00  0.00    +0.000 A 
ATOM      6  C   UNL     1       2.048   9.286  18.269  0.00  0.00    +0.000 A 
ATOM      7  C   UNL     1       2.577   8.161  17.683  0.00  0.00    +0.000 A 
ATOM      8  N   UNL     1       2.675   6.981  18.313  0.00  0.00    +0.000 NA
ATOM      9  C   UNL     1       2.243   6.893  19.577  0.00  0.00    +0.000 A 
ATOM     10  N   UNL     1       2.325   5.659  20.236  0.00  0.00    +0.000 N 
ATOM     11  C   UNL     1       2.839   4.507  19.669  0.00  0.00    +0.000 C 
ATOM     12  O   UNL     1       3.299   4.357  18.550  0.00  0.00    +0.000 OA
ATOM     13  C   UNL     1       1.700   7.993  20.254  0.00  0.00    +0.000 A 
ATOM     14  H   UNL     1       1.967   5.611  21.176  0.00  0.00    +0.000 HD
BRANCH  11  15
ATOM     15  C   UNL     1       2.817   3.292  20.550  0.00  0.00    +0.000 C 
ATOM     16  C   UNL     1       2.093   3.219  21.872  0.00  0.00    +0.000 C 
ATOM     17  C   UNL     1       1.576   2.444  20.690  0.00  0.00    +0.000 C 
ENDBRANCH  11  15
ENDBRANCH   3   5
BRANCH   1  22
ATOM     18  C   UNL     1      -1.598  14.204  22.336  0.00  0.00    +0.000 A 
ATOM     19  C   UNL     1      -1.292  14.287  20.981  0.00  0.00    +0.000 A 
ATOM     20  C   UNL     1      -0.912  13.142  20.271  0.00  0.00    +0.000 A 
ATOM     21 CL   UNL     1      -0.615  13.410  18.582  0.00  0.00    +0.000 Cl
ATOM     22  C   UNL     1      -0.829  11.879  20.908  0.00  0.00    +0.000 A 
ATOM     23  C   UNL     1      -1.127  11.818  22.281  0.00  0.00    +0.000 A 
ATOM     24 CL   UNL     1      -1.014  10.371  23.220  0.00  0.00    +0.000 Cl
ATOM     25  C   UNL     1      -1.514  12.969  22.979  0.00  0.00    +0.000 A 
BRANCH  18  27
ATOM     26  N   UNL     1      -2.344  16.330  23.623  0.00  0.00    +0.000 NA
ATOM     27  C   UNL     1      -2.006  15.376  23.047  0.00  0.00    +0.000 C 
ENDBRANCH  18  27
ENDBRANCH   1  22
TORSDOF 4
ENDMDL
MODEL 2
REMARK VINA RESULT:      -6.8      0.228      1.856
REMARK  Name = 
REMARK  4 active torsions:
REMARK  status: ('A' for Active; 'I' for Inactive)
REMARK    1  A    between atoms: C_2  and  C_3
REMARK    2  A    between atoms: C_7  and  C_8
REMARK    3  A    between atoms: N_10  and  C_11
REMARK    4  A    between atoms: C_17  and  C_19
REMARK                            x       y       z     vdW  Elec       q    Type
REMARK                         _______ _______ _______ _____ _____    ______ ____
ROOT
ATOM      1  C   UNL     1      -0.377  10.768  20.141  0.00  0.00    +0.000 C 
ATOM      2  O   UNL     1      -1.213  10.195  19.452  0.00  0.00    +0.000 OA
ATOM      3  N   UNL     1       0.958  10.380  20.247  0.00  0.00    +0.000 N 
ATOM      4  H   UNL     1       1.569  10.906  20.860  0.00  0.00    +0.000 HD
ENDROOT
BRANCH   3   5
ATOM      5  C   UNL     1       1.530   9.266  19.570  0.00  0.00    +0.000 A 
ATOM      6  C   UNL     1       1.949   9.336  18.242  0.00  0.00    +0.000 A 
ATOM      7  C   UNL     1       2.468   8.214  17.643  0.00  0.00    +0.000 A 
ATOM      8  N   UNL     1       2.596   7.036  18.273  0.00  0.00    +0.000 NA
ATOM      9  C   UNL     1       2.205   6.948  19.551  0.00  0.00    +0.000 A 
ATOM     10  N   UNL     1       2.319   5.717  20.210  0.00  0.00    +0.000 N 
ATOM     11  C   UNL     1       2.823   4.568  19.630  0.00  0.00    +0.000 C 
ATOM     12  O   UNL     1       3.248   4.418  18.496  0.00  0.00    +0.000 OA
ATOM     13  C   UNL     1       1.677   8.046  20.242  0.00  0.00    +0.000 A 
ATOM     14  H   UNL     1       1.993   5.669  21.161  0.00  0.00    +0.000 HD
BRANCH  11  15
ATOM     15  C   UNL     1       2.840   3.356  20.515  0.00  0.00    +0.000 C 
ATOM     16  C   UNL     1       2.134   3.270  21.846  0.00  0.00    +0.000 C 
ATOM     17  C   UNL     1       1.620   2.480  20.673  0.00  0.00    +0.000 C 
ENDBRANCH  11  15
ENDBRANCH   3   5
BRANCH   1  22
ATOM     18  C   UNL     1      -1.912  14.062  22.486  0.00  0.00    +0.000 A 
ATOM     19  C   UNL     1      -1.727  12.805  23.055  0.00  0.00    +0.000 A 
ATOM     20  C   UNL     1      -1.204  11.754  22.294  0.00  0.00    +0.000 A 
ATOM     21 CL   UNL     1      -0.991  10.270  23.170  0.00  0.00    +0.000 Cl
ATOM     22  C   UNL     1      -0.852  11.939  20.934  0.00  0.00    +0.000 A 
ATOM     23  C   UNL     1      -1.060  13.210  20.372  0.00  0.00    +0.000 A 
ATOM     24 CL   UNL     1      -0.742  13.586  18.714  0.00  0.00    +0.000 Cl
ATOM     25  C   UNL     1      -1.577  14.258  21.145  0.00  0.00    +0.000 A 
BRANCH  18  27
ATOM     26  N   UNL     1      -2.847  16.005  23.928  0.00  0.00    +0.000 NA
ATOM     27  C   UNL     1      -2.427  15.135  23.278  0.00  0.00    +0.000 C 
ENDBRANCH  18  27
ENDBRANCH   1  22
TORSDOF 4
ENDMDL
MODEL 3
REMARK VINA RESULT:      -6.7      2.586      3.924
REMARK  Name = 
REMARK  4 active torsions:
REMARK  status: ('A' for Active; 'I' for Inactive)
REMARK    1  A    between atoms: C_2  and  C_3
REMARK    2  A    between atoms: C_7  and  C_8
REMARK    3  A    between atoms: N_10  and  C_11
REMARK    4  A    between atoms: C_17  and  C_19
REMARK                            x       y       z     vdW  Elec       q    Type
REMARK                         _______ _______ _______ _____ _____    ______ ____
ROOT
ATOM      1  C   UNL     1       0.976   9.293  19.994  0.00  0.00    +0.000 C 
ATOM      2  O   UNL     1       0.596   9.223  18.831  0.00  0.00    +0.000 OA
ATOM      3  N   UNL     1       1.723   8.310  20.639  0.00  0.00    +0.000 N 
ATOM      4  H   UNL     1       1.973   8.450  21.611  0.00  0.00    +0.000 HD
ENDROOT
BRANCH   3   5
ATOM      5  C   UNL     1       2.148   7.092  20.035  0.00  0.00    +0.000 A 
ATOM      6  C   UNL     1       1.790   5.844  20.540  0.00  0.00    +0.000 A 
ATOM      7  C   UNL     1       2.259   4.711  19.921  0.00  0.00    +0.000 A 
ATOM      8  N   UNL     1       3.054   4.738  18.841  0.00  0.00    +0.000 NA
ATOM      9  C   UNL     1       3.405   5.927  18.335  0.00  0.00    +0.000 A 
ATOM     10  N   UNL     1       4.250   5.964  17.218  0.00  0.00    +0.000 N 
ATOM     11  C   UNL     1       4.749   4.842  16.583  0.00  0.00    +0.000 C 
ATOM     12  O   UNL     1       4.553   3.669  16.856  0.00  0.00    +0.000 OA
ATOM     13  C   UNL     1       2.962   7.132  18.896  0.00  0.00    +0.000 A 
ATOM     14  H   UNL     1       4.522   6.869  16.873  0.00  0.00    +0.000 HD
BRANCH  11  15
ATOM     15  C   UNL     1       5.649   5.113  15.412  0.00  0.00    +0.000 C 
ATOM     16  C   UNL     1       6.710   4.158  14.921  0.00  0.00    +0.000 C 
ATOM     17  C   UNL     1       5.471   4.389  14.098  0.00  0.00    +0.000 C 
ENDBRANCH  11  15
ENDBRANCH   3   5
BRANCH   1  22
ATOM     18  C   UNL     1      -0.383  12.763  22.188  0.00  0.00    +0.000 A 
ATOM     19  C   UNL     1      -0.731  11.479  22.597  0.00  0.00    +0.000 A 
ATOM     20  C   UNL     1      -0.263  10.362  21.895  0.00  0.00    +0.000 A 
ATOM     21 CL   UNL     1      -0.748   8.837  22.567  0.00  0.00    +0.000 Cl
ATOM     22  C   UNL     1       0.570  10.508  20.758  0.00  0.00    +0.000 A 
ATOM     23  C   UNL     1       0.898  11.813  20.351  0.00  0.00    +0.000 A 
ATOM     24 CL   UNL     1       1.851  12.167  18.953  0.00  0.00    +0.000 Cl
ATOM     25  C   UNL     1       0.431  12.923  21.066  0.00  0.00    +0.000 A 
BRANCH  18  27
ATOM     26  N   UNL     1      -1.230  14.816  23.530  0.00  0.00    +0.000 NA
ATOM     27  C   UNL     1      -0.849  13.896  22.925  0.00  0.00    +0.000 C 
ENDBRANCH  18  27
ENDBRANCH   1  22
TORSDOF 4
ENDMDL
MODEL 4
REMARK VINA RESULT:      -6.6      2.363      3.799
REMARK  Name = 
REMARK  4 active torsions:
REMARK  status: ('A' for Active; 'I' for Inactive)
REMARK    1  A    between atoms: C_2  and  C_3
REMARK    2  A    between atoms: C_7  and  C_8
REMARK    3  A    between atoms: N_10  and  C_11
REMARK    4  A    between atoms: C_17  and  C_19
REMARK                            x       y       z     vdW  Elec       q    Type
REMARK                         _______ _______ _______ _____ _____    ______ ____
ROOT
ATOM      1  C   UNL     1       0.121   8.644  20.879  0.00  0.00    +0.000 C 
ATOM      2  O   UNL     1      -0.647   7.758  21.235  0.00  0.00    +0.000 OA
ATOM      3  N   UNL     1       1.362   8.419  20.286  0.00  0.00    +0.000 N 
ATOM      4  H   UNL     1       1.936   9.218  20.045  0.00  0.00    +0.000 HD
ENDROOT
BRANCH   3   5
ATOM      5  C   UNL     1       1.905   7.131  20.012  0.00  0.00    +0.000 A 
ATOM      6  C   UNL     1       1.791   6.069  20.907  0.00  0.00    +0.000 A 
ATOM      7  C   UNL     1       2.363   4.861  20.589  0.00  0.00    +0.000 A 
ATOM      8  N   UNL     1       3.034   4.643  19.448  0.00  0.00    +0.000 NA
ATOM      9  C   UNL     1       3.150   5.648  18.571  0.00  0.00    +0.000 A 
ATOM     10  N   UNL     1       3.865   5.433  17.386  0.00  0.00    +0.000 N 
ATOM     11  C   UNL     1       4.462   4.234  17.045  0.00  0.00    +0.000 C 
ATOM     12  O   UNL     1       4.474   3.189  17.675  0.00  0.00    +0.000 OA
ATOM     13  C   UNL     1       2.587   6.908  18.810  0.00  0.00    +0.000 A 
ATOM     14  H   UNL     1       3.962   6.212  16.756  0.00  0.00    +0.000 HD
BRANCH  11  15
ATOM     15  C   UNL     1       5.192   4.229  15.732  0.00  0.00    +0.000 C 
ATOM     16  C   UNL     1       5.764   5.463  15.078  0.00  0.00    +0.000 C 
ATOM     17  C   UNL     1       6.687   4.429  15.663  0.00  0.00    +0.000 C 
ENDBRANCH  11  15
ENDBRANCH   3   5
BRANCH   1  22
ATOM     18  C   UNL     1      -1.270  12.646  21.742  0.00  0.00    +0.000 A 
ATOM     19  C   UNL     1      -0.904  11.781  22.769  0.00  0.00    +0.000 A 
ATOM     20  C   UNL     1      -0.429  10.498  22.476  0.00  0.00    +0.000 A 
ATOM     21 CL   UNL     1       0.030   9.568  23.868  0.00  0.00    +0.000 Cl
ATOM     22  C   UNL     1      -0.311  10.048  21.138  0.00  0.00    +0.000 A 
ATOM     23  C   UNL     1      -0.700  10.930  20.115  0.00  0.00    +0.000 A 
ATOM     24 CL   UNL     1      -0.676  10.516  18.436  0.00  0.00    +0.000 Cl
ATOM     25  C   UNL     1      -1.166  12.215  20.419  0.00  0.00    +0.000 A 
BRANCH  18  27
ATOM     26  N   UNL     1      -2.108  15.036  22.307  0.00  0.00    +0.000 NA
ATOM     27  C   UNL     1      -1.733  13.963  22.050  0.00  0.00    +0.000 C 
ENDBRANCH  18  27
ENDBRANCH   1  22
TORSDOF 4
ENDMDL
MODEL 5
REMARK VINA RESULT:      -6.6      2.628      3.547
REMARK  Name = 
REMARK  4 active torsions:
REMARK  status: ('A' for Active; 'I' for Inactive)
REMARK    1  A    between atoms: C_2  and  C_3
REMARK    2  A    between atoms: C_7  and  C_8
REMARK    3  A    between atoms: N_10  and  C_11
REMARK    4  A    between atoms: C_17  and  C_19
REMARK                            x       y       z     vdW  Elec       q    Type
REMARK                         _______ _______ _______ _____ _____    ______ ____
ROOT
ATOM      1  C   UNL     1       0.921   9.313  19.828  0.00  0.00    +0.000 C 
ATOM      2  O   UNL     1       0.564   9.217  18.659  0.00  0.00    +0.000 OA
ATOM      3  N   UNL     1       1.690   8.362  20.498  0.00  0.00    +0.000 N 
ATOM      4  H   UNL     1       1.918   8.521  21.472  0.00  0.00    +0.000 HD
ENDROOT
BRANCH   3   5
ATOM      5  C   UNL     1       2.166   7.153  19.914  0.00  0.00    +0.000 A 
ATOM      6  C   UNL     1       1.889   5.902  20.461  0.00  0.00    +0.000 A 
ATOM      7  C   UNL     1       2.405   4.779  19.860  0.00  0.00    +0.000 A 
ATOM      8  N   UNL     1       3.171   4.820  18.760  0.00  0.00    +0.000 NA
ATOM      9  C   UNL     1       3.444   6.012  18.214  0.00  0.00    +0.000 A 
ATOM     10  N   UNL     1       4.258   6.064  17.075  0.00  0.00    +0.000 N 
ATOM     11  C   UNL     1       4.803   4.953  16.457  0.00  0.00    +0.000 C 
ATOM     12  O   UNL     1       4.679   3.780  16.766  0.00  0.00    +0.000 OA
ATOM     13  C   UNL     1       2.949   7.206  18.755  0.00  0.00    +0.000 A 
ATOM     14  H   UNL     1       4.472   6.973  16.700  0.00  0.00    +0.000 HD
BRANCH  11  15
ATOM     15  C   UNL     1       5.658   5.241  15.257  0.00  0.00    +0.000 C 
ATOM     16  C   UNL     1       7.010   4.616  15.013  0.00  0.00    +0.000 C 
ATOM     17  C   UNL     1       5.837   4.222  14.156  0.00  0.00    +0.000 C 
ENDBRANCH  11  15
ENDBRANCH   3   5
BRANCH   1  22
ATOM     18  C   UNL     1      -0.232  12.871  21.998  0.00  0.00    +0.000 A 
ATOM     19  C   UNL     1       0.500  12.961  20.817  0.00  0.00    +0.000 A 
ATOM     20  C   UNL     1       0.843  11.804  20.109  0.00  0.00    +0.000 A 
ATOM     21 CL   UNL     1       1.710  12.097  18.633  0.00  0.00    +0.000 Cl
ATOM     22  C   UNL     1       0.461  10.521  20.572  0.00  0.00    +0.000 A 
ATOM     23  C   UNL     1      -0.264  10.449  21.775  0.00  0.00    +0.000 A 
ATOM     24 CL   UNL     1      -0.753   8.962  22.508  0.00  0.00    +0.000 Cl
ATOM     25  C   UNL     1      -0.610  11.614  22.471  0.00  0.00    +0.000 A 
BRANCH  18  27
ATOM     26  N   UNL     1      -0.889  15.032  23.275  0.00  0.00    +0.000 NA
ATOM     27  C   UNL     1      -0.597  14.060  22.703  0.00  0.00    +0.000 C 
ENDBRANCH  18  27
ENDBRANCH   1  22
TORSDOF 4
ENDMDL
MODEL 6
REMARK VINA RESULT:      -6.5      1.591      2.488
REMARK  Name = 
REMARK  4 active torsions:
REMARK  status: ('A' for Active; 'I' for Inactive)
REMARK    1  A    between atoms: C_2  and  C_3
REMARK    2  A    between atoms: C_7  and  C_8
REMARK    3  A    between atoms: N_10  and  C_11
REMARK    4  A    between atoms: C_17  and  C_19
REMARK                            x       y       z     vdW  Elec       q    Type
REMARK                         _______ _______ _______ _____ _____    ______ ____
ROOT
ATOM      1  C   UNL     1       0.539  10.768  20.606  0.00  0.00    +0.000 C 
ATOM      2  O   UNL     1       1.551  11.438  20.436  0.00  0.00    +0.000 OA
ATOM      3  N   UNL     1       0.369   9.465  20.138  0.00  0.00    +0.000 N 
ATOM      4  H   UNL     1      -0.514   8.999  20.311  0.00  0.00    +0.000 HD
ENDROOT
BRANCH   3   5
ATOM      5  C   UNL     1       1.347   8.738  19.403  0.00  0.00    +0.000 A 
ATOM      6  C   UNL     1       1.877   9.205  18.202  0.00  0.00    +0.000 A 
ATOM      7  C   UNL     1       2.798   8.437  17.531  0.00  0.00    +0.000 A 
ATOM      8  N   UNL     1       3.224   7.245  17.975  0.00  0.00    +0.000 NA
ATOM      9  C   UNL     1       2.733   6.780  19.131  0.00  0.00    +0.000 A 
ATOM     10  N   UNL     1       3.159   5.527  19.592  0.00  0.00    +0.000 N 
ATOM     11  C   UNL     1       4.074   4.726  18.933  0.00  0.00    +0.000 C 
ATOM     12  O   UNL     1       4.656   4.949  17.885  0.00  0.00    +0.000 OA
ATOM     13  C   UNL     1       1.799   7.503  19.885  0.00  0.00    +0.000 A 
ATOM     14  H   UNL     1       2.755   5.187  20.449  0.00  0.00    +0.000 HD
BRANCH  11  15
ATOM     15  C   UNL     1       4.376   3.415  19.599  0.00  0.00    +0.000 C 
ATOM     16  C   UNL     1       3.397   2.661  20.465  0.00  0.00    +0.000 C 
ATOM     17  C   UNL     1       3.765   2.124  19.108  0.00  0.00    +0.000 C 
ENDBRANCH  11  15
ENDBRANCH   3   5
BRANCH   1  22
ATOM     18  C   UNL     1      -2.800  12.499  22.740  0.00  0.00    +0.000 A 
ATOM     19  C   UNL     1      -2.048  11.473  23.304  0.00  0.00    +0.000 A 
ATOM     20  C   UNL     1      -0.952  10.939  22.616  0.00  0.00    +0.000 A 
ATOM     21 CL   UNL     1      -0.094   9.703  23.481  0.00  0.00    +0.000 Cl
ATOM     22  C   UNL     1      -0.584  11.424  21.336  0.00  0.00    +0.000 A 
ATOM     23  C   UNL     1      -1.365  12.450  20.776  0.00  0.00    +0.000 A 
ATOM     24 CL   UNL     1      -1.089  13.110  19.202  0.00  0.00    +0.000 Cl
ATOM     25  C   UNL     1      -2.454  12.982  21.477  0.00  0.00    +0.000 A 
BRANCH  18  27
ATOM     26  N   UNL     1      -4.804  13.509  24.043  0.00  0.00    +0.000 NA
ATOM     27  C   UNL     1      -3.904  13.053  23.460  0.00  0.00    +0.000 C 
ENDBRANCH  18  27
ENDBRANCH   1  22
TORSDOF 4
ENDMDL
MODEL 7
REMARK VINA RESULT:      -6.5      4.743      6.860
REMARK  Name = 
REMARK  4 active torsions:
REMARK  status: ('A' for Active; 'I' for Inactive)
REMARK    1  A    between atoms: C_2  and  C_3
REMARK    2  A    between atoms: C_7  and  C_8
REMARK    3  A    between atoms: N_10  and  C_11
REMARK    4  A    between atoms: C_17  and  C_19
REMARK                            x       y       z     vdW  Elec       q    Type
REMARK                         _______ _______ _______ _____ _____    ______ ____
ROOT
ATOM      1  C   UNL     1       2.991   6.363  18.471  0.00  0.00    +0.000 C 
ATOM      2  O   UNL     1       2.360   5.524  17.837  0.00  0.00    +0.000 OA
ATOM      3  N   UNL     1       4.369   6.549  18.377  0.00  0.00    +0.000 N 
ATOM      4  H   UNL     1       4.804   7.256  18.958  0.00  0.00    +0.000 HD
ENDROOT
BRANCH   3   5
ATOM      5  C   UNL     1       5.230   5.792  17.532  0.00  0.00    +0.000 A 
ATOM      6  C   UNL     1       6.480   5.342  17.953  0.00  0.00    +0.000 A 
ATOM      7  C   UNL     1       7.270   4.640  17.075  0.00  0.00    +0.000 A 
ATOM      8  N   UNL     1       6.900   4.358  15.816  0.00  0.00    +0.000 NA
ATOM      9  C   UNL     1       5.699   4.776  15.394  0.00  0.00    +0.000 A 
ATOM     10  N   UNL     1       5.313   4.501  14.075  0.00  0.00    +0.000 N 
ATOM     11  C   UNL     1       6.091   3.810  13.165  0.00  0.00    +0.000 C 
ATOM     12  O   UNL     1       7.199   3.328  13.331  0.00  0.00    +0.000 OA
ATOM     13  C   UNL     1       4.826   5.487  16.227  0.00  0.00    +0.000 A 
ATOM     14  H   UNL     1       4.419   4.850  13.773  0.00  0.00    +0.000 HD
BRANCH  11  15
ATOM     15  C   UNL     1       5.488   3.642  11.801  0.00  0.00    +0.000 C 
ATOM     16  C   UNL     1       5.150   2.307  11.183  0.00  0.00    +0.000 C 
ATOM     17  C   UNL     1       4.045   3.229  11.624  0.00  0.00    +0.000 C 
ENDBRANCH  11  15
ENDBRANCH   3   5
BRANCH   1  22
ATOM     18  C   UNL     1       0.596   8.678  21.229  0.00  0.00    +0.000 A 
ATOM     19  C   UNL     1       0.955   7.365  21.523  0.00  0.00    +0.000 A 
ATOM     20  C   UNL     1       1.753   6.635  20.635  0.00  0.00    +0.000 A 
ATOM     21 CL   UNL     1       2.149   5.034  21.177  0.00  0.00    +0.000 Cl
ATOM     22  C   UNL     1       2.212   7.207  19.423  0.00  0.00    +0.000 A 
ATOM     23  C   UNL     1       1.827   8.528  19.136  0.00  0.00    +0.000 A 
ATOM     24 CL   UNL     1       2.250   9.351  17.675  0.00  0.00    +0.000 Cl
ATOM     25  C   UNL     1       1.035   9.253  20.036  0.00  0.00    +0.000 A 
BRANCH  18  27
ATOM     26  N   UNL     1      -0.856  10.026  22.903  0.00  0.00    +0.000 NA
ATOM     27  C   UNL     1      -0.202   9.423  22.152  0.00  0.00    +0.000 C 
ENDBRANCH  18  27
ENDBRANCH   1  22
TORSDOF 4
ENDMDL
MODEL 8
REMARK VINA RESULT:      -6.5      4.744      6.604
REMARK  Name = 
REMARK  4 active torsions:
REMARK  status: ('A' for Active; 'I' for Inactive)
REMARK    1  A    between atoms: C_2  and  C_3
REMARK    2  A    between atoms: C_7  and  C_8
REMARK    3  A    between atoms: N_10  and  C_11
REMARK    4  A    between atoms: C_17  and  C_19
REMARK                            x       y       z     vdW  Elec       q    Type
REMARK                         _______ _______ _______ _____ _____    ______ ____
ROOT
ATOM      1  C   UNL     1       2.974   6.343  18.432  0.00  0.00    +0.000 C 
ATOM      2  O   UNL     1       2.407   5.501  17.745  0.00  0.00    +0.000 OA
ATOM      3  N   UNL     1       4.344   6.598  18.395  0.00  0.00    +0.000 N 
ATOM      4  H   UNL     1       4.723   7.302  19.017  0.00  0.00    +0.000 HD
ENDROOT
BRANCH   3   5
ATOM      5  C   UNL     1       5.269   5.918  17.553  0.00  0.00    +0.000 A 
ATOM      6  C   UNL     1       6.569   5.623  17.959  0.00  0.00    +0.000 A 
ATOM      7  C   UNL     1       7.417   4.988  17.084  0.00  0.00    +0.000 A 
ATOM      8  N   UNL     1       7.058   4.629  15.842  0.00  0.00    +0.000 NA
ATOM      9  C   UNL     1       5.811   4.897  15.433  0.00  0.00    +0.000 A 
ATOM     10  N   UNL     1       5.435   4.543  14.131  0.00  0.00    +0.000 N 
ATOM     11  C   UNL     1       6.269   3.916  13.224  0.00  0.00    +0.000 C 
ATOM     12  O   UNL     1       7.427   3.566  13.379  0.00  0.00    +0.000 OA
ATOM     13  C   UNL     1       4.879   5.531  16.265  0.00  0.00    +0.000 A 
ATOM     14  H   UNL     1       4.502   4.780  13.838  0.00  0.00    +0.000 HD
BRANCH  11  15
ATOM     15  C   UNL     1       5.664   3.641  11.878  0.00  0.00    +0.000 C 
ATOM     16  C   UNL     1       5.321   2.262  11.370  0.00  0.00    +0.000 C 
ATOM     17  C   UNL     1       4.220   3.220  11.736  0.00  0.00    +0.000 C 
ENDBRANCH  11  15
ENDBRANCH   3   5
BRANCH   1  22
ATOM     18  C   UNL     1       0.644   8.700  21.209  0.00  0.00    +0.000 A 
ATOM     19  C   UNL     1       1.067   9.238  19.997  0.00  0.00    +0.000 A 
ATOM     20  C   UNL     1       1.797   8.457  19.094  0.00  0.00    +0.000 A 
ATOM     21 CL   UNL     1       2.202   9.264  17.612  0.00  0.00    +0.000 Cl
ATOM     22  C   UNL     1       2.123   7.110  19.387  0.00  0.00    +0.000 A 
ATOM     23  C   UNL     1       1.701   6.589  20.623  0.00  0.00    +0.000 A 
ATOM     24 CL   UNL     1       2.067   4.987  21.161  0.00  0.00    +0.000 Cl
ATOM     25  C   UNL     1       0.963   7.377  21.516  0.00  0.00    +0.000 A 
BRANCH  18  27
ATOM     26  N   UNL     1      -0.748  10.150  22.850  0.00  0.00    +0.000 NA
ATOM     27  C   UNL     1      -0.121   9.499  22.115  0.00  0.00    +0.000 C 
ENDBRANCH  18  27
ENDBRANCH   1  22
TORSDOF 4
ENDMDL
MODEL 9
REMARK VINA RESULT:      -6.5      1.199      2.188
REMARK  Name = 
REMARK  4 active torsions:
REMARK  status: ('A' for Active; 'I' for Inactive)
REMARK    1  A    between atoms: C_2  and  C_3
REMARK    2  A    between atoms: C_7  and  C_8
REMARK    3  A    between atoms: N_10  and  C_11
REMARK    4  A    between atoms: C_17  and  C_19
REMARK                            x       y       z     vdW  Elec       q    Type
REMARK                         _______ _______ _______ _____ _____    ______ ____
ROOT
ATOM      1  C   UNL     1       0.381  11.348  20.759  0.00  0.00    +0.000 C 
ATOM      2  O   UNL     1       1.507  11.566  21.193  0.00  0.00    +0.000 OA
ATOM      3  N   UNL     1       0.060  10.308  19.888  0.00  0.00    +0.000 N 
ATOM      4  H   UNL     1      -0.897  10.221  19.568  0.00  0.00    +0.000 HD
ENDROOT
BRANCH   3   5
ATOM      5  C   UNL     1       0.995   9.358  19.387  0.00  0.00    +0.000 A 
ATOM      6  C   UNL     1       1.705   9.563  18.205  0.00  0.00    +0.000 A 
ATOM      7  C   UNL     1       2.571   8.589  17.767  0.00  0.00    +0.000 A 
ATOM      8  N   UNL     1       2.775   7.437  18.422  0.00  0.00    +0.000 NA
ATOM      9  C   UNL     1       2.108   7.223  19.563  0.00  0.00    +0.000 A 
ATOM     10  N   UNL     1       2.302   6.014  20.244  0.00  0.00    +0.000 N 
ATOM     11  C   UNL     1       3.155   5.011  19.821  0.00  0.00    +0.000 C 
ATOM     12  O   UNL     1       3.867   4.993  18.831  0.00  0.00    +0.000 OA
ATOM     13  C   UNL     1       1.215   8.166  20.088  0.00  0.00    +0.000 A 
ATOM     14  H   UNL     1       1.768   5.865  21.084  0.00  0.00    +0.000 HD
BRANCH  11  15
ATOM     15  C   UNL     1       3.198   3.792  20.696  0.00  0.00    +0.000 C 
ATOM     16  C   UNL     1       2.131   3.435  21.702  0.00  0.00    +0.000 C 
ATOM     17  C   UNL     1       2.284   2.615  20.450  0.00  0.00    +0.000 C 
ENDBRANCH  11  15
ENDBRANCH   3   5
BRANCH   1  22
ATOM     18  C   UNL     1      -2.859  13.946  21.963  0.00  0.00    +0.000 A 
ATOM     19  C   UNL     1      -2.588  12.773  22.661  0.00  0.00    +0.000 A 
ATOM     20  C   UNL     1      -1.519  11.954  22.279  0.00  0.00    +0.000 A 
ATOM     21 CL   UNL     1      -1.289  10.559  23.286  0.00  0.00    +0.000 Cl
ATOM     22  C   UNL     1      -0.693  12.294  21.180  0.00  0.00    +0.000 A 
ATOM     23  C   UNL     1      -0.992  13.474  20.477  0.00  0.00    +0.000 A 
ATOM     24 CL   UNL     1      -0.122  13.999  19.078  0.00  0.00    +0.000 Cl
ATOM     25  C   UNL     1      -2.058  14.291  20.874  0.00  0.00    +0.000 A 
BRANCH  18  27
ATOM     26  N   UNL     1      -4.816  15.478  22.709  0.00  0.00    +0.000 NA
ATOM     27  C   UNL     1      -3.939  14.787  22.375  0.00  0.00    +0.000 C 
ENDBRANCH  18  27
ENDBRANCH   1  22
TORSDOF 4
ENDMDL
