MODEL 1
REMARK VINA RESULT:      -6.6      0.000      0.000
REMARK  Name = 
REMARK  5 active torsions:
REMARK  status: ('A' for Active; 'I' for Inactive)
REMARK    1  A    between atoms: C_1  and  S_2
REMARK    2  A    between atoms: S_2  and  C_3
REMARK    3  A    between atoms: N_8  and  C_9
REMARK    4  A    between atoms: C_9  and  C_10
REMARK    5  A    between atoms: C_17  and  C_18
REMARK                            x       y       z     vdW  Elec       q    Type
REMARK                         _______ _______ _______ _____ _____    ______ ____
ROOT
ATOM      1  C   UNL     1       0.318  10.865  20.248  0.00  0.00    +0.000 A 
ATOM      2  N   UNL     1       0.444  11.012  18.913  0.00  0.00    +0.000 NA
ATOM      3  C   UNL     1       1.015   9.996  18.261  0.00  0.00    +0.000 A 
ATOM      4  N   UNL     1       1.469   8.866  18.815  0.00  0.00    +0.000 NA
ATOM      5  C   UNL     1       1.333   8.732  20.148  0.00  0.00    +0.000 A 
ATOM      6  N   UNL     1       1.861   7.588  20.765  0.00  0.00    +0.000 N 
ATOM      7  C   UNL     1       0.739   9.727  20.919  0.00  0.00    +0.000 A 
ATOM      8  H   UNL     1       1.149   7.066  21.271  0.00  0.00    +0.000 HD
ENDROOT
BRANCH   1  10
ATOM      9  C   UNL     1       1.028  13.426  21.049  0.00  0.00    +0.000 C 
ATOM     10  S   UNL     1      -0.366  12.274  21.128  0.00  0.00    +0.000 S 
ENDBRANCH   1  10
BRANCH   7  11
ATOM     11  C   UNL     1       0.603   9.575  22.330  0.00  0.00    +0.000 C 
ATOM     12  N   UNL     1       0.470   9.483  23.481  0.00  0.00    +0.000 NA
ENDBRANCH   7  11
BRANCH   6  13
ATOM     13  C   UNL     1       2.694   6.723  19.933  0.00  0.00    +0.000 C 
BRANCH  13  14
ATOM     14  C   UNL     1       2.034   5.381  19.712  0.00  0.00    +0.000 A 
ATOM     15  C   UNL     1       1.459   4.629  20.751  0.00  0.00    +0.000 A 
ATOM     16  C   UNL     1       0.922   3.361  20.503  0.00  0.00    +0.000 A 
ATOM     17  C   UNL     1       0.970   2.818  19.220  0.00  0.00    +0.000 A 
ATOM     18  C   UNL     1       1.553   3.544  18.184  0.00  0.00    +0.000 A 
ATOM     19  C   UNL     1       2.080   4.808  18.438  0.00  0.00    +0.000 A 
ATOM     20  F   UNL     1       2.656   5.479  17.429  0.00  0.00    +0.000 F 
ENDBRANCH  13  14
ENDBRANCH   6  13
TORSDOF 4
ENDMDL
MODEL 2
REMARK VINA RESULT:      -6.4      5.386      6.415
REMARK  Name = 
REMARK  5 active torsions:
REMARK  status: ('A' for Active; 'I' for Inactive)
REMARK    1  A    between atoms: C_1  and  S_2
REMARK    2  A    between atoms: S_2  and  C_3
REMARK    3  A    between atoms: N_8  and  C_9
REMARK    4  A    between atoms: C_9  and  C_10
REMARK    5  A    between atoms: C_17  and  C_18
REMARK                            x       y       z     vdW  Elec       q    Type
REMARK                         _______ _______ _______ _____ _____    ______ ____
ROOT
ATOM      1  C   UNL     1       7.405   7.001  18.003  0.00  0.00    +0.000 A 
ATOM      2  N   UNL     1       8.103   6.594  19.085  0.00  0.00    +0.000 NA
ATOM      3  C   UNL     1       7.747   5.418  19.605  0.00  0.00    +0.000 A 
ATOM      4  N   UNL     1       6.769   4.625  19.154  0.00  0.00    +0.000 NA
ATOM      5  C   UNL     1       6.084   5.041  18.072  0.00  0.00    +0.000 A 
ATOM      6  N   UNL     1       5.009   4.263  17.617  0.00  0.00    +0.000 N 
ATOM      7  C   UNL     1       6.385   6.248  17.445  0.00  0.00    +0.000 A 
ATOM      8  H   UNL     1       5.132   3.973  16.649  0.00  0.00    +0.000 HD
ENDROOT
BRANCH   1  10
ATOM      9  C   UNL     1       8.763   9.301  18.763  0.00  0.00    +0.000 C 
ATOM     10  S   UNL     1       7.828   8.626  17.367  0.00  0.00    +0.000 S 
ENDBRANCH   1  10
BRANCH   7  11
ATOM     11  C   UNL     1       5.651   6.680  16.302  0.00  0.00    +0.000 C 
ATOM     12  N   UNL     1       5.075   7.010  15.347  0.00  0.00    +0.000 NA
ENDBRANCH   7  11
BRANCH   6  13
ATOM     13  C   UNL     1       4.593   3.158  18.477  0.00  0.00    +0.000 C 
BRANCH  13  14
ATOM     14  C   UNL     1       3.233   3.420  19.083  0.00  0.00    +0.000 A 
ATOM     15  C   UNL     1       3.029   4.311  20.152  0.00  0.00    +0.000 A 
ATOM     16  C   UNL     1       1.760   4.465  20.719  0.00  0.00    +0.000 A 
ATOM     17  C   UNL     1       0.683   3.720  20.243  0.00  0.00    +0.000 A 
ATOM     18  C   UNL     1       0.874   2.820  19.197  0.00  0.00    +0.000 A 
ATOM     19  C   UNL     1       2.139   2.677  18.632  0.00  0.00    +0.000 A 
ATOM     20  F   UNL     1       2.303   1.788  17.640  0.00  0.00    +0.000 F 
ENDBRANCH  13  14
ENDBRANCH   6  13
TORSDOF 4
ENDMDL
MODEL 3
REMARK VINA RESULT:      -6.4      1.553      1.900
REMARK  Name = 
REMARK  5 active torsions:
REMARK  status: ('A' for Active; 'I' for Inactive)
REMARK    1  A    between atoms: C_1  and  S_2
REMARK    2  A    between atoms: S_2  and  C_3
REMARK    3  A    between atoms: N_8  and  C_9
REMARK    4  A    between atoms: C_9  and  C_10
REMARK    5  A    between atoms: C_17  and  C_18
REMARK                            x       y       z     vdW  Elec       q    Type
REMARK                         _______ _______ _______ _____ _____    ______ ____
ROOT
ATOM      1  C   UNL     1       0.865  10.354  19.531  0.00  0.00    +0.000 A 
ATOM      2  N   UNL     1       1.306  10.393  18.256  0.00  0.00    +0.000 NA
ATOM      3  C   UNL     1       1.949   9.307  17.822  0.00  0.00    +0.000 A 
ATOM      4  N   UNL     1       2.193   8.203  18.538  0.00  0.00    +0.000 NA
ATOM      5  C   UNL     1       1.744   8.176  19.806  0.00  0.00    +0.000 A 
ATOM      6  N   UNL     1       2.044   7.059  20.602  0.00  0.00    +0.000 N 
ATOM      7  C   UNL     1       1.049   9.252  20.352  0.00  0.00    +0.000 A 
ATOM      8  H   UNL     1       1.203   6.609  20.958  0.00  0.00    +0.000 HD
ENDROOT
BRANCH   1  10
ATOM      9  C   UNL     1      -1.613  11.605  19.554  0.00  0.00    +0.000 C 
ATOM     10  S   UNL     1       0.084  11.854  20.135  0.00  0.00    +0.000 S 
ENDBRANCH   1  10
BRANCH   7  11
ATOM     11  C   UNL     1       0.582   9.213  21.698  0.00  0.00    +0.000 C 
ATOM     12  N   UNL     1       0.168   9.200  22.785  0.00  0.00    +0.000 NA
ENDBRANCH   7  11
BRANCH   6  13
ATOM     13  C   UNL     1       2.992   6.097  20.045  0.00  0.00    +0.000 C 
BRANCH  13  14
ATOM     14  C   UNL     1       2.300   4.809  19.661  0.00  0.00    +0.000 A 
ATOM     15  C   UNL     1       1.888   4.522  18.348  0.00  0.00    +0.000 A 
ATOM     16  C   UNL     1       1.191   3.345  18.060  0.00  0.00    +0.000 A 
ATOM     17  C   UNL     1       0.876   2.448  19.080  0.00  0.00    +0.000 A 
ATOM     18  C   UNL     1       1.261   2.728  20.389  0.00  0.00    +0.000 A 
ATOM     19  C   UNL     1       1.961   3.900  20.666  0.00  0.00    +0.000 A 
ATOM     20  F   UNL     1       2.302   4.159  21.938  0.00  0.00    +0.000 F 
ENDBRANCH  13  14
ENDBRANCH   6  13
TORSDOF 4
ENDMDL
MODEL 4
REMARK VINA RESULT:      -6.3      5.451      7.267
REMARK  Name = 
REMARK  5 active torsions:
REMARK  status: ('A' for Active; 'I' for Inactive)
REMARK    1  A    between atoms: C_1  and  S_2
REMARK    2  A    between atoms: S_2  and  C_3
REMARK    3  A    between atoms: N_8  and  C_9
REMARK    4  A    between atoms: C_9  and  C_10
REMARK    5  A    between atoms: C_17  and  C_18
REMARK                            x       y       z     vdW  Elec       q    Type
REMARK                         _______ _______ _______ _____ _____    ______ ____
ROOT
ATOM      1  C   UNL     1       2.159   3.131  19.380  0.00  0.00    +0.000 A 
ATOM      2  N   UNL     1       1.346   3.849  18.577  0.00  0.00    +0.000 NA
ATOM      3  C   UNL     1       1.914   4.390  17.497  0.00  0.00    +0.000 A 
ATOM      4  N   UNL     1       3.203   4.286  17.154  0.00  0.00    +0.000 NA
ATOM      5  C   UNL     1       4.002   3.563  17.962  0.00  0.00    +0.000 A 
ATOM      6  N   UNL     1       5.372   3.493  17.665  0.00  0.00    +0.000 N 
ATOM      7  C   UNL     1       3.506   2.946  19.108  0.00  0.00    +0.000 A 
ATOM      8  H   UNL     1       5.684   2.533  17.539  0.00  0.00    +0.000 HD
ENDROOT
BRANCH   1  10
ATOM      9  C   UNL     1       2.159   3.565  22.122  0.00  0.00    +0.000 C 
ATOM     10  S   UNL     1       1.408   2.486  20.878  0.00  0.00    +0.000 S 
ENDBRANCH   1  10
BRANCH   7  11
ATOM     11  C   UNL     1       4.362   2.187  19.958  0.00  0.00    +0.000 C 
ATOM     12  N   UNL     1       5.087   1.566  20.622  0.00  0.00    +0.000 NA
ENDBRANCH   7  11
BRANCH   6  13
ATOM     13  C   UNL     1       5.855   4.375  16.606  0.00  0.00    +0.000 C 
BRANCH  13  14
ATOM     14  C   UNL     1       6.650   5.527  17.177  0.00  0.00    +0.000 A 
ATOM     15  C   UNL     1       7.576   5.375  18.225  0.00  0.00    +0.000 A 
ATOM     16  C   UNL     1       8.235   6.485  18.762  0.00  0.00    +0.000 A 
ATOM     17  C   UNL     1       7.965   7.764  18.277  0.00  0.00    +0.000 A 
ATOM     18  C   UNL     1       7.037   7.933  17.252  0.00  0.00    +0.000 A 
ATOM     19  C   UNL     1       6.390   6.821  16.718  0.00  0.00    +0.000 A 
ATOM     20  F   UNL     1       5.483   7.010  15.746  0.00  0.00    +0.000 F 
ENDBRANCH  13  14
ENDBRANCH   6  13
TORSDOF 4
ENDMDL
MODEL 5
REMARK VINA RESULT:      -6.3      5.513      6.030
REMARK  Name = 
REMARK  5 active torsions:
REMARK  status: ('A' for Active; 'I' for Inactive)
REMARK    1  A    between atoms: C_1  and  S_2
REMARK    2  A    between atoms: S_2  and  C_3
REMARK    3  A    between atoms: N_8  and  C_9
REMARK    4  A    between atoms: C_9  and  C_10
REMARK    5  A    between atoms: C_17  and  C_18
REMARK                            x       y       z     vdW  Elec       q    Type
REMARK                         _______ _______ _______ _____ _____    ______ ____
ROOT
ATOM      1  C   UNL     1       7.045   6.990  17.796  0.00  0.00    +0.000 A 
ATOM      2  N   UNL     1       6.280   7.298  16.728  0.00  0.00    +0.000 NA
ATOM      3  C   UNL     1       5.271   6.465  16.466  0.00  0.00    +0.000 A 
ATOM      4  N   UNL     1       4.964   5.364  17.162  0.00  0.00    +0.000 NA
ATOM      5  C   UNL     1       5.732   5.071  18.227  0.00  0.00    +0.000 A 
ATOM      6  N   UNL     1       5.476   3.886  18.935  0.00  0.00    +0.000 N 
ATOM      7  C   UNL     1       6.802   5.882  18.594  0.00  0.00    +0.000 A 
ATOM      8  H   UNL     1       5.277   4.065  19.917  0.00  0.00    +0.000 HD
ENDROOT
BRANCH   1  10
ATOM      9  C   UNL     1       7.735   9.676  17.686  0.00  0.00    +0.000 C 
ATOM     10  S   UNL     1       8.454   8.064  18.085  0.00  0.00    +0.000 S 
ENDBRANCH   1  10
BRANCH   7  11
ATOM     11  C   UNL     1       7.611   5.560  19.723  0.00  0.00    +0.000 C 
ATOM     12  N   UNL     1       8.256   5.260  20.643  0.00  0.00    +0.000 NA
ENDBRANCH   7  11
BRANCH   6  13
ATOM     13  C   UNL     1       4.514   2.963  18.336  0.00  0.00    +0.000 C 
BRANCH  13  14
ATOM     14  C   UNL     1       3.154   3.099  18.983  0.00  0.00    +0.000 A 
ATOM     15  C   UNL     1       2.952   3.746  20.214  0.00  0.00    +0.000 A 
ATOM     16  C   UNL     1       1.683   3.784  20.801  0.00  0.00    +0.000 A 
ATOM     17  C   UNL     1       0.604   3.159  20.178  0.00  0.00    +0.000 A 
ATOM     18  C   UNL     1       0.793   2.497  18.968  0.00  0.00    +0.000 A 
ATOM     19  C   UNL     1       2.058   2.470  18.386  0.00  0.00    +0.000 A 
ATOM     20  F   UNL     1       2.220   1.808  17.230  0.00  0.00    +0.000 F 
ENDBRANCH  13  14
ENDBRANCH   6  13
TORSDOF 4
ENDMDL
MODEL 6
REMARK VINA RESULT:      -6.3      5.684      6.183
REMARK  Name = 
REMARK  5 active torsions:
REMARK  status: ('A' for Active; 'I' for Inactive)
REMARK    1  A    between atoms: C_1  and  S_2
REMARK    2  A    between atoms: S_2  and  C_3
REMARK    3  A    between atoms: N_8  and  C_9
REMARK    4  A    between atoms: C_9  and  C_10
REMARK    5  A    between atoms: C_17  and  C_18
REMARK                            x       y       z     vdW  Elec       q    Type
REMARK                         _______ _______ _______ _____ _____    ______ ____
ROOT
ATOM      1  C   UNL     1       6.902   6.858  17.564  0.00  0.00    +0.000 A 
ATOM      2  N   UNL     1       6.092   7.101  16.512  0.00  0.00    +0.000 NA
ATOM      3  C   UNL     1       5.071   6.257  16.348  0.00  0.00    +0.000 A 
ATOM      4  N   UNL     1       4.793   5.205  17.125  0.00  0.00    +0.000 NA
ATOM      5  C   UNL     1       5.606   4.977  18.173  0.00  0.00    +0.000 A 
ATOM      6  N   UNL     1       5.378   3.841  18.966  0.00  0.00    +0.000 N 
ATOM      7  C   UNL     1       6.692   5.805  18.441  0.00  0.00    +0.000 A 
ATOM      8  H   UNL     1       5.222   4.084  19.942  0.00  0.00    +0.000 HD
ENDROOT
BRANCH   1  10
ATOM      9  C   UNL     1       7.516   9.562  17.698  0.00  0.00    +0.000 C 
ATOM     10  S   UNL     1       8.324   7.942  17.722  0.00  0.00    +0.000 S 
ENDBRANCH   1  10
BRANCH   7  11
ATOM     11  C   UNL     1       7.548   5.552  19.552  0.00  0.00    +0.000 C 
ATOM     12  N   UNL     1       8.230   5.310  20.463  0.00  0.00    +0.000 NA
ENDBRANCH   7  11
BRANCH   6  13
ATOM     13  C   UNL     1       4.390   2.886  18.469  0.00  0.00    +0.000 C 
BRANCH  13  14
ATOM     14  C   UNL     1       3.146   2.893  19.328  0.00  0.00    +0.000 A 
ATOM     15  C   UNL     1       1.914   3.410  18.889  0.00  0.00    +0.000 A 
ATOM     16  C   UNL     1       0.812   3.455  19.749  0.00  0.00    +0.000 A 
ATOM     17  C   UNL     1       0.928   3.003  21.063  0.00  0.00    +0.000 A 
ATOM     18  C   UNL     1       2.147   2.506  21.517  0.00  0.00    +0.000 A 
ATOM     19  C   UNL     1       3.238   2.459  20.653  0.00  0.00    +0.000 A 
ATOM     20  F   UNL     1       4.408   1.995  21.120  0.00  0.00    +0.000 F 
ENDBRANCH  13  14
ENDBRANCH   6  13
TORSDOF 4
ENDMDL
MODEL 7
REMARK VINA RESULT:      -6.2      5.565      7.521
REMARK  Name = 
REMARK  5 active torsions:
REMARK  status: ('A' for Active; 'I' for Inactive)
REMARK    1  A    between atoms: C_1  and  S_2
REMARK    2  A    between atoms: S_2  and  C_3
REMARK    3  A    between atoms: N_8  and  C_9
REMARK    4  A    between atoms: C_9  and  C_10
REMARK    5  A    between atoms: C_17  and  C_18
REMARK                            x       y       z     vdW  Elec       q    Type
REMARK                         _______ _______ _______ _____ _____    ______ ____
ROOT
ATOM      1  C   UNL     1       2.489   4.705  18.670  0.00  0.00    +0.000 A 
ATOM      2  N   UNL     1       2.470   6.047  18.529  0.00  0.00    +0.000 NA
ATOM      3  C   UNL     1       3.405   6.568  17.730  0.00  0.00    +0.000 A 
ATOM      4  N   UNL     1       4.346   5.881  17.075  0.00  0.00    +0.000 NA
ATOM      5  C   UNL     1       4.351   4.543  17.222  0.00  0.00    +0.000 A 
ATOM      6  N   UNL     1       5.369   3.802  16.601  0.00  0.00    +0.000 N 
ATOM      7  C   UNL     1       3.411   3.898  18.021  0.00  0.00    +0.000 A 
ATOM      8  H   UNL     1       4.994   3.102  15.964  0.00  0.00    +0.000 HD
ENDROOT
BRANCH   1  10
ATOM      9  C   UNL     1       2.244   4.040  21.354  0.00  0.00    +0.000 C 
ATOM     10  S   UNL     1       1.288   4.023  19.817  0.00  0.00    +0.000 S 
ENDBRANCH   1  10
BRANCH   7  11
ATOM     11  C   UNL     1       3.428   2.481  18.172  0.00  0.00    +0.000 C 
ATOM     12  N   UNL     1       3.478   1.327  18.310  0.00  0.00    +0.000 NA
ENDBRANCH   7  11
BRANCH   6  13
ATOM     13  C   UNL     1       6.460   4.567  16.002  0.00  0.00    +0.000 C 
BRANCH  13  14
ATOM     14  C   UNL     1       6.501   4.377  14.503  0.00  0.00    +0.000 A 
ATOM     15  C   UNL     1       5.647   3.493  13.819  0.00  0.00    +0.000 A 
ATOM     16  C   UNL     1       5.773   3.304  12.440  0.00  0.00    +0.000 A 
ATOM     17  C   UNL     1       6.763   3.978  11.726  0.00  0.00    +0.000 A 
ATOM     18  C   UNL     1       7.628   4.842  12.393  0.00  0.00    +0.000 A 
ATOM     19  C   UNL     1       7.492   5.030  13.767  0.00  0.00    +0.000 A 
ATOM     20  F   UNL     1       8.350   5.851  14.391  0.00  0.00    +0.000 F 
ENDBRANCH  13  14
ENDBRANCH   6  13
TORSDOF 4
ENDMDL
MODEL 8
REMARK VINA RESULT:      -6.2      4.827      7.161
REMARK  Name = 
REMARK  5 active torsions:
REMARK  status: ('A' for Active; 'I' for Inactive)
REMARK    1  A    between atoms: C_1  and  S_2
REMARK    2  A    between atoms: S_2  and  C_3
REMARK    3  A    between atoms: N_8  and  C_9
REMARK    4  A    between atoms: C_9  and  C_10
REMARK    5  A    between atoms: C_17  and  C_18
REMARK                            x       y       z     vdW  Elec       q    Type
REMARK                         _______ _______ _______ _____ _____    ______ ____
ROOT
ATOM      1  C   UNL     1       2.171   3.797  19.049  0.00  0.00    +0.000 A 
ATOM      2  N   UNL     1       1.824   5.079  18.810  0.00  0.00    +0.000 NA
ATOM      3  C   UNL     1       2.544   5.722  17.888  0.00  0.00    +0.000 A 
ATOM      4  N   UNL     1       3.568   5.208  17.196  0.00  0.00    +0.000 NA
ATOM      5  C   UNL     1       3.900   3.927  17.442  0.00  0.00    +0.000 A 
ATOM      6  N   UNL     1       5.013   3.383  16.782  0.00  0.00    +0.000 N 
ATOM      7  C   UNL     1       3.204   3.164  18.376  0.00  0.00    +0.000 A 
ATOM      8  H   UNL     1       4.766   2.558  16.238  0.00  0.00    +0.000 HD
ENDROOT
BRANCH   1  10
ATOM      9  C   UNL     1       2.249   3.432  21.800  0.00  0.00    +0.000 C 
ATOM     10  S   UNL     1       1.258   2.971  20.357  0.00  0.00    +0.000 S 
ENDBRANCH   1  10
BRANCH   7  11
ATOM     11  C   UNL     1       3.568   1.810  18.630  0.00  0.00    +0.000 C 
ATOM     12  N   UNL     1       3.882   0.703  18.802  0.00  0.00    +0.000 NA
ENDBRANCH   7  11
BRANCH   6  13
ATOM     13  C   UNL     1       5.842   4.316  16.023  0.00  0.00    +0.000 C 
BRANCH  13  14
ATOM     14  C   UNL     1       6.676   5.177  16.945  0.00  0.00    +0.000 A 
ATOM     15  C   UNL     1       7.453   4.650  17.991  0.00  0.00    +0.000 A 
ATOM     16  C   UNL     1       8.152   5.496  18.858  0.00  0.00    +0.000 A 
ATOM     17  C   UNL     1       8.070   6.880  18.706  0.00  0.00    +0.000 A 
ATOM     18  C   UNL     1       7.289   7.417  17.685  0.00  0.00    +0.000 A 
ATOM     19  C   UNL     1       6.601   6.567  16.822  0.00  0.00    +0.000 A 
ATOM     20  F   UNL     1       5.837   7.108  15.861  0.00  0.00    +0.000 F 
ENDBRANCH  13  14
ENDBRANCH   6  13
TORSDOF 4
ENDMDL
MODEL 9
REMARK VINA RESULT:      -6.2      1.719      2.922
REMARK  Name = 
REMARK  5 active torsions:
REMARK  status: ('A' for Active; 'I' for Inactive)
REMARK    1  A    between atoms: C_1  and  S_2
REMARK    2  A    between atoms: S_2  and  C_3
REMARK    3  A    between atoms: N_8  and  C_9
REMARK    4  A    between atoms: C_9  and  C_10
REMARK    5  A    between atoms: C_17  and  C_18
REMARK                            x       y       z     vdW  Elec       q    Type
REMARK                         _______ _______ _______ _____ _____    ______ ____
ROOT
ATOM      1  C   UNL     1       0.676  10.602  20.605  0.00  0.00    +0.000 A 
ATOM      2  N   UNL     1       0.338  10.555  21.911  0.00  0.00    +0.000 NA
ATOM      3  C   UNL     1       0.579   9.402  22.540  0.00  0.00    +0.000 A 
ATOM      4  N   UNL     1       1.112   8.306  21.989  0.00  0.00    +0.000 NA
ATOM      5  C   UNL     1       1.448   8.369  20.686  0.00  0.00    +0.000 A 
ATOM      6  N   UNL     1       1.947   7.213  20.065  0.00  0.00    +0.000 N 
ATOM      7  C   UNL     1       1.252   9.529  19.943  0.00  0.00    +0.000 A 
ATOM      8  H   UNL     1       2.870   7.366  19.664  0.00  0.00    +0.000 HD
ENDROOT
BRANCH   1  10
ATOM      9  C   UNL     1      -1.422  11.756  19.200  0.00  0.00    +0.000 C 
ATOM     10  S   UNL     1       0.265  12.124  19.746  0.00  0.00    +0.000 S 
ENDBRANCH   1  10
BRANCH   7  11
ATOM     11  C   UNL     1       1.608   9.582  18.564  0.00  0.00    +0.000 C 
ATOM     12  N   UNL     1       1.930   9.647  17.448  0.00  0.00    +0.000 NA
ENDBRANCH   7  11
BRANCH   6  13
ATOM     13  C   UNL     1       1.877   5.975  20.837  0.00  0.00    +0.000 C 
BRANCH  13  14
ATOM     14  C   UNL     1       1.864   4.767  19.929  0.00  0.00    +0.000 A 
ATOM     15  C   UNL     1       1.967   4.858  18.530  0.00  0.00    +0.000 A 
ATOM     16  C   UNL     1       1.881   3.713  17.731  0.00  0.00    +0.000 A 
ATOM     17  C   UNL     1       1.672   2.465  18.315  0.00  0.00    +0.000 A 
ATOM     18  C   UNL     1       1.550   2.361  19.698  0.00  0.00    +0.000 A 
ATOM     19  C   UNL     1       1.643   3.505  20.487  0.00  0.00    +0.000 A 
ATOM     20  F   UNL     1       1.500   3.383  21.816  0.00  0.00    +0.000 F 
ENDBRANCH  13  14
ENDBRANCH   6  13
TORSDOF 4
ENDMDL
