MODEL 1
REMARK VINA RESULT:      -6.4      0.000      0.000
REMARK  Name = 
REMARK  9 active torsions:
REMARK  status: ('A' for Active; 'I' for Inactive)
REMARK    1  A    between atoms: C_1  and  C_2
REMARK    2  A    between atoms: C_4  and  N_5
REMARK    3  A    between atoms: C_6  and  N_7
REMARK    4  A    between atoms: N_7  and  C_8
REMARK    5  A    between atoms: C_8  and  CA_9
REMARK    6  A    between atoms: CA_9  and  N_10
REMARK    7  A    between atoms: CA_9  and  C_11
REMARK    8  A    between atoms: C_11  and  OXT_13
REMARK    9  A    between atoms: C_15  and  C_16
REMARK                            x       y       z     vdW  Elec       q    Type
REMARK                         _______ _______ _______ _____ _____    ______ ____
ROOT
ATOM      1  C   UNL     1       0.961   1.970  18.718  0.00  0.00    +0.000 C 
ATOM      2  C   UNL     1       2.056   2.997  18.650  0.00  0.00    +0.000 A 
ATOM      3  C   UNL     1       3.086   2.867  17.705  0.00  0.00    +0.000 A 
ATOM      4  C   UNL     1       4.176   3.760  17.654  0.00  0.00    +0.000 A 
ATOM      5  C   UNL     1       4.207   4.864  18.537  0.00  0.00    +0.000 A 
ATOM      6  C   UNL     1       3.118   5.030  19.414  0.00  0.00    +0.000 A 
ATOM      7  C   UNL     1       2.065   4.105  19.504  0.00  0.00    +0.000 A 
ATOM      8  C   UNL     1       0.977   4.346  20.514  0.00  0.00    +0.000 C 
ENDROOT
BRANCH   4   9
ATOM      9  N   UNL     1       5.085   3.619  16.586  0.00  0.00    +0.000 N 
ATOM     10  H   UNL     1       5.087   2.691  16.167  0.00  0.00    +0.000 HD
ATOM     11  H   UNL     1       6.015   3.970  16.755  0.00  0.00    +0.000 HD
ENDBRANCH   4   9
BRANCH   5  12
ATOM     12  N   UNL     1       5.247   5.844  18.471  0.00  0.00    +0.000 N 
ATOM     13  H   UNL     1       5.406   6.072  17.494  0.00  0.00    +0.000 HD
BRANCH  12  14
ATOM     14  C   UNL     1       6.494   5.455  19.166  0.00  0.00    +0.000 C 
BRANCH  14  15
ATOM     15  CA  UNL     1       7.721   5.487  18.243  0.00  0.00    +0.000 C 
BRANCH  15  16
ATOM     16  N   UNL     1       8.068   4.139  17.683  0.00  0.00    +0.000 NA
ATOM     17  H1  UNL     1       8.046   3.467  18.461  0.00  0.00    +0.000 HD
ATOM     18  H2  UNL     1       9.076   4.178  17.476  0.00  0.00    +0.000 HD
ENDBRANCH  15  16
BRANCH  15  19
ATOM     19  C   UNL     1       7.431   6.441  17.076  0.00  0.00    +0.000 C 
ATOM     20  O   UNL     1       7.387   7.659  17.151  0.00  0.00    +0.000 OA
BRANCH  19  21
ATOM     21  OXT UNL     1       7.241   5.757  15.916  0.00  0.00    +0.000 OA
ATOM     22  HXT UNL     1       6.269   5.751  15.750  0.00  0.00    +0.000 HD
ENDBRANCH  19  21
ENDBRANCH  15  19
ENDBRANCH  14  15
ENDBRANCH  12  14
ENDBRANCH   5  12
TORSDOF 7
ENDMDL
MODEL 2
REMARK VINA RESULT:      -6.1      1.784      2.657
REMARK  Name = 
REMARK  9 active torsions:
REMARK  status: ('A' for Active; 'I' for Inactive)
REMARK    1  A    between atoms: C_1  and  C_2
REMARK    2  A    between atoms: C_4  and  N_5
REMARK    3  A    between atoms: C_6  and  N_7
REMARK    4  A    between atoms: N_7  and  C_8
REMARK    5  A    between atoms: C_8  and  CA_9
REMARK    6  A    between atoms: CA_9  and  N_10
REMARK    7  A    between atoms: CA_9  and  C_11
REMARK    8  A    between atoms: C_11  and  OXT_13
REMARK    9  A    between atoms: C_15  and  C_16
REMARK                            x       y       z     vdW  Elec       q    Type
REMARK                         _______ _______ _______ _____ _____    ______ ____
ROOT
ATOM      1  C   UNL     1       1.509   3.255  21.272  0.00  0.00    +0.000 C 
ATOM      2  C   UNL     1       2.427   3.268  20.081  0.00  0.00    +0.000 A 
ATOM      3  C   UNL     1       3.740   3.747  20.209  0.00  0.00    +0.000 A 
ATOM      4  C   UNL     1       4.612   3.853  19.106  0.00  0.00    +0.000 A 
ATOM      5  C   UNL     1       4.179   3.402  17.837  0.00  0.00    +0.000 A 
ATOM      6  C   UNL     1       2.891   2.839  17.748  0.00  0.00    +0.000 A 
ATOM      7  C   UNL     1       2.004   2.791  18.835  0.00  0.00    +0.000 A 
ATOM      8  C   UNL     1       0.630   2.219  18.621  0.00  0.00    +0.000 C 
ENDROOT
BRANCH   4   9
ATOM      9  N   UNL     1       5.948   4.220  19.365  0.00  0.00    +0.000 N 
ATOM     10  H   UNL     1       6.632   3.538  19.043  0.00  0.00    +0.000 HD
ATOM     11  H   UNL     1       6.137   4.546  20.300  0.00  0.00    +0.000 HD
ENDBRANCH   4   9
BRANCH   5  12
ATOM     12  N   UNL     1       5.052   3.412  16.704  0.00  0.00    +0.000 N 
ATOM     13  H   UNL     1       5.929   2.977  16.977  0.00  0.00    +0.000 HD
BRANCH  12  14
ATOM     14  C   UNL     1       5.251   4.748  16.101  0.00  0.00    +0.000 C 
BRANCH  14  15
ATOM     15  CA  UNL     1       6.735   5.092  15.901  0.00  0.00    +0.000 C 
BRANCH  15  16
ATOM     16  N   UNL     1       7.645   4.308  16.801  0.00  0.00    +0.000 NA
ATOM     17  H1  UNL     1       8.171   4.982  17.370  0.00  0.00    +0.000 HD
ATOM     18  H2  UNL     1       8.384   3.936  16.189  0.00  0.00    +0.000 HD
ENDBRANCH  15  16
BRANCH  15  19
ATOM     19  C   UNL     1       7.115   4.795  14.445  0.00  0.00    +0.000 C 
ATOM     20  O   UNL     1       7.869   5.467  13.758  0.00  0.00    +0.000 OA
BRANCH  19  21
ATOM     21  OXT UNL     1       6.513   3.660  14.000  0.00  0.00    +0.000 OA
ATOM     22  HXT UNL     1       5.597   3.667  14.363  0.00  0.00    +0.000 HD
ENDBRANCH  19  21
ENDBRANCH  15  19
ENDBRANCH  14  15
ENDBRANCH  12  14
ENDBRANCH   5  12
TORSDOF 7
ENDMDL
MODEL 3
REMARK VINA RESULT:      -6.0      1.460      1.582
REMARK  Name = 
REMARK  9 active torsions:
REMARK  status: ('A' for Active; 'I' for Inactive)
REMARK    1  A    between atoms: C_1  and  C_2
REMARK    2  A    between atoms: C_4  and  N_5
REMARK    3  A    between atoms: C_6  and  N_7
REMARK    4  A    between atoms: N_7  and  C_8
REMARK    5  A    between atoms: C_8  and  CA_9
REMARK    6  A    between atoms: CA_9  and  N_10
REMARK    7  A    between atoms: CA_9  and  C_11
REMARK    8  A    between atoms: C_11  and  OXT_13
REMARK    9  A    between atoms: C_15  and  C_16
REMARK                            x       y       z     vdW  Elec       q    Type
REMARK                         _______ _______ _______ _____ _____    ______ ____
ROOT
ATOM      1  C   UNL     1       0.176   2.436  18.624  0.00  0.00    +0.000 C 
ATOM      2  C   UNL     1       1.618   2.831  18.771  0.00  0.00    +0.000 A 
ATOM      3  C   UNL     1       2.377   3.163  17.637  0.00  0.00    +0.000 A 
ATOM      4  C   UNL     1       3.752   3.463  17.715  0.00  0.00    +0.000 A 
ATOM      5  C   UNL     1       4.381   3.498  18.981  0.00  0.00    +0.000 A 
ATOM      6  C   UNL     1       3.583   3.253  20.115  0.00  0.00    +0.000 A 
ATOM      7  C   UNL     1       2.228   2.895  20.029  0.00  0.00    +0.000 A 
ATOM      8  C   UNL     1       1.477   2.601  21.298  0.00  0.00    +0.000 C 
ENDROOT
BRANCH   4   9
ATOM      9  N   UNL     1       4.388   3.911  16.540  0.00  0.00    +0.000 N 
ATOM     10  H   UNL     1       3.998   3.520  15.685  0.00  0.00    +0.000 HD
ATOM     11  H   UNL     1       5.396   3.885  16.553  0.00  0.00    +0.000 HD
ENDBRANCH   4   9
BRANCH   5  12
ATOM     12  N   UNL     1       5.754   3.877  19.122  0.00  0.00    +0.000 N 
ATOM     13  H   UNL     1       6.171   3.294  19.842  0.00  0.00    +0.000 HD
BRANCH  12  14
ATOM     14  C   UNL     1       5.964   5.319  19.375  0.00  0.00    +0.000 C 
BRANCH  14  15
ATOM     15  CA  UNL     1       7.356   5.800  18.938  0.00  0.00    +0.000 C 
BRANCH  15  16
ATOM     16  N   UNL     1       8.438   5.413  19.902  0.00  0.00    +0.000 NA
ATOM     17  H1  UNL     1       8.832   4.519  19.580  0.00  0.00    +0.000 HD
ATOM     18  H2  UNL     1       7.951   5.123  20.761  0.00  0.00    +0.000 HD
ENDBRANCH  15  16
BRANCH  15  19
ATOM     19  C   UNL     1       7.678   5.186  17.569  0.00  0.00    +0.000 C 
ATOM     20  O   UNL     1       7.428   5.696  16.487  0.00  0.00    +0.000 OA
BRANCH  19  21
ATOM     21  OXT UNL     1       8.307   3.988  17.702  0.00  0.00    +0.000 OA
ATOM     22  HXT UNL     1       8.623   3.938  18.634  0.00  0.00    +0.000 HD
ENDBRANCH  19  21
ENDBRANCH  15  19
ENDBRANCH  14  15
ENDBRANCH  12  14
ENDBRANCH   5  12
TORSDOF 7
ENDMDL
MODEL 4
REMARK VINA RESULT:      -6.0      1.703      1.984
REMARK  Name = 
REMARK  9 active torsions:
REMARK  status: ('A' for Active; 'I' for Inactive)
REMARK    1  A    between atoms: C_1  and  C_2
REMARK    2  A    between atoms: C_4  and  N_5
REMARK    3  A    between atoms: C_6  and  N_7
REMARK    4  A    between atoms: N_7  and  C_8
REMARK    5  A    between atoms: C_8  and  CA_9
REMARK    6  A    between atoms: CA_9  and  N_10
REMARK    7  A    between atoms: CA_9  and  C_11
REMARK    8  A    between atoms: C_11  and  OXT_13
REMARK    9  A    between atoms: C_15  and  C_16
REMARK                            x       y       z     vdW  Elec       q    Type
REMARK                         _______ _______ _______ _____ _____    ______ ____
ROOT
ATOM      1  C   UNL     1       0.487   2.398  19.009  0.00  0.00    +0.000 C 
ATOM      2  C   UNL     1       1.923   2.841  19.022  0.00  0.00    +0.000 A 
ATOM      3  C   UNL     1       2.885   2.091  19.718  0.00  0.00    +0.000 A 
ATOM      4  C   UNL     1       4.228   2.507  19.825  0.00  0.00    +0.000 A 
ATOM      5  C   UNL     1       4.643   3.683  19.158  0.00  0.00    +0.000 A 
ATOM      6  C   UNL     1       3.684   4.371  18.389  0.00  0.00    +0.000 A 
ATOM      7  C   UNL     1       2.334   3.988  18.334  0.00  0.00    +0.000 A 
ATOM      8  C   UNL     1       1.379   4.823  17.528  0.00  0.00    +0.000 C 
ENDROOT
BRANCH   4   9
ATOM      9  N   UNL     1       5.139   1.617  20.430  0.00  0.00    +0.000 N 
ATOM     10  H   UNL     1       4.735   0.716  20.673  0.00  0.00    +0.000 HD
ATOM     11  H   UNL     1       5.697   2.006  21.175  0.00  0.00    +0.000 HD
ENDBRANCH   4   9
BRANCH   5  12
ATOM     12  N   UNL     1       6.010   4.103  19.168  0.00  0.00    +0.000 N 
ATOM     13  H   UNL     1       6.357   4.032  20.120  0.00  0.00    +0.000 HD
BRANCH  12  14
ATOM     14  C   UNL     1       6.239   5.444  18.586  0.00  0.00    +0.000 C 
BRANCH  14  15
ATOM     15  CA  UNL     1       7.444   5.478  17.634  0.00  0.00    +0.000 C 
BRANCH  15  16
ATOM     16  N   UNL     1       8.171   4.167  17.561  0.00  0.00    +0.000 NA
ATOM     17  H1  UNL     1       9.025   4.257  18.126  0.00  0.00    +0.000 HD
ATOM     18  H2  UNL     1       8.559   4.120  16.609  0.00  0.00    +0.000 HD
ENDBRANCH  15  16
BRANCH  15  19
ATOM     19  C   UNL     1       6.947   5.839  16.228  0.00  0.00    +0.000 C 
ATOM     20  O   UNL     1       7.417   5.421  15.181  0.00  0.00    +0.000 OA
BRANCH  19  21
ATOM     21  OXT UNL     1       5.885   6.686  16.283  0.00  0.00    +0.000 OA
ATOM     22  HXT UNL     1       6.011   7.343  15.559  0.00  0.00    +0.000 HD
ENDBRANCH  19  21
ENDBRANCH  15  19
ENDBRANCH  14  15
ENDBRANCH  12  14
ENDBRANCH   5  12
TORSDOF 7
ENDMDL
MODEL 5
REMARK VINA RESULT:      -6.0      1.079      1.079
REMARK  Name = 
REMARK  9 active torsions:
REMARK  status: ('A' for Active; 'I' for Inactive)
REMARK    1  A    between atoms: C_1  and  C_2
REMARK    2  A    between atoms: C_4  and  N_5
REMARK    3  A    between atoms: C_6  and  N_7
REMARK    4  A    between atoms: N_7  and  C_8
REMARK    5  A    between atoms: C_8  and  CA_9
REMARK    6  A    between atoms: CA_9  and  N_10
REMARK    7  A    between atoms: CA_9  and  C_11
REMARK    8  A    between atoms: C_11  and  OXT_13
REMARK    9  A    between atoms: C_15  and  C_16
REMARK                            x       y       z     vdW  Elec       q    Type
REMARK                         _______ _______ _______ _____ _____    ______ ____
ROOT
ATOM      1  C   UNL     1       0.491   2.247  18.657  0.00  0.00    +0.000 C 
ATOM      2  C   UNL     1       1.913   2.696  18.844  0.00  0.00    +0.000 A 
ATOM      3  C   UNL     1       2.772   2.796  17.738  0.00  0.00    +0.000 A 
ATOM      4  C   UNL     1       4.134   3.135  17.873  0.00  0.00    +0.000 A 
ATOM      5  C   UNL     1       4.644   3.451  19.153  0.00  0.00    +0.000 A 
ATOM      6  C   UNL     1       3.746   3.435  20.237  0.00  0.00    +0.000 A 
ATOM      7  C   UNL     1       2.405   3.037  20.109  0.00  0.00    +0.000 A 
ATOM      8  C   UNL     1       1.542   3.002  21.340  0.00  0.00    +0.000 C 
ENDROOT
BRANCH   4   9
ATOM      9  N   UNL     1       4.874   3.338  16.690  0.00  0.00    +0.000 N 
ATOM     10  H   UNL     1       5.221   2.479  16.269  0.00  0.00    +0.000 HD
ATOM     11  H   UNL     1       5.577   4.060  16.735  0.00  0.00    +0.000 HD
ENDBRANCH   4   9
BRANCH   5  12
ATOM     12  N   UNL     1       5.997   3.880  19.332  0.00  0.00    +0.000 N 
ATOM     13  H   UNL     1       6.273   3.671  20.287  0.00  0.00    +0.000 HD
BRANCH  12  14
ATOM     14  C   UNL     1       6.238   5.295  18.975  0.00  0.00    +0.000 C 
BRANCH  14  15
ATOM     15  CA  UNL     1       7.465   5.476  18.068  0.00  0.00    +0.000 C 
BRANCH  15  16
ATOM     16  N   UNL     1       8.030   4.175  17.580  0.00  0.00    +0.000 NA
ATOM     17  H1  UNL     1       9.006   4.346  17.308  0.00  0.00    +0.000 HD
ATOM     18  H2  UNL     1       7.588   4.008  16.665  0.00  0.00    +0.000 HD
ENDBRANCH  15  16
BRANCH  15  19
ATOM     19  C   UNL     1       7.054   6.317  16.851  0.00  0.00    +0.000 C 
ATOM     20  O   UNL     1       6.392   7.342  16.889  0.00  0.00    +0.000 OA
BRANCH  19  21
ATOM     21  OXT UNL     1       7.539   5.784  15.698  0.00  0.00    +0.000 OA
ATOM     22  HXT UNL     1       7.250   6.381  14.969  0.00  0.00    +0.000 HD
ENDBRANCH  19  21
ENDBRANCH  15  19
ENDBRANCH  14  15
ENDBRANCH  12  14
ENDBRANCH   5  12
TORSDOF 7
ENDMDL
MODEL 6
REMARK VINA RESULT:      -5.9      1.855      2.565
REMARK  Name = 
REMARK  9 active torsions:
REMARK  status: ('A' for Active; 'I' for Inactive)
REMARK    1  A    between atoms: C_1  and  C_2
REMARK    2  A    between atoms: C_4  and  N_5
REMARK    3  A    between atoms: C_6  and  N_7
REMARK    4  A    between atoms: N_7  and  C_8
REMARK    5  A    between atoms: C_8  and  CA_9
REMARK    6  A    between atoms: CA_9  and  N_10
REMARK    7  A    between atoms: CA_9  and  C_11
REMARK    8  A    between atoms: C_11  and  OXT_13
REMARK    9  A    between atoms: C_15  and  C_16
REMARK                            x       y       z     vdW  Elec       q    Type
REMARK                         _______ _______ _______ _____ _____    ______ ____
ROOT
ATOM      1  C   UNL     1       2.003   2.610  21.392  0.00  0.00    +0.000 C 
ATOM      2  C   UNL     1       2.668   2.997  20.101  0.00  0.00    +0.000 A 
ATOM      3  C   UNL     1       4.024   3.363  20.090  0.00  0.00    +0.000 A 
ATOM      4  C   UNL     1       4.671   3.809  18.920  0.00  0.00    +0.000 A 
ATOM      5  C   UNL     1       3.956   3.830  17.699  0.00  0.00    +0.000 A 
ATOM      6  C   UNL     1       2.625   3.371  17.714  0.00  0.00    +0.000 A 
ATOM      7  C   UNL     1       1.966   2.985  18.892  0.00  0.00    +0.000 A 
ATOM      8  C   UNL     1       0.524   2.564  18.807  0.00  0.00    +0.000 C 
ENDROOT
BRANCH   4   9
ATOM      9  N   UNL     1       6.063   4.024  18.987  0.00  0.00    +0.000 N 
ATOM     10  H   UNL     1       6.617   3.246  18.637  0.00  0.00    +0.000 HD
ATOM     11  H   UNL     1       6.406   4.381  19.865  0.00  0.00    +0.000 HD
ENDBRANCH   4   9
BRANCH   5  12
ATOM     12  N   UNL     1       4.590   4.196  16.470  0.00  0.00    +0.000 N 
ATOM     13  H   UNL     1       5.464   3.682  16.399  0.00  0.00    +0.000 HD
BRANCH  12  14
ATOM     14  C   UNL     1       4.779   5.652  16.293  0.00  0.00    +0.000 C 
BRANCH  14  15
ATOM     15  CA  UNL     1       6.217   6.019  15.897  0.00  0.00    +0.000 C 
BRANCH  15  16
ATOM     16  N   UNL     1       6.976   6.691  17.004  0.00  0.00    +0.000 NA
ATOM     17  H1  UNL     1       7.896   6.238  17.065  0.00  0.00    +0.000 HD
ATOM     18  H2  UNL     1       6.532   6.371  17.876  0.00  0.00    +0.000 HD
ENDBRANCH  15  16
BRANCH  15  19
ATOM     19  C   UNL     1       6.960   4.735  15.506  0.00  0.00    +0.000 C 
ATOM     20  O   UNL     1       6.806   4.117  14.464  0.00  0.00    +0.000 OA
BRANCH  19  21
ATOM     21  OXT UNL     1       7.845   4.364  16.469  0.00  0.00    +0.000 OA
ATOM     22  HXT UNL     1       7.311   4.105  17.256  0.00  0.00    +0.000 HD
ENDBRANCH  19  21
ENDBRANCH  15  19
ENDBRANCH  14  15
ENDBRANCH  12  14
ENDBRANCH   5  12
TORSDOF 7
ENDMDL
MODEL 7
REMARK VINA RESULT:      -5.8      1.878      2.118
REMARK  Name = 
REMARK  9 active torsions:
REMARK  status: ('A' for Active; 'I' for Inactive)
REMARK    1  A    between atoms: C_1  and  C_2
REMARK    2  A    between atoms: C_4  and  N_5
REMARK    3  A    between atoms: C_6  and  N_7
REMARK    4  A    between atoms: N_7  and  C_8
REMARK    5  A    between atoms: C_8  and  CA_9
REMARK    6  A    between atoms: CA_9  and  N_10
REMARK    7  A    between atoms: CA_9  and  C_11
REMARK    8  A    between atoms: C_11  and  OXT_13
REMARK    9  A    between atoms: C_15  and  C_16
REMARK                            x       y       z     vdW  Elec       q    Type
REMARK                         _______ _______ _______ _____ _____    ______ ____
ROOT
ATOM      1  C   UNL     1       1.533   2.906  21.615  0.00  0.00    +0.000 C 
ATOM      2  C   UNL     1       2.226   3.438  20.392  0.00  0.00    +0.000 A 
ATOM      3  C   UNL     1       2.962   2.573  19.567  0.00  0.00    +0.000 A 
ATOM      4  C   UNL     1       3.693   3.038  18.455  0.00  0.00    +0.000 A 
ATOM      5  C   UNL     1       3.636   4.409  18.114  0.00  0.00    +0.000 A 
ATOM      6  C   UNL     1       2.817   5.244  18.898  0.00  0.00    +0.000 A 
ATOM      7  C   UNL     1       2.139   4.790  20.041  0.00  0.00    +0.000 A 
ATOM      8  C   UNL     1       1.335   5.776  20.843  0.00  0.00    +0.000 C 
ENDROOT
BRANCH   4   9
ATOM      9  N   UNL     1       4.288   2.073  17.617  0.00  0.00    +0.000 N 
ATOM     10  H   UNL     1       4.112   2.222  16.626  0.00  0.00    +0.000 HD
ATOM     11  H   UNL     1       4.152   1.113  17.894  0.00  0.00    +0.000 HD
ENDBRANCH   4   9
BRANCH   5  12
ATOM     12  N   UNL     1       4.293   4.916  16.948  0.00  0.00    +0.000 N 
ATOM     13  H   UNL     1       4.713   4.133  16.456  0.00  0.00    +0.000 HD
BRANCH  12  14
ATOM     14  C   UNL     1       5.267   5.995  17.220  0.00  0.00    +0.000 C 
BRANCH  14  15
ATOM     15  CA  UNL     1       6.539   5.873  16.368  0.00  0.00    +0.000 C 
BRANCH  15  16
ATOM     16  N   UNL     1       7.580   6.896  16.719  0.00  0.00    +0.000 NA
ATOM     17  H1  UNL     1       7.371   7.745  16.178  0.00  0.00    +0.000 HD
ATOM     18  H2  UNL     1       8.446   6.573  16.266  0.00  0.00    +0.000 HD
ENDBRANCH  15  16
BRANCH  15  19
ATOM     19  C   UNL     1       7.137   4.476  16.579  0.00  0.00    +0.000 C 
ATOM     20  O   UNL     1       8.113   4.220  17.267  0.00  0.00    +0.000 OA
BRANCH  19  21
ATOM     21  OXT UNL     1       6.428   3.530  15.908  0.00  0.00    +0.000 OA
ATOM     22  HXT UNL     1       7.081   3.006  15.387  0.00  0.00    +0.000 HD
ENDBRANCH  19  21
ENDBRANCH  15  19
ENDBRANCH  14  15
ENDBRANCH  12  14
ENDBRANCH   5  12
TORSDOF 7
ENDMDL
MODEL 8
REMARK VINA RESULT:      -5.8      1.754      2.433
REMARK  Name = 
REMARK  9 active torsions:
REMARK  status: ('A' for Active; 'I' for Inactive)
REMARK    1  A    between atoms: C_1  and  C_2
REMARK    2  A    between atoms: C_4  and  N_5
REMARK    3  A    between atoms: C_6  and  N_7
REMARK    4  A    between atoms: N_7  and  C_8
REMARK    5  A    between atoms: C_8  and  CA_9
REMARK    6  A    between atoms: CA_9  and  N_10
REMARK    7  A    between atoms: CA_9  and  C_11
REMARK    8  A    between atoms: C_11  and  OXT_13
REMARK    9  A    between atoms: C_15  and  C_16
REMARK                            x       y       z     vdW  Elec       q    Type
REMARK                         _______ _______ _______ _____ _____    ______ ____
ROOT
ATOM      1  C   UNL     1       0.931   4.483  20.461  0.00  0.00    +0.000 C 
ATOM      2  C   UNL     1       2.352   4.396  19.980  0.00  0.00    +0.000 A 
ATOM      3  C   UNL     1       3.047   3.178  20.053  0.00  0.00    +0.000 A 
ATOM      4  C   UNL     1       4.404   3.064  19.689  0.00  0.00    +0.000 A 
ATOM      5  C   UNL     1       5.078   4.195  19.170  0.00  0.00    +0.000 A 
ATOM      6  C   UNL     1       4.338   5.383  19.018  0.00  0.00    +0.000 A 
ATOM      7  C   UNL     1       3.004   5.509  19.439  0.00  0.00    +0.000 A 
ATOM      8  C   UNL     1       2.320   6.839  19.282  0.00  0.00    +0.000 C 
ENDROOT
BRANCH   4   9
ATOM      9  N   UNL     1       4.969   1.773  19.673  0.00  0.00    +0.000 N 
ATOM     10  H   UNL     1       4.635   1.187  18.911  0.00  0.00    +0.000 HD
ATOM     11  H   UNL     1       4.976   1.290  20.558  0.00  0.00    +0.000 HD
ENDBRANCH   4   9
BRANCH   5  12
ATOM     12  N   UNL     1       6.430   4.111  18.710  0.00  0.00    +0.000 N 
ATOM     13  H   UNL     1       7.045   4.232  19.510  0.00  0.00    +0.000 HD
BRANCH  12  14
ATOM     14  C   UNL     1       6.755   5.041  17.607  0.00  0.00    +0.000 C 
BRANCH  14  15
ATOM     15  CA  UNL     1       6.956   4.320  16.265  0.00  0.00    +0.000 C 
BRANCH  15  16
ATOM     16  N   UNL     1       5.917   3.269  16.004  0.00  0.00    +0.000 NA
ATOM     17  H1  UNL     1       6.347   2.554  15.403  0.00  0.00    +0.000 HD
ATOM     18  H2  UNL     1       5.244   3.702  15.356  0.00  0.00    +0.000 HD
ENDBRANCH  15  16
BRANCH  15  19
ATOM     19  C   UNL     1       6.895   5.358  15.137  0.00  0.00    +0.000 C 
ATOM     20  O   UNL     1       7.706   5.468  14.231  0.00  0.00    +0.000 OA
BRANCH  19  21
ATOM     21  OXT UNL     1       5.797   6.151  15.256  0.00  0.00    +0.000 OA
ATOM     22  HXT UNL     1       6.099   6.988  15.680  0.00  0.00    +0.000 HD
ENDBRANCH  19  21
ENDBRANCH  15  19
ENDBRANCH  14  15
ENDBRANCH  12  14
ENDBRANCH   5  12
TORSDOF 7
ENDMDL
MODEL 9
REMARK VINA RESULT:      -5.8      1.877      2.236
REMARK  Name = 
REMARK  9 active torsions:
REMARK  status: ('A' for Active; 'I' for Inactive)
REMARK    1  A    between atoms: C_1  and  C_2
REMARK    2  A    between atoms: C_4  and  N_5
REMARK    3  A    between atoms: C_6  and  N_7
REMARK    4  A    between atoms: N_7  and  C_8
REMARK    5  A    between atoms: C_8  and  CA_9
REMARK    6  A    between atoms: CA_9  and  N_10
REMARK    7  A    between atoms: CA_9  and  C_11
REMARK    8  A    between atoms: C_11  and  OXT_13
REMARK    9  A    between atoms: C_15  and  C_16
REMARK                            x       y       z     vdW  Elec       q    Type
REMARK                         _______ _______ _______ _____ _____    ______ ____
ROOT
ATOM      1  C   UNL     1       0.486   2.844  19.409  0.00  0.00    +0.000 C 
ATOM      2  C   UNL     1       1.948   3.148  19.240  0.00  0.00    +0.000 A 
ATOM      3  C   UNL     1       2.911   2.352  19.879  0.00  0.00    +0.000 A 
ATOM      4  C   UNL     1       4.289   2.644  19.815  0.00  0.00    +0.000 A 
ATOM      5  C   UNL     1       4.729   3.735  19.029  0.00  0.00    +0.000 A 
ATOM      6  C   UNL     1       3.755   4.464  18.321  0.00  0.00    +0.000 A 
ATOM      7  C   UNL     1       2.379   4.208  18.435  0.00  0.00    +0.000 A 
ATOM      8  C   UNL     1       1.417   5.082  17.679  0.00  0.00    +0.000 C 
ENDROOT
BRANCH   4   9
ATOM      9  N   UNL     1       5.180   1.709  20.380  0.00  0.00    +0.000 N 
ATOM     10  H   UNL     1       5.229   1.748  21.396  0.00  0.00    +0.000 HD
ATOM     11  H   UNL     1       6.091   1.660  19.950  0.00  0.00    +0.000 HD
ENDBRANCH   4   9
BRANCH   5  12
ATOM     12  N   UNL     1       6.121   4.023  18.865  0.00  0.00    +0.000 N 
ATOM     13  H   UNL     1       6.625   3.597  19.637  0.00  0.00    +0.000 HD
BRANCH  12  14
ATOM     14  C   UNL     1       6.431   5.461  18.717  0.00  0.00    +0.000 C 
BRANCH  14  15
ATOM     15  CA  UNL     1       6.416   5.922  17.251  0.00  0.00    +0.000 C 
BRANCH  15  16
ATOM     16  N   UNL     1       6.796   7.364  17.087  0.00  0.00    +0.000 NA
ATOM     17  H1  UNL     1       7.484   7.587  17.818  0.00  0.00    +0.000 HD
ATOM     18  H2  UNL     1       5.978   7.903  17.404  0.00  0.00    +0.000 HD
ENDBRANCH  15  16
BRANCH  15  19
ATOM     19  C   UNL     1       7.408   5.061  16.457  0.00  0.00    +0.000 C 
ATOM     20  O   UNL     1       8.112   4.179  16.924  0.00  0.00    +0.000 OA
BRANCH  19  21
ATOM     21  OXT UNL     1       7.400   5.391  15.139  0.00  0.00    +0.000 OA
ATOM     22  HXT UNL     1       6.508   5.153  14.794  0.00  0.00    +0.000 HD
ENDBRANCH  19  21
ENDBRANCH  15  19
ENDBRANCH  14  15
ENDBRANCH  12  14
ENDBRANCH   5  12
TORSDOF 7
ENDMDL
