MODEL 1
REMARK VINA RESULT:      -9.2      0.000      0.000
REMARK  Name = 
REMARK  3 active torsions:
REMARK  status: ('A' for Active; 'I' for Inactive)
REMARK    1  A    between atoms: C_1  and  C_2
REMARK    2  A    between atoms: C_27  and  C_28
REMARK    3  A    between atoms: C_30  and  C_31
REMARK                            x       y       z     vdW  Elec       q    Type
REMARK                         _______ _______ _______ _____ _____    ______ ____
ROOT
ATOM      1  C   UNL     1       5.769   3.745  15.376  0.00  0.00    +0.000 C 
ATOM      2  C   UNL     1       5.118   4.808  16.198  0.00  0.00    +0.000 A 
ATOM      3  C   UNL     1       5.436   6.181  16.216  0.00  0.00    +0.000 A 
ATOM      4  N   UNL     1       4.618   6.904  16.990  0.00  0.00    +0.000 NA
ATOM      5  N   UNL     1       3.807   5.990  17.620  0.00  0.00    +0.000 N 
ATOM      6  C   UNL     1       2.868   6.361  18.675  0.00  0.00    +0.000 A 
ATOM      7  N   UNL     1       2.292   5.439  19.457  0.00  0.00    +0.000 NA
ATOM      8  O   UNL     1       1.577   6.169  20.438  0.00  0.00    +0.000 OA
ATOM      9  C   UNL     1       1.671   7.527  20.207  0.00  0.00    +0.000 A 
ATOM     10  C   UNL     1       1.120   8.638  20.989  0.00  0.00    +0.000 A 
ATOM     11  F   UNL     1       0.464   8.383  22.131  0.00  0.00    +0.000 F 
ATOM     12  C   UNL     1       1.197   9.940  20.453  0.00  0.00    +0.000 A 
ATOM     13  C   UNL     1       1.584   9.852  19.026  0.00  0.00    +0.000 A 
ATOM     14  C   UNL     1       2.406   8.893  18.416  0.00  0.00    +0.000 A 
ATOM     15  C   UNL     1       2.402   7.656  19.025  0.00  0.00    +0.000 A 
ATOM     16  C   UNL     1       0.913  10.792  18.009  0.00  0.00    +0.000 C 
ATOM     17  C   UNL     1       0.017  11.687  18.842  0.00  0.00    +0.000 C 
ATOM     18  C   UNL     1      -1.257  10.811  19.438  0.00  0.00    +0.000 C 
ATOM     19  O   UNL     1      -1.733  10.810  20.548  0.00  0.00    +0.000 OA
ATOM     20  N   UNL     1      -1.952  10.147  18.461  0.00  0.00    +0.000 N 
ATOM     21  C   UNL     1      -2.576  11.085  17.714  0.00  0.00    +0.000 C 
ATOM     22  O   UNL     1      -3.787  11.171  17.574  0.00  0.00    +0.000 OA
ATOM     23  N   UNL     1      -1.753  12.069  17.210  0.00  0.00    +0.000 N 
ATOM     24  C   UNL     1      -0.711  12.650  17.929  0.00  0.00    +0.000 C 
ATOM     25  O   UNL     1      -0.472  13.845  17.807  0.00  0.00    +0.000 OA
ATOM     26  C   UNL     1       1.208  12.132  19.812  0.00  0.00    +0.000 C 
ATOM     27  C   UNL     1       1.657  13.550  20.074  0.00  0.00    +0.000 C 
ATOM     28  C   UNL     1       2.663  13.765  21.232  0.00  0.00    +0.000 C 
ATOM     29  O   UNL     1       0.485  14.273  20.217  0.00  0.00    +0.000 OA
ATOM     30  C   UNL     1      -0.272  13.823  21.342  0.00  0.00    +0.000 C 
ATOM     31  C   UNL     1      -0.143  15.084  22.227  0.00  0.00    +0.000 C 
ATOM     32  C   UNL     1       0.053  12.221  21.941  0.00  0.00    +0.000 C 
ATOM     33  N   UNL     1       0.969  11.303  20.977  0.00  0.00    +0.000 N 
ATOM     34  C   UNL     1       4.076   4.716  17.107  0.00  0.00    +0.000 A 
ATOM     35  H   UNL     1      -1.371   9.592  17.869  0.00  0.00    +0.000 HD
ATOM     36  H   UNL     1      -2.270  12.787  16.720  0.00  0.00    +0.000 HD
ENDROOT
TORSDOF 0
ENDMDL
MODEL 2
REMARK VINA RESULT:      -8.1      4.107      5.800
REMARK  Name = 
REMARK  3 active torsions:
REMARK  status: ('A' for Active; 'I' for Inactive)
REMARK    1  A    between atoms: C_1  and  C_2
REMARK    2  A    between atoms: C_27  and  C_28
REMARK    3  A    between atoms: C_30  and  C_31
REMARK                            x       y       z     vdW  Elec       q    Type
REMARK                         _______ _______ _______ _____ _____    ______ ____
ROOT
ATOM      1  C   UNL     1       2.744   7.528  17.823  0.00  0.00    +0.000 C 
ATOM      2  C   UNL     1       1.958   8.633  18.447  0.00  0.00    +0.000 A 
ATOM      3  C   UNL     1       1.536   9.828  17.831  0.00  0.00    +0.000 A 
ATOM      4  N   UNL     1       0.771  10.590  18.622  0.00  0.00    +0.000 NA
ATOM      5  N   UNL     1       0.780   9.970  19.849  0.00  0.00    +0.000 N 
ATOM      6  C   UNL     1       0.186  10.568  21.041  0.00  0.00    +0.000 A 
ATOM      7  N   UNL     1       0.438  10.088  22.266  0.00  0.00    +0.000 NA
ATOM      8  O   UNL     1      -0.181  10.995  23.161  0.00  0.00    +0.000 OA
ATOM      9  C   UNL     1      -0.857  11.983  22.473  0.00  0.00    +0.000 A 
ATOM     10  C   UNL     1      -1.598  13.134  22.998  0.00  0.00    +0.000 A 
ATOM     11  F   UNL     1      -1.626  13.356  24.320  0.00  0.00    +0.000 F 
ATOM     12  C   UNL     1      -2.360  13.908  22.100  0.00  0.00    +0.000 A 
ATOM     13  C   UNL     1      -2.471  13.184  20.812  0.00  0.00    +0.000 A 
ATOM     14  C   UNL     1      -1.531  12.322  20.227  0.00  0.00    +0.000 A 
ATOM     15  C   UNL     1      -0.720  11.659  21.122  0.00  0.00    +0.000 A 
ATOM     16  C   UNL     1      -3.810  13.205  20.055  0.00  0.00    +0.000 C 
ATOM     17  C   UNL     1      -4.705  14.115  20.874  0.00  0.00    +0.000 C 
ATOM     18  C   UNL     1      -5.096  13.378  22.306  0.00  0.00    +0.000 C 
ATOM     19  O   UNL     1      -5.117  13.836  23.422  0.00  0.00    +0.000 OA
ATOM     20  N   UNL     1      -5.643  12.132  22.133  0.00  0.00    +0.000 N 
ATOM     21  C   UNL     1      -6.855  12.309  21.562  0.00  0.00    +0.000 C 
ATOM     22  O   UNL     1      -7.917  11.965  22.061  0.00  0.00    +0.000 OA
ATOM     23  N   UNL     1      -6.849  13.055  20.403  0.00  0.00    +0.000 N 
ATOM     24  C   UNL     1      -6.067  14.193  20.220  0.00  0.00    +0.000 C 
ATOM     25  O   UNL     1      -6.510  15.149  19.595  0.00  0.00    +0.000 OA
ATOM     26  C   UNL     1      -3.653  15.320  20.854  0.00  0.00    +0.000 C 
ATOM     27  C   UNL     1      -3.914  16.717  20.343  0.00  0.00    +0.000 C 
ATOM     28  C   UNL     1      -2.836  17.787  20.645  0.00  0.00    +0.000 C 
ATOM     29  O   UNL     1      -5.169  17.044  20.828  0.00  0.00    +0.000 OA
ATOM     30  C   UNL     1      -5.185  17.074  22.256  0.00  0.00    +0.000 C 
ATOM     31  C   UNL     1      -5.422  18.589  22.452  0.00  0.00    +0.000 C 
ATOM     32  C   UNL     1      -3.931  16.205  23.093  0.00  0.00    +0.000 C 
ATOM     33  N   UNL     1      -3.052  15.213  22.168  0.00  0.00    +0.000 N 
ATOM     34  C   UNL     1       1.464   8.755  19.736  0.00  0.00    +0.000 A 
ATOM     35  H   UNL     1      -5.093  11.536  21.553  0.00  0.00    +0.000 HD
ATOM     36  H   UNL     1      -7.782  13.223  20.050  0.00  0.00    +0.000 HD
ENDROOT
TORSDOF 0
ENDMDL
MODEL 3
REMARK VINA RESULT:      -7.0      3.440      5.724
REMARK  Name = 
REMARK  3 active torsions:
REMARK  status: ('A' for Active; 'I' for Inactive)
REMARK    1  A    between atoms: C_1  and  C_2
REMARK    2  A    between atoms: C_27  and  C_28
REMARK    3  A    between atoms: C_30  and  C_31
REMARK                            x       y       z     vdW  Elec       q    Type
REMARK                         _______ _______ _______ _____ _____    ______ ____
ROOT
ATOM      1  C   UNL     1       3.633   5.904  19.292  0.00  0.00    +0.000 C 
ATOM      2  C   UNL     1       2.593   6.918  19.638  0.00  0.00    +0.000 A 
ATOM      3  C   UNL     1       1.988   7.118  20.894  0.00  0.00    +0.000 A 
ATOM      4  N   UNL     1       1.152   8.163  20.919  0.00  0.00    +0.000 NA
ATOM      5  N   UNL     1       1.081   8.606  19.620  0.00  0.00    +0.000 N 
ATOM      6  C   UNL     1       0.149   9.644  19.189  0.00  0.00    +0.000 A 
ATOM      7  N   UNL     1      -0.099   9.869  17.892  0.00  0.00    +0.000 NA
ATOM      8  O   UNL     1      -1.142  10.827  17.867  0.00  0.00    +0.000 OA
ATOM      9  C   UNL     1      -1.477  11.224  19.147  0.00  0.00    +0.000 A 
ATOM     10  C   UNL     1      -2.518  12.160  19.582  0.00  0.00    +0.000 A 
ATOM     11  F   UNL     1      -3.335  12.711  18.672  0.00  0.00    +0.000 F 
ATOM     12  C   UNL     1      -2.551  12.544  20.938  0.00  0.00    +0.000 A 
ATOM     13  C   UNL     1      -1.294  12.112  21.593  0.00  0.00    +0.000 A 
ATOM     14  C   UNL     1      -0.517  10.982  21.299  0.00  0.00    +0.000 A 
ATOM     15  C   UNL     1      -0.587  10.556  19.991  0.00  0.00    +0.000 A 
ATOM     16  C   UNL     1      -0.621  13.050  22.610  0.00  0.00    +0.000 C 
ATOM     17  C   UNL     1      -1.563  14.231  22.732  0.00  0.00    +0.000 C 
ATOM     18  C   UNL     1      -1.536  15.118  21.332  0.00  0.00    +0.000 C 
ATOM     19  O   UNL     1      -2.455  15.592  20.709  0.00  0.00    +0.000 OA
ATOM     20  N   UNL     1      -0.271  15.499  20.965  0.00  0.00    +0.000 N 
ATOM     21  C   UNL     1       0.151  16.399  21.881  0.00  0.00    +0.000 C 
ATOM     22  O   UNL     1       0.459  17.555  21.631  0.00  0.00    +0.000 OA
ATOM     23  N   UNL     1       0.080  15.974  23.190  0.00  0.00    +0.000 N 
ATOM     24  C   UNL     1      -0.981  15.233  23.706  0.00  0.00    +0.000 C 
ATOM     25  O   UNL     1      -1.377  15.438  24.847  0.00  0.00    +0.000 OA
ATOM     26  C   UNL     1      -2.824  13.309  23.072  0.00  0.00    +0.000 C 
ATOM     27  C   UNL     1      -3.690  13.410  24.306  0.00  0.00    +0.000 C 
ATOM     28  C   UNL     1      -4.999  12.583  24.313  0.00  0.00    +0.000 C 
ATOM     29  O   UNL     1      -3.893  14.767  24.487  0.00  0.00    +0.000 OA
ATOM     30  C   UNL     1      -4.601  15.341  23.387  0.00  0.00    +0.000 C 
ATOM     31  C   UNL     1      -5.913  15.702  24.121  0.00  0.00    +0.000 C 
ATOM     32  C   UNL     1      -4.579  14.476  21.877  0.00  0.00    +0.000 C 
ATOM     33  N   UNL     1      -3.513  13.264  21.799  0.00  0.00    +0.000 N 
ATOM     34  C   UNL     1       1.991   7.880  18.844  0.00  0.00    +0.000 A 
ATOM     35  H   UNL     1       0.376  14.741  20.930  0.00  0.00    +0.000 HD
ATOM     36  H   UNL     1       0.336  16.701  23.844  0.00  0.00    +0.000 HD
ENDROOT
TORSDOF 0
ENDMDL
MODEL 4
REMARK VINA RESULT:      -7.0      3.662      5.854
REMARK  Name = 
REMARK  3 active torsions:
REMARK  status: ('A' for Active; 'I' for Inactive)
REMARK    1  A    between atoms: C_1  and  C_2
REMARK    2  A    between atoms: C_27  and  C_28
REMARK    3  A    between atoms: C_30  and  C_31
REMARK                            x       y       z     vdW  Elec       q    Type
REMARK                         _______ _______ _______ _____ _____    ______ ____
ROOT
ATOM      1  C   UNL     1       3.506   7.007  17.919  0.00  0.00    +0.000 C 
ATOM      2  C   UNL     1       2.404   7.869  18.443  0.00  0.00    +0.000 A 
ATOM      3  C   UNL     1       2.064   8.085  19.793  0.00  0.00    +0.000 A 
ATOM      4  N   UNL     1       1.083   8.980  19.955  0.00  0.00    +0.000 NA
ATOM      5  N   UNL     1       0.650   9.284  18.686  0.00  0.00    +0.000 N 
ATOM      6  C   UNL     1      -0.523  10.114  18.428  0.00  0.00    +0.000 A 
ATOM      7  N   UNL     1      -1.086  10.175  17.214  0.00  0.00    +0.000 NA
ATOM      8  O   UNL     1      -2.262  10.947  17.381  0.00  0.00    +0.000 OA
ATOM      9  C   UNL     1      -2.372  11.401  18.681  0.00  0.00    +0.000 A 
ATOM     10  C   UNL     1      -3.441  12.195  19.295  0.00  0.00    +0.000 A 
ATOM     11  F   UNL     1      -4.523  12.521  18.572  0.00  0.00    +0.000 F 
ATOM     12  C   UNL     1      -3.243  12.692  20.599  0.00  0.00    +0.000 A 
ATOM     13  C   UNL     1      -1.817  12.531  20.966  0.00  0.00    +0.000 A 
ATOM     14  C   UNL     1      -0.935  11.518  20.561  0.00  0.00    +0.000 A 
ATOM     15  C   UNL     1      -1.215  10.967  19.329  0.00  0.00    +0.000 A 
ATOM     16  C   UNL     1      -1.114  13.654  21.747  0.00  0.00    +0.000 C 
ATOM     17  C   UNL     1      -2.200  14.675  22.021  0.00  0.00    +0.000 C 
ATOM     18  C   UNL     1      -2.640  15.421  20.608  0.00  0.00    +0.000 C 
ATOM     19  O   UNL     1      -3.742  15.682  20.190  0.00  0.00    +0.000 OA
ATOM     20  N   UNL     1      -1.575  15.964  19.937  0.00  0.00    +0.000 N 
ATOM     21  C   UNL     1      -1.128  17.002  20.680  0.00  0.00    +0.000 C 
ATOM     22  O   UNL     1      -1.092  18.164  20.304  0.00  0.00    +0.000 OA
ATOM     23  N   UNL     1      -0.833  16.694  21.991  0.00  0.00    +0.000 N 
ATOM     24  C   UNL     1      -1.605  15.843  22.778  0.00  0.00    +0.000 C 
ATOM     25  O   UNL     1      -1.771  16.087  23.967  0.00  0.00    +0.000 OA
ATOM     26  C   UNL     1      -3.171  13.598  22.694  0.00  0.00    +0.000 C 
ATOM     27  C   UNL     1      -3.750  13.673  24.088  0.00  0.00    +0.000 C 
ATOM     28  C   UNL     1      -4.857  12.650  24.444  0.00  0.00    +0.000 C 
ATOM     29  O   UNL     1      -4.145  14.991  24.238  0.00  0.00    +0.000 OA
ATOM     30  C   UNL     1      -5.168  15.339  23.304  0.00  0.00    +0.000 C 
ATOM     31  C   UNL     1      -6.329  15.550  24.302  0.00  0.00    +0.000 C 
ATOM     32  C   UNL     1      -5.325  14.353  21.879  0.00  0.00    +0.000 C 
ATOM     33  N   UNL     1      -4.105  13.325  21.620  0.00  0.00    +0.000 N 
ATOM     34  C   UNL     1       1.481   8.645  17.760  0.00  0.00    +0.000 A 
ATOM     35  H   UNL     1      -0.827  15.321  19.794  0.00  0.00    +0.000 HD
ATOM     36  H   UNL     1      -0.573  17.510  22.527  0.00  0.00    +0.000 HD
ENDROOT
TORSDOF 0
ENDMDL
MODEL 5
REMARK VINA RESULT:      -6.8      5.282      7.145
REMARK  Name = 
REMARK  3 active torsions:
REMARK  status: ('A' for Active; 'I' for Inactive)
REMARK    1  A    between atoms: C_1  and  C_2
REMARK    2  A    between atoms: C_27  and  C_28
REMARK    3  A    between atoms: C_30  and  C_31
REMARK                            x       y       z     vdW  Elec       q    Type
REMARK                         _______ _______ _______ _____ _____    ______ ____
ROOT
ATOM      1  C   UNL     1       5.215  15.538  18.375  0.00  0.00    +0.000 C 
ATOM      2  C   UNL     1       3.912  15.300  19.064  0.00  0.00    +0.000 A 
ATOM      3  C   UNL     1       3.004  16.276  19.522  0.00  0.00    +0.000 A 
ATOM      4  N   UNL     1       1.876  15.756  20.022  0.00  0.00    +0.000 NA
ATOM      5  N   UNL     1       2.072  14.395  20.030  0.00  0.00    +0.000 N 
ATOM      6  C   UNL     1       1.132  13.465  20.648  0.00  0.00    +0.000 A 
ATOM      7  N   UNL     1       1.462  12.190  20.888  0.00  0.00    +0.000 NA
ATOM      8  O   UNL     1       0.374  11.647  21.615  0.00  0.00    +0.000 OA
ATOM      9  C   UNL     1      -0.636  12.578  21.756  0.00  0.00    +0.000 A 
ATOM     10  C   UNL     1      -1.915  12.454  22.463  0.00  0.00    +0.000 A 
ATOM     11  F   UNL     1      -2.194  11.327  23.134  0.00  0.00    +0.000 F 
ATOM     12  C   UNL     1      -2.866  13.485  22.316  0.00  0.00    +0.000 A 
ATOM     13  C   UNL     1      -2.450  14.370  21.203  0.00  0.00    +0.000 A 
ATOM     14  C   UNL     1      -1.145  14.683  20.796  0.00  0.00    +0.000 A 
ATOM     15  C   UNL     1      -0.209  13.705  21.052  0.00  0.00    +0.000 A 
ATOM     16  C   UNL     1      -3.520  14.911  20.239  0.00  0.00    +0.000 C 
ATOM     17  C   UNL     1      -4.836  14.407  20.797  0.00  0.00    +0.000 C 
ATOM     18  C   UNL     1      -4.943  12.767  20.590  0.00  0.00    +0.000 C 
ATOM     19  O   UNL     1      -5.316  11.920  21.366  0.00  0.00    +0.000 OA
ATOM     20  N   UNL     1      -4.749  12.378  19.290  0.00  0.00    +0.000 N 
ATOM     21  C   UNL     1      -5.811  12.824  18.582  0.00  0.00    +0.000 C 
ATOM     22  O   UNL     1      -6.590  12.109  17.970  0.00  0.00    +0.000 OA
ATOM     23  N   UNL     1      -6.066  14.174  18.704  0.00  0.00    +0.000 N 
ATOM     24  C   UNL     1      -5.966  14.874  19.904  0.00  0.00    +0.000 C 
ATOM     25  O   UNL     1      -6.768  15.762  20.166  0.00  0.00    +0.000 OA
ATOM     26  C   UNL     1      -4.559  15.016  22.249  0.00  0.00    +0.000 C 
ATOM     27  C   UNL     1      -5.445  15.992  22.987  0.00  0.00    +0.000 C 
ATOM     28  C   UNL     1      -5.111  16.258  24.475  0.00  0.00    +0.000 C 
ATOM     29  O   UNL     1      -6.733  15.526  22.784  0.00  0.00    +0.000 OA
ATOM     30  C   UNL     1      -6.915  14.229  23.355  0.00  0.00    +0.000 C 
ATOM     31  C   UNL     1      -7.916  14.607  24.470  0.00  0.00    +0.000 C 
ATOM     32  C   UNL     1      -5.490  13.277  23.657  0.00  0.00    +0.000 C 
ATOM     33  N   UNL     1      -4.133  13.844  22.988  0.00  0.00    +0.000 N 
ATOM     34  C   UNL     1       3.291  14.110  19.406  0.00  0.00    +0.000 A 
ATOM     35  H   UNL     1      -3.913  12.743  18.888  0.00  0.00    +0.000 HD
ATOM     36  H   UNL     1      -6.908  14.450  18.218  0.00  0.00    +0.000 HD
ENDROOT
TORSDOF 0
ENDMDL
MODEL 6
REMARK VINA RESULT:      -6.7      4.763      6.884
REMARK  Name = 
REMARK  3 active torsions:
REMARK  status: ('A' for Active; 'I' for Inactive)
REMARK    1  A    between atoms: C_1  and  C_2
REMARK    2  A    between atoms: C_27  and  C_28
REMARK    3  A    between atoms: C_30  and  C_31
REMARK                            x       y       z     vdW  Elec       q    Type
REMARK                         _______ _______ _______ _____ _____    ______ ____
ROOT
ATOM      1  C   UNL     1       2.405   7.686  18.197  0.00  0.00    +0.000 C 
ATOM      2  C   UNL     1       1.497   8.810  18.571  0.00  0.00    +0.000 A 
ATOM      3  C   UNL     1       0.396   9.292  17.836  0.00  0.00    +0.000 A 
ATOM      4  N   UNL     1      -0.282  10.257  18.470  0.00  0.00    +0.000 NA
ATOM      5  N   UNL     1       0.448  10.535  19.602  0.00  0.00    +0.000 N 
ATOM      6  C   UNL     1       0.129  11.644  20.495  0.00  0.00    +0.000 A 
ATOM      7  N   UNL     1       0.994  12.066  21.427  0.00  0.00    +0.000 NA
ATOM      8  O   UNL     1       0.409  13.228  21.987  0.00  0.00    +0.000 OA
ATOM      9  C   UNL     1      -0.834  13.468  21.437  0.00  0.00    +0.000 A 
ATOM     10  C   UNL     1      -1.762  14.574  21.697  0.00  0.00    +0.000 A 
ATOM     11  F   UNL     1      -1.403  15.556  22.536  0.00  0.00    +0.000 F 
ATOM     12  C   UNL     1      -3.057  14.507  21.143  0.00  0.00    +0.000 A 
ATOM     13  C   UNL     1      -3.294  13.136  20.632  0.00  0.00    +0.000 A 
ATOM     14  C   UNL     1      -2.354  12.248  20.090  0.00  0.00    +0.000 A 
ATOM     15  C   UNL     1      -1.069  12.405  20.563  0.00  0.00    +0.000 A 
ATOM     16  C   UNL     1      -4.674  12.489  20.839  0.00  0.00    +0.000 C 
ATOM     17  C   UNL     1      -5.513  13.566  21.497  0.00  0.00    +0.000 C 
ATOM     18  C   UNL     1      -4.985  13.821  23.047  0.00  0.00    +0.000 C 
ATOM     19  O   UNL     1      -4.800  14.861  23.632  0.00  0.00    +0.000 OA
ATOM     20  N   UNL     1      -4.940  12.671  23.792  0.00  0.00    +0.000 N 
ATOM     21  C   UNL     1      -6.218  12.278  23.988  0.00  0.00    +0.000 C 
ATOM     22  O   UNL     1      -6.752  12.163  25.081  0.00  0.00    +0.000 OA
ATOM     23  N   UNL     1      -6.967  12.141  22.838  0.00  0.00    +0.000 N 
ATOM     24  C   UNL     1      -6.901  13.023  21.762  0.00  0.00    +0.000 C 
ATOM     25  O   UNL     1      -7.916  13.313  21.142  0.00  0.00    +0.000 OA
ATOM     26  C   UNL     1      -5.196  14.641  20.356  0.00  0.00    +0.000 C 
ATOM     27  C   UNL     1      -6.218  15.368  19.514  0.00  0.00    +0.000 C 
ATOM     28  C   UNL     1      -5.703  16.540  18.643  0.00  0.00    +0.000 C 
ATOM     29  O   UNL     1      -7.214  15.735  20.402  0.00  0.00    +0.000 OA
ATOM     30  C   UNL     1      -6.721  16.636  21.396  0.00  0.00    +0.000 C 
ATOM     31  C   UNL     1      -7.518  17.895  20.981  0.00  0.00    +0.000 C 
ATOM     32  C   UNL     1      -5.004  16.664  21.675  0.00  0.00    +0.000 C 
ATOM     33  N   UNL     1      -4.179  15.456  20.988  0.00  0.00    +0.000 N 
ATOM     34  C   UNL     1       1.508   9.626  19.691  0.00  0.00    +0.000 A 
ATOM     35  H   UNL     1      -4.435  11.933  23.350  0.00  0.00    +0.000 HD
ATOM     36  H   UNL     1      -7.933  11.916  23.035  0.00  0.00    +0.000 HD
ENDROOT
TORSDOF 0
ENDMDL
MODEL 7
REMARK VINA RESULT:      -6.5      4.147      7.739
REMARK  Name = 
REMARK  3 active torsions:
REMARK  status: ('A' for Active; 'I' for Inactive)
REMARK    1  A    between atoms: C_1  and  C_2
REMARK    2  A    between atoms: C_27  and  C_28
REMARK    3  A    between atoms: C_30  and  C_31
REMARK                            x       y       z     vdW  Elec       q    Type
REMARK                         _______ _______ _______ _____ _____    ______ ____
ROOT
ATOM      1  C   UNL     1       9.325  17.181  22.412  0.00  0.00    +0.000 C 
ATOM      2  C   UNL     1       8.087  16.568  21.847  0.00  0.00    +0.000 A 
ATOM      3  C   UNL     1       7.809  15.194  21.702  0.00  0.00    +0.000 A 
ATOM      4  N   UNL     1       6.576  14.949  21.243  0.00  0.00    +0.000 NA
ATOM      5  N   UNL     1       6.046  16.180  20.939  0.00  0.00    +0.000 N 
ATOM      6  C   UNL     1       4.764  16.343  20.260  0.00  0.00    +0.000 A 
ATOM      7  N   UNL     1       4.394  17.517  19.733  0.00  0.00    +0.000 NA
ATOM      8  O   UNL     1       3.183  17.258  19.044  0.00  0.00    +0.000 OA
ATOM      9  C   UNL     1       2.794  15.943  19.210  0.00  0.00    +0.000 A 
ATOM     10  C   UNL     1       1.636  15.244  18.647  0.00  0.00    +0.000 A 
ATOM     11  F   UNL     1       0.820  15.889  17.800  0.00  0.00    +0.000 F 
ATOM     12  C   UNL     1       1.348  13.942  19.107  0.00  0.00    +0.000 A 
ATOM     13  C   UNL     1       2.155  13.670  20.319  0.00  0.00    +0.000 A 
ATOM     14  C   UNL     1       3.435  14.155  20.626  0.00  0.00    +0.000 A 
ATOM     15  C   UNL     1       3.737  15.379  20.072  0.00  0.00    +0.000 A 
ATOM     16  C   UNL     1       1.511  12.907  21.490  0.00  0.00    +0.000 C 
ATOM     17  C   UNL     1       0.125  12.540  20.999  0.00  0.00    +0.000 C 
ATOM     18  C   UNL     1      -0.809  13.904  20.884  0.00  0.00    +0.000 C 
ATOM     19  O   UNL     1      -1.561  14.245  20.003  0.00  0.00    +0.000 OA
ATOM     20  N   UNL     1      -0.846  14.627  22.048  0.00  0.00    +0.000 N 
ATOM     21  C   UNL     1      -1.531  13.888  22.949  0.00  0.00    +0.000 C 
ATOM     22  O   UNL     1      -2.568  14.237  23.492  0.00  0.00    +0.000 OA
ATOM     23  N   UNL     1      -1.057  12.606  23.131  0.00  0.00    +0.000 N 
ATOM     24  C   UNL     1      -0.608  11.793  22.093  0.00  0.00    +0.000 C 
ATOM     25  O   UNL     1      -0.841  10.591  22.110  0.00  0.00    +0.000 OA
ATOM     26  C   UNL     1       0.679  11.834  19.676  0.00  0.00    +0.000 C 
ATOM     27  C   UNL     1       0.422  10.405  19.258  0.00  0.00    +0.000 C 
ATOM     28  C   UNL     1       0.850  10.006  17.825  0.00  0.00    +0.000 C 
ATOM     29  O   UNL     1      -0.923  10.198  19.512  0.00  0.00    +0.000 OA
ATOM     30  C   UNL     1      -1.743  11.057  18.717  0.00  0.00    +0.000 C 
ATOM     31  C   UNL     1      -2.405   9.983  17.825  0.00  0.00    +0.000 C 
ATOM     32  C   UNL     1      -1.007  12.494  18.066  0.00  0.00    +0.000 C 
ATOM     33  N   UNL     1       0.446  12.854  18.674  0.00  0.00    +0.000 N 
ATOM     34  C   UNL     1       6.944  17.172  21.347  0.00  0.00    +0.000 A 
ATOM     35  H   UNL     1       0.058  14.833  22.415  0.00  0.00    +0.000 HD
ATOM     36  H   UNL     1      -1.639  12.068  23.758  0.00  0.00    +0.000 HD
ENDROOT
TORSDOF 0
ENDMDL
MODEL 8
REMARK VINA RESULT:      -6.4      4.481      8.026
REMARK  Name = 
REMARK  3 active torsions:
REMARK  status: ('A' for Active; 'I' for Inactive)
REMARK    1  A    between atoms: C_1  and  C_2
REMARK    2  A    between atoms: C_27  and  C_28
REMARK    3  A    between atoms: C_30  and  C_31
REMARK                            x       y       z     vdW  Elec       q    Type
REMARK                         _______ _______ _______ _____ _____    ______ ____
ROOT
ATOM      1  C   UNL     1      10.658  16.803  22.289  0.00  0.00    +0.000 C 
ATOM      2  C   UNL     1       9.346  16.334  21.755  0.00  0.00    +0.000 A 
ATOM      3  C   UNL     1       8.788  15.046  21.884  0.00  0.00    +0.000 A 
ATOM      4  N   UNL     1       7.555  14.950  21.373  0.00  0.00    +0.000 NA
ATOM      5  N   UNL     1       7.315  16.158  20.763  0.00  0.00    +0.000 N 
ATOM      6  C   UNL     1       6.131  16.410  19.947  0.00  0.00    +0.000 A 
ATOM      7  N   UNL     1       6.046  17.480  19.146  0.00  0.00    +0.000 NA
ATOM      8  O   UNL     1       4.842  17.313  18.418  0.00  0.00    +0.000 OA
ATOM      9  C   UNL     1       4.174  16.176  18.826  0.00  0.00    +0.000 A 
ATOM     10  C   UNL     1       2.921  15.609  18.319  0.00  0.00    +0.000 A 
ATOM     11  F   UNL     1       2.303  16.190  17.280  0.00  0.00    +0.000 F 
ATOM     12  C   UNL     1       2.340  14.532  19.020  0.00  0.00    +0.000 A 
ATOM     13  C   UNL     1       3.011  14.392  20.333  0.00  0.00    +0.000 A 
ATOM     14  C   UNL     1       4.349  14.672  20.648  0.00  0.00    +0.000 A 
ATOM     15  C   UNL     1       4.932  15.651  19.874  0.00  0.00    +0.000 A 
ATOM     16  C   UNL     1       2.164  14.062  21.575  0.00  0.00    +0.000 C 
ATOM     17  C   UNL     1       0.756  13.873  21.045  0.00  0.00    +0.000 C 
ATOM     18  C   UNL     1       0.142  15.331  20.550  0.00  0.00    +0.000 C 
ATOM     19  O   UNL     1      -0.477  15.601  19.549  0.00  0.00    +0.000 OA
ATOM     20  N   UNL     1       0.205  16.295  21.523  0.00  0.00    +0.000 N 
ATOM     21  C   UNL     1      -0.664  15.934  22.493  0.00  0.00    +0.000 C 
ATOM     22  O   UNL     1      -1.628  16.597  22.848  0.00  0.00    +0.000 OA
ATOM     23  N   UNL     1      -0.484  14.661  22.991  0.00  0.00    +0.000 N 
ATOM     24  C   UNL     1      -0.171  13.558  22.200  0.00  0.00    +0.000 C 
ATOM     25  O   UNL     1      -0.655  12.462  22.453  0.00  0.00    +0.000 OA
ATOM     26  C   UNL     1       1.210  12.786  19.964  0.00  0.00    +0.000 C 
ATOM     27  C   UNL     1       0.673  11.379  19.841  0.00  0.00    +0.000 C 
ATOM     28  C   UNL     1       1.074  10.584  18.574  0.00  0.00    +0.000 C 
ATOM     29  O   UNL     1      -0.696  11.506  20.005  0.00  0.00    +0.000 OA
ATOM     30  C   UNL     1      -1.274  12.303  18.970  0.00  0.00    +0.000 C 
ATOM     31  C   UNL     1      -2.107  11.205  18.271  0.00  0.00    +0.000 C 
ATOM     32  C   UNL     1      -0.218  13.376  18.097  0.00  0.00    +0.000 C 
ATOM     33  N   UNL     1       1.248  13.573  18.748  0.00  0.00    +0.000 N 
ATOM     34  C   UNL     1       8.384  17.020  21.030  0.00  0.00    +0.000 A 
ATOM     35  H   UNL     1       1.114  16.397  21.921  0.00  0.00    +0.000 HD
ATOM     36  H   UNL     1      -1.197  14.407  23.661  0.00  0.00    +0.000 HD
ENDROOT
TORSDOF 0
ENDMDL
MODEL 9
REMARK VINA RESULT:      -6.3      4.366      7.192
REMARK  Name = 
REMARK  3 active torsions:
REMARK  status: ('A' for Active; 'I' for Inactive)
REMARK    1  A    between atoms: C_1  and  C_2
REMARK    2  A    between atoms: C_27  and  C_28
REMARK    3  A    between atoms: C_30  and  C_31
REMARK                            x       y       z     vdW  Elec       q    Type
REMARK                         _______ _______ _______ _____ _____    ______ ____
ROOT
ATOM      1  C   UNL     1       2.629   8.170  17.545  0.00  0.00    +0.000 C 
ATOM      2  C   UNL     1       1.810   9.352  17.946  0.00  0.00    +0.000 A 
ATOM      3  C   UNL     1       0.405   9.424  18.022  0.00  0.00    +0.000 A 
ATOM      4  N   UNL     1      -0.040  10.593  18.499  0.00  0.00    +0.000 NA
ATOM      5  N   UNL     1       1.076  11.386  18.624  0.00  0.00    +0.000 N 
ATOM      6  C   UNL     1       1.003  12.803  18.970  0.00  0.00    +0.000 A 
ATOM      7  N   UNL     1       2.058  13.615  18.822  0.00  0.00    +0.000 NA
ATOM      8  O   UNL     1       1.577  14.916  19.112  0.00  0.00    +0.000 OA
ATOM      9  C   UNL     1       0.251  14.876  19.495  0.00  0.00    +0.000 A 
ATOM     10  C   UNL     1      -0.644  15.984  19.845  0.00  0.00    +0.000 A 
ATOM     11  F   UNL     1      -0.201  17.246  19.755  0.00  0.00    +0.000 F 
ATOM     12  C   UNL     1      -1.913  15.679  20.380  0.00  0.00    +0.000 A 
ATOM     13  C   UNL     1      -1.949  14.244  20.749  0.00  0.00    +0.000 A 
ATOM     14  C   UNL     1      -1.279  13.180  20.127  0.00  0.00    +0.000 A 
ATOM     15  C   UNL     1      -0.094  13.523  19.512  0.00  0.00    +0.000 A 
ATOM     16  C   UNL     1      -2.652  13.824  22.051  0.00  0.00    +0.000 C 
ATOM     17  C   UNL     1      -3.239  15.107  22.606  0.00  0.00    +0.000 C 
ATOM     18  C   UNL     1      -2.022  16.097  23.141  0.00  0.00    +0.000 C 
ATOM     19  O   UNL     1      -1.875  17.284  22.982  0.00  0.00    +0.000 OA
ATOM     20  N   UNL     1      -1.186  15.479  24.035  0.00  0.00    +0.000 N 
ATOM     21  C   UNL     1      -1.900  15.271  25.164  0.00  0.00    +0.000 C 
ATOM     22  O   UNL     1      -1.624  15.737  26.259  0.00  0.00    +0.000 OA
ATOM     23  N   UNL     1      -3.086  14.591  24.984  0.00  0.00    +0.000 N 
ATOM     24  C   UNL     1      -3.946  14.807  23.910  0.00  0.00    +0.000 C 
ATOM     25  O   UNL     1      -5.159  14.768  24.077  0.00  0.00    +0.000 OA
ATOM     26  C   UNL     1      -4.012  15.450  21.249  0.00  0.00    +0.000 C 
ATOM     27  C   UNL     1      -5.499  15.677  21.107  0.00  0.00    +0.000 C 
ATOM     28  C   UNL     1      -5.997  16.236  19.752  0.00  0.00    +0.000 C 
ATOM     29  O   UNL     1      -5.841  16.467  22.191  0.00  0.00    +0.000 OA
ATOM     30  C   UNL     1      -5.182  17.734  22.143  0.00  0.00    +0.000 C 
ATOM     31  C   UNL     1      -6.422  18.630  21.916  0.00  0.00    +0.000 C 
ATOM     32  C   UNL     1      -3.747  17.857  21.168  0.00  0.00    +0.000 C 
ATOM     33  N   UNL     1      -3.145  16.447  20.655  0.00  0.00    +0.000 N 
ATOM     34  C   UNL     1       2.210  10.621  18.332  0.00  0.00    +0.000 A 
ATOM     35  H   UNL     1      -0.830  14.607  23.708  0.00  0.00    +0.000 HD
ATOM     36  H   UNL     1      -3.620  14.520  25.839  0.00  0.00    +0.000 HD
ENDROOT
TORSDOF 0
ENDMDL
