MODEL 1
REMARK VINA RESULT:      -8.1      0.000      0.000
REMARK  Name = 
REMARK  7 active torsions:
REMARK  status: ('A' for Active; 'I' for Inactive)
REMARK    1  A    between atoms: C_2  and  C_23
REMARK    2  A    between atoms: N_3  and  N_4
REMARK    3  A    between atoms: C_5  and  C_6
REMARK    4  A    between atoms: C_5  and  N_15
REMARK    5  A    between atoms: C_6  and  O_7
REMARK    6  A    between atoms: O_7  and  C_8
REMARK    7  A    between atoms: C_16  and  C_17
REMARK                            x       y       z     vdW  Elec       q    Type
REMARK                         _______ _______ _______ _____ _____    ______ ____
ROOT
ATOM      1  N   UNL     1       6.716   6.791  16.818  0.00  0.00    +0.000 NA
ATOM      2  C   UNL     1       5.481   6.493  17.088  0.00  0.00    +0.000 C 
ENDROOT
BRANCH   1   5
ATOM      3  O   UNL     1       8.509   7.308  18.812  0.00  0.00    +0.000 OA
ATOM      4  C   UNL     1       8.067   8.221  18.116  0.00  0.00    +0.000 C 
ATOM      5  N   UNL     1       7.156   8.054  17.085  0.00  0.00    +0.000 N 
ATOM      6  H   UNL     1       6.789   8.803  16.509  0.00  0.00    +0.000 HD
BRANCH   4   7
ATOM      7  C   UNL     1       8.524   9.607  18.406  0.00  0.00    +0.000 A 
ATOM      8  C   UNL     1       8.115  10.606  17.520  0.00  0.00    +0.000 A 
ATOM      9  C   UNL     1       8.573  11.895  17.728  0.00  0.00    +0.000 A 
ATOM     10  N   UNL     1       9.393  12.229  18.744  0.00  0.00    +0.000 NA
ATOM     11  C   UNL     1       9.787  11.238  19.574  0.00  0.00    +0.000 A 
ATOM     12  C   UNL     1       9.380   9.921  19.451  0.00  0.00    +0.000 A 
ENDBRANCH   4   7
ENDBRANCH   1   5
BRANCH   2  13
ATOM     13  N   UNL     1       4.664   7.405  17.733  0.00  0.00    +0.000 NA
ATOM     14  C   UNL     1       3.382   7.297  17.623  0.00  0.00    +0.000 C 
BRANCH  14  15
ATOM     15  C   UNL     1       2.451   8.178  18.346  0.00  0.00    +0.000 A 
ATOM     16  C   UNL     1       1.959   9.361  17.797  0.00  0.00    +0.000 A 
ATOM     17  C   UNL     1       1.104  10.152  18.560  0.00  0.00    +0.000 A 
ATOM     18  C   UNL     1       0.775   9.727  19.840  0.00  0.00    +0.000 A 
ATOM     19  N   UNL     1       1.234   8.584  20.394  0.00  0.00    +0.000 NA
ATOM     20  C   UNL     1       2.064   7.833  19.633  0.00  0.00    +0.000 A 
ENDBRANCH  14  15
ENDBRANCH   2  13
BRANCH   2  21
ATOM     21  C   UNL     1       5.035   5.067  16.716  0.00  0.00    +0.000 C 
BRANCH  21  22
ATOM     22  O   UNL     1       5.047   4.168  17.813  0.00  0.00    +0.000 OA
BRANCH  22  23
ATOM     23  C   UNL     1       3.842   3.649  18.228  0.00  0.00    +0.000 A 
ATOM     24  C   UNL     1       2.749   4.200  17.532  0.00  0.00    +0.000 A 
ATOM     25  C   UNL     1       1.432   3.827  17.821  0.00  0.00    +0.000 A 
ATOM     26  C   UNL     1       1.183   2.893  18.820  0.00  0.00    +0.000 A 
ATOM     27  C   UNL     1       2.247   2.348  19.530  0.00  0.00    +0.000 A 
ATOM     28  C   UNL     1       3.571   2.725  19.254  0.00  0.00    +0.000 A 
ATOM     29 CL   UNL     1       4.738   2.016  20.314  0.00  0.00    +0.000 Cl
ENDBRANCH  22  23
ENDBRANCH  21  22
ENDBRANCH   2  21
TORSDOF 7
ENDMDL
MODEL 2
REMARK VINA RESULT:      -7.9      3.001      6.797
REMARK  Name = 
REMARK  7 active torsions:
REMARK  status: ('A' for Active; 'I' for Inactive)
REMARK    1  A    between atoms: C_2  and  C_23
REMARK    2  A    between atoms: N_3  and  N_4
REMARK    3  A    between atoms: C_5  and  C_6
REMARK    4  A    between atoms: C_5  and  N_15
REMARK    5  A    between atoms: C_6  and  O_7
REMARK    6  A    between atoms: O_7  and  C_8
REMARK    7  A    between atoms: C_16  and  C_17
REMARK                            x       y       z     vdW  Elec       q    Type
REMARK                         _______ _______ _______ _____ _____    ______ ____
ROOT
ATOM      1  N   UNL     1       2.308   8.790  18.328  0.00  0.00    +0.000 NA
ATOM      2  C   UNL     1       2.802   7.605  18.133  0.00  0.00    +0.000 C 
ENDROOT
BRANCH   1   5
ATOM      3  O   UNL     1       1.267  11.246  18.915  0.00  0.00    +0.000 OA
ATOM      4  C   UNL     1       1.064  10.287  19.657  0.00  0.00    +0.000 C 
ATOM      5  N   UNL     1       1.551   9.007  19.441  0.00  0.00    +0.000 N 
ATOM      6  H   UNL     1       1.386   8.214  20.050  0.00  0.00    +0.000 HD
BRANCH   4   7
ATOM      7  C   UNL     1       0.255  10.511  20.886  0.00  0.00    +0.000 A 
ATOM      8  C   UNL     1       0.327   9.530  21.878  0.00  0.00    +0.000 A 
ATOM      9  C   UNL     1      -0.460   9.680  23.006  0.00  0.00    +0.000 A 
ATOM     10  N   UNL     1      -1.292  10.725  23.190  0.00  0.00    +0.000 NA
ATOM     11  C   UNL     1      -1.354  11.647  22.204  0.00  0.00    +0.000 A 
ATOM     12  C   UNL     1      -0.604  11.588  21.043  0.00  0.00    +0.000 A 
ENDBRANCH   4   7
ENDBRANCH   1   5
BRANCH   2  13
ATOM     13  N   UNL     1       2.654   6.618  19.092  0.00  0.00    +0.000 NA
ATOM     14  C   UNL     1       1.968   5.560  18.812  0.00  0.00    +0.000 C 
BRANCH  14  15
ATOM     15  C   UNL     1       1.837   4.434  19.750  0.00  0.00    +0.000 A 
ATOM     16  C   UNL     1       1.256   3.220  19.387  0.00  0.00    +0.000 A 
ATOM     17  C   UNL     1       1.145   2.215  20.345  0.00  0.00    +0.000 A 
ATOM     18  C   UNL     1       1.620   2.464  21.625  0.00  0.00    +0.000 A 
ATOM     19  N   UNL     1       2.191   3.629  22.001  0.00  0.00    +0.000 NA
ATOM     20  C   UNL     1       2.287   4.590  21.053  0.00  0.00    +0.000 A 
ENDBRANCH  14  15
ENDBRANCH   2  13
BRANCH   2  21
ATOM     21  C   UNL     1       3.604   7.413  16.833  0.00  0.00    +0.000 C 
BRANCH  21  22
ATOM     22  O   UNL     1       4.419   6.251  16.840  0.00  0.00    +0.000 OA
BRANCH  22  23
ATOM     23  C   UNL     1       5.597   6.301  17.549  0.00  0.00    +0.000 A 
ATOM     24  C   UNL     1       6.430   7.360  17.138  0.00  0.00    +0.000 A 
ATOM     25  C   UNL     1       7.688   7.569  17.715  0.00  0.00    +0.000 A 
ATOM     26  C   UNL     1       8.138   6.718  18.717  0.00  0.00    +0.000 A 
ATOM     27  C   UNL     1       7.337   5.657  19.127  0.00  0.00    +0.000 A 
ATOM     28  C   UNL     1       6.079   5.433  18.545  0.00  0.00    +0.000 A 
ATOM     29 CL   UNL     1       5.288   4.006  19.116  0.00  0.00    +0.000 Cl
ENDBRANCH  22  23
ENDBRANCH  21  22
ENDBRANCH   2  21
TORSDOF 7
ENDMDL
MODEL 3
REMARK VINA RESULT:      -7.8      3.641      6.820
REMARK  Name = 
REMARK  7 active torsions:
REMARK  status: ('A' for Active; 'I' for Inactive)
REMARK    1  A    between atoms: C_2  and  C_23
REMARK    2  A    between atoms: N_3  and  N_4
REMARK    3  A    between atoms: C_5  and  C_6
REMARK    4  A    between atoms: C_5  and  N_15
REMARK    5  A    between atoms: C_6  and  O_7
REMARK    6  A    between atoms: O_7  and  C_8
REMARK    7  A    between atoms: C_16  and  C_17
REMARK                            x       y       z     vdW  Elec       q    Type
REMARK                         _______ _______ _______ _____ _____    ______ ____
ROOT
ATOM      1  N   UNL     1       2.244   8.849  18.377  0.00  0.00    +0.000 NA
ATOM      2  C   UNL     1       2.781   7.679  18.205  0.00  0.00    +0.000 C 
ENDROOT
BRANCH   1   5
ATOM      3  O   UNL     1       1.408  11.340  19.120  0.00  0.00    +0.000 OA
ATOM      4  C   UNL     1       1.077  10.350  19.770  0.00  0.00    +0.000 C 
ATOM      5  N   UNL     1       1.454   9.050  19.470  0.00  0.00    +0.000 N 
ATOM      6  H   UNL     1       1.184   8.232  20.003  0.00  0.00    +0.000 HD
BRANCH   4   7
ATOM      7  C   UNL     1       0.230  10.555  20.976  0.00  0.00    +0.000 A 
ATOM      8  C   UNL     1       0.320   9.592  21.983  0.00  0.00    +0.000 A 
ATOM      9  C   UNL     1      -0.499   9.722  23.090  0.00  0.00    +0.000 A 
ATOM     10  N   UNL     1      -1.379  10.732  23.240  0.00  0.00    +0.000 NA
ATOM     11  C   UNL     1      -1.458  11.638  22.240  0.00  0.00    +0.000 A 
ATOM     12  C   UNL     1      -0.678  11.596  21.097  0.00  0.00    +0.000 A 
ENDBRANCH   4   7
ENDBRANCH   1   5
BRANCH   2  13
ATOM     13  N   UNL     1       2.642   6.695  19.169  0.00  0.00    +0.000 NA
ATOM     14  C   UNL     1       2.371   5.486  18.807  0.00  0.00    +0.000 C 
BRANCH  14  15
ATOM     15  C   UNL     1       2.290   4.373  19.766  0.00  0.00    +0.000 A 
ATOM     16  C   UNL     1       1.124   4.071  20.468  0.00  0.00    +0.000 A 
ATOM     17  C   UNL     1       1.142   3.019  21.380  0.00  0.00    +0.000 A 
ATOM     18  C   UNL     1       2.324   2.311  21.552  0.00  0.00    +0.000 A 
ATOM     19  N   UNL     1       3.465   2.580  20.882  0.00  0.00    +0.000 NA
ATOM     20  C   UNL     1       3.423   3.608  20.002  0.00  0.00    +0.000 A 
ENDBRANCH  14  15
ENDBRANCH   2  13
BRANCH   2  21
ATOM     21  C   UNL     1       3.620   7.502  16.927  0.00  0.00    +0.000 C 
BRANCH  21  22
ATOM     22  O   UNL     1       5.017   7.443  17.172  0.00  0.00    +0.000 OA
BRANCH  22  23
ATOM     23  C   UNL     1       5.702   6.348  16.700  0.00  0.00    +0.000 A 
ATOM     24  C   UNL     1       5.118   5.805  15.539  0.00  0.00    +0.000 A 
ATOM     25  C   UNL     1       5.647   4.669  14.915  0.00  0.00    +0.000 A 
ATOM     26  C   UNL     1       6.773   4.051  15.445  0.00  0.00    +0.000 A 
ATOM     27  C   UNL     1       7.355   4.562  16.601  0.00  0.00    +0.000 A 
ATOM     28  C   UNL     1       6.825   5.694  17.239  0.00  0.00    +0.000 A 
ATOM     29 CL   UNL     1       7.627   6.107  18.714  0.00  0.00    +0.000 Cl
ENDBRANCH  22  23
ENDBRANCH  21  22
ENDBRANCH   2  21
TORSDOF 7
ENDMDL
MODEL 4
REMARK VINA RESULT:      -7.8      0.714      1.345
REMARK  Name = 
REMARK  7 active torsions:
REMARK  status: ('A' for Active; 'I' for Inactive)
REMARK    1  A    between atoms: C_2  and  C_23
REMARK    2  A    between atoms: N_3  and  N_4
REMARK    3  A    between atoms: C_5  and  C_6
REMARK    4  A    between atoms: C_5  and  N_15
REMARK    5  A    between atoms: C_6  and  O_7
REMARK    6  A    between atoms: O_7  and  C_8
REMARK    7  A    between atoms: C_16  and  C_17
REMARK                            x       y       z     vdW  Elec       q    Type
REMARK                         _______ _______ _______ _____ _____    ______ ____
ROOT
ATOM      1  N   UNL     1       6.494   6.343  16.669  0.00  0.00    +0.000 NA
ATOM      2  C   UNL     1       5.217   6.114  16.721  0.00  0.00    +0.000 C 
ENDROOT
BRANCH   1   5
ATOM      3  O   UNL     1       8.236   6.968  18.677  0.00  0.00    +0.000 OA
ATOM      4  C   UNL     1       7.821   7.840  17.916  0.00  0.00    +0.000 C 
ATOM      5  N   UNL     1       6.937   7.617  16.872  0.00  0.00    +0.000 N 
ATOM      6  H   UNL     1       6.592   8.332  16.242  0.00  0.00    +0.000 HD
BRANCH   4   7
ATOM      7  C   UNL     1       8.282   9.238  18.135  0.00  0.00    +0.000 A 
ATOM      8  C   UNL     1       9.138   9.459  19.216  0.00  0.00    +0.000 A 
ATOM      9  C   UNL     1       9.535  10.757  19.482  0.00  0.00    +0.000 A 
ATOM     10  N   UNL     1       9.134  11.815  18.748  0.00  0.00    +0.000 NA
ATOM     11  C   UNL     1       8.290  11.571  17.721  0.00  0.00    +0.000 A 
ATOM     12  C   UNL     1       7.841  10.309  17.373  0.00  0.00    +0.000 A 
ENDBRANCH   4   7
ENDBRANCH   1   5
BRANCH   2  13
ATOM     13  N   UNL     1       4.337   7.120  17.082  0.00  0.00    +0.000 NA
ATOM     14  C   UNL     1       3.458   6.894  18.001  0.00  0.00    +0.000 C 
BRANCH  14  15
ATOM     15  C   UNL     1       2.547   7.939  18.494  0.00  0.00    +0.000 A 
ATOM     16  C   UNL     1       1.971   7.893  19.763  0.00  0.00    +0.000 A 
ATOM     17  C   UNL     1       1.096   8.908  20.141  0.00  0.00    +0.000 A 
ATOM     18  C   UNL     1       0.833   9.928  19.236  0.00  0.00    +0.000 A 
ATOM     19  N   UNL     1       1.381   9.998  18.004  0.00  0.00    +0.000 NA
ATOM     20  C   UNL     1       2.227   8.999  17.659  0.00  0.00    +0.000 A 
ENDBRANCH  14  15
ENDBRANCH   2  13
BRANCH   2  21
ATOM     21  C   UNL     1       4.779   4.666  16.433  0.00  0.00    +0.000 C 
BRANCH  21  22
ATOM     22  O   UNL     1       4.843   3.821  17.572  0.00  0.00    +0.000 OA
BRANCH  22  23
ATOM     23  C   UNL     1       3.656   3.363  18.095  0.00  0.00    +0.000 A 
ATOM     24  C   UNL     1       2.533   3.889  17.427  0.00  0.00    +0.000 A 
ATOM     25  C   UNL     1       1.229   3.570  17.822  0.00  0.00    +0.000 A 
ATOM     26  C   UNL     1       1.023   2.716  18.900  0.00  0.00    +0.000 A 
ATOM     27  C   UNL     1       2.119   2.199  19.583  0.00  0.00    +0.000 A 
ATOM     28  C   UNL     1       3.431   2.523  19.200  0.00  0.00    +0.000 A 
ATOM     29 CL   UNL     1       4.646   1.864  20.238  0.00  0.00    +0.000 Cl
ENDBRANCH  22  23
ENDBRANCH  21  22
ENDBRANCH   2  21
TORSDOF 7
ENDMDL
MODEL 5
REMARK VINA RESULT:      -7.7      3.634      6.678
REMARK  Name = 
REMARK  7 active torsions:
REMARK  status: ('A' for Active; 'I' for Inactive)
REMARK    1  A    between atoms: C_2  and  C_23
REMARK    2  A    between atoms: N_3  and  N_4
REMARK    3  A    between atoms: C_5  and  C_6
REMARK    4  A    between atoms: C_5  and  N_15
REMARK    5  A    between atoms: C_6  and  O_7
REMARK    6  A    between atoms: O_7  and  C_8
REMARK    7  A    between atoms: C_16  and  C_17
REMARK                            x       y       z     vdW  Elec       q    Type
REMARK                         _______ _______ _______ _____ _____    ______ ____
ROOT
ATOM      1  N   UNL     1       5.458   4.720  17.423  0.00  0.00    +0.000 NA
ATOM      2  C   UNL     1       5.405   5.987  17.144  0.00  0.00    +0.000 C 
ENDROOT
BRANCH   1   5
ATOM      3  O   UNL     1       3.018   3.502  17.286  0.00  0.00    +0.000 OA
ATOM      4  C   UNL     1       3.577   3.662  18.369  0.00  0.00    +0.000 C 
ATOM      5  N   UNL     1       4.812   4.269  18.536  0.00  0.00    +0.000 N 
ATOM      6  H   UNL     1       5.276   4.402  19.427  0.00  0.00    +0.000 HD
BRANCH   4   7
ATOM      7  C   UNL     1       2.876   3.191  19.595  0.00  0.00    +0.000 A 
ATOM      8  C   UNL     1       1.524   3.518  19.715  0.00  0.00    +0.000 A 
ATOM      9  C   UNL     1       0.860   3.146  20.870  0.00  0.00    +0.000 A 
ATOM     10  N   UNL     1       1.457   2.486  21.883  0.00  0.00    +0.000 NA
ATOM     11  C   UNL     1       2.771   2.201  21.746  0.00  0.00    +0.000 A 
ATOM     12  C   UNL     1       3.520   2.526  20.628  0.00  0.00    +0.000 A 
ENDBRANCH   4   7
ENDBRANCH   1   5
BRANCH   2  13
ATOM     13  N   UNL     1       4.617   6.839  17.899  0.00  0.00    +0.000 NA
ATOM     14  C   UNL     1       3.468   7.212  17.443  0.00  0.00    +0.000 C 
BRANCH  14  15
ATOM     15  C   UNL     1       2.543   8.048  18.224  0.00  0.00    +0.000 A 
ATOM     16  C   UNL     1       1.999   9.231  17.726  0.00  0.00    +0.000 A 
ATOM     17  C   UNL     1       1.153   9.978  18.543  0.00  0.00    +0.000 A 
ATOM     18  C   UNL     1       0.884   9.510  19.822  0.00  0.00    +0.000 A 
ATOM     19  N   UNL     1       1.393   8.366  20.326  0.00  0.00    +0.000 NA
ATOM     20  C   UNL     1       2.214   7.658  19.514  0.00  0.00    +0.000 A 
ENDBRANCH  14  15
ENDBRANCH   2  13
BRANCH   2  21
ATOM     21  C   UNL     1       6.197   6.440  15.904  0.00  0.00    +0.000 C 
BRANCH  21  22
ATOM     22  O   UNL     1       7.148   5.483  15.462  0.00  0.00    +0.000 OA
BRANCH  22  23
ATOM     23  C   UNL     1       6.955   4.916  14.223  0.00  0.00    +0.000 A 
ATOM     24  C   UNL     1       5.884   4.002  14.209  0.00  0.00    +0.000 A 
ATOM     25  C   UNL     1       5.539   3.296  13.051  0.00  0.00    +0.000 A 
ATOM     26  C   UNL     1       6.264   3.489  11.881  0.00  0.00    +0.000 A 
ATOM     27  C   UNL     1       7.336   4.376  11.879  0.00  0.00    +0.000 A 
ATOM     28  C   UNL     1       7.696   5.081  13.039  0.00  0.00    +0.000 A 
ATOM     29 CL   UNL     1       9.116   6.050  12.857  0.00  0.00    +0.000 Cl
ENDBRANCH  22  23
ENDBRANCH  21  22
ENDBRANCH   2  21
TORSDOF 7
ENDMDL
MODEL 6
REMARK VINA RESULT:      -7.6      1.020      1.098
REMARK  Name = 
REMARK  7 active torsions:
REMARK  status: ('A' for Active; 'I' for Inactive)
REMARK    1  A    between atoms: C_2  and  C_23
REMARK    2  A    between atoms: N_3  and  N_4
REMARK    3  A    between atoms: C_5  and  C_6
REMARK    4  A    between atoms: C_5  and  N_15
REMARK    5  A    between atoms: C_6  and  O_7
REMARK    6  A    between atoms: O_7  and  C_8
REMARK    7  A    between atoms: C_16  and  C_17
REMARK                            x       y       z     vdW  Elec       q    Type
REMARK                         _______ _______ _______ _____ _____    ______ ____
ROOT
ATOM      1  N   UNL     1       6.656   6.676  16.391  0.00  0.00    +0.000 NA
ATOM      2  C   UNL     1       5.387   6.426  16.506  0.00  0.00    +0.000 C 
ENDROOT
BRANCH   1   5
ATOM      3  O   UNL     1       8.260   6.940  18.586  0.00  0.00    +0.000 OA
ATOM      4  C   UNL     1       7.932   7.926  17.929  0.00  0.00    +0.000 C 
ATOM      5  N   UNL     1       7.123   7.889  16.804  0.00  0.00    +0.000 N 
ATOM      6  H   UNL     1       6.851   8.699  16.259  0.00  0.00    +0.000 HD
BRANCH   4   7
ATOM      7  C   UNL     1       8.419   9.259  18.376  0.00  0.00    +0.000 A 
ATOM      8  C   UNL     1       8.185  10.337  17.520  0.00  0.00    +0.000 A 
ATOM      9  C   UNL     1       8.678  11.579  17.879  0.00  0.00    +0.000 A 
ATOM     10  N   UNL     1       9.374  11.794  19.013  0.00  0.00    +0.000 NA
ATOM     11  C   UNL     1       9.602  10.728  19.812  0.00  0.00    +0.000 A 
ATOM     12  C   UNL     1       9.146   9.449  19.541  0.00  0.00    +0.000 A 
ENDBRANCH   4   7
ENDBRANCH   1   5
BRANCH   2  13
ATOM     13  N   UNL     1       4.549   7.332  17.134  0.00  0.00    +0.000 NA
ATOM     14  C   UNL     1       3.403   6.933  17.576  0.00  0.00    +0.000 C 
BRANCH  14  15
ATOM     15  C   UNL     1       2.496   7.817  18.325  0.00  0.00    +0.000 A 
ATOM     16  C   UNL     1       1.918   8.952  17.760  0.00  0.00    +0.000 A 
ATOM     17  C   UNL     1       1.093   9.751  18.549  0.00  0.00    +0.000 A 
ATOM     18  C   UNL     1       0.879   9.381  19.870  0.00  0.00    +0.000 A 
ATOM     19  N   UNL     1       1.422   8.284  20.440  0.00  0.00    +0.000 NA
ATOM     20  C   UNL     1       2.221   7.524  19.654  0.00  0.00    +0.000 A 
ENDBRANCH  14  15
ENDBRANCH   2  13
BRANCH   2  21
ATOM     21  C   UNL     1       4.917   5.060  15.976  0.00  0.00    +0.000 C 
BRANCH  21  22
ATOM     22  O   UNL     1       5.374   3.965  16.755  0.00  0.00    +0.000 OA
BRANCH  22  23
ATOM     23  C   UNL     1       4.576   3.542  17.792  0.00  0.00    +0.000 A 
ATOM     24  C   UNL     1       3.593   2.623  17.377  0.00  0.00    +0.000 A 
ATOM     25  C   UNL     1       2.661   2.092  18.276  0.00  0.00    +0.000 A 
ATOM     26  C   UNL     1       2.693   2.474  19.611  0.00  0.00    +0.000 A 
ATOM     27  C   UNL     1       3.645   3.394  20.038  0.00  0.00    +0.000 A 
ATOM     28  C   UNL     1       4.578   3.940  19.142  0.00  0.00    +0.000 A 
ATOM     29 CL   UNL     1       5.606   5.139  19.844  0.00  0.00    +0.000 Cl
ENDBRANCH  22  23
ENDBRANCH  21  22
ENDBRANCH   2  21
TORSDOF 7
ENDMDL
MODEL 7
REMARK VINA RESULT:      -7.6      3.613      6.773
REMARK  Name = 
REMARK  7 active torsions:
REMARK  status: ('A' for Active; 'I' for Inactive)
REMARK    1  A    between atoms: C_2  and  C_23
REMARK    2  A    between atoms: N_3  and  N_4
REMARK    3  A    between atoms: C_5  and  C_6
REMARK    4  A    between atoms: C_5  and  N_15
REMARK    5  A    between atoms: C_6  and  O_7
REMARK    6  A    between atoms: O_7  and  C_8
REMARK    7  A    between atoms: C_16  and  C_17
REMARK                            x       y       z     vdW  Elec       q    Type
REMARK                         _______ _______ _______ _____ _____    ______ ____
ROOT
ATOM      1  N   UNL     1       2.263   9.096  18.220  0.00  0.00    +0.000 NA
ATOM      2  C   UNL     1       2.724   7.887  18.107  0.00  0.00    +0.000 C 
ENDROOT
BRANCH   1   5
ATOM      3  O   UNL     1       1.488  11.641  18.836  0.00  0.00    +0.000 OA
ATOM      4  C   UNL     1       1.012  10.680  19.437  0.00  0.00    +0.000 C 
ATOM      5  N   UNL     1       1.346   9.356  19.195  0.00  0.00    +0.000 N 
ATOM      6  H   UNL     1       0.957   8.561  19.688  0.00  0.00    +0.000 HD
BRANCH   4   7
ATOM      7  C   UNL     1       0.022  10.948  20.516  0.00  0.00    +0.000 A 
ATOM      8  C   UNL     1      -0.964  11.899  20.245  0.00  0.00    +0.000 A 
ATOM      9  C   UNL     1      -1.863  12.215  21.249  0.00  0.00    +0.000 A 
ATOM     10  N   UNL     1      -1.828  11.649  22.473  0.00  0.00    +0.000 NA
ATOM     11  C   UNL     1      -0.850  10.747  22.710  0.00  0.00    +0.000 A 
ATOM     12  C   UNL     1       0.091  10.363  21.770  0.00  0.00    +0.000 A 
ENDBRANCH   4   7
ENDBRANCH   1   5
BRANCH   2  13
ATOM     13  N   UNL     1       2.371   6.913  19.026  0.00  0.00    +0.000 NA
ATOM     14  C   UNL     1       2.309   5.679  18.650  0.00  0.00    +0.000 C 
BRANCH  14  15
ATOM     15  C   UNL     1       2.023   4.582  19.588  0.00  0.00    +0.000 A 
ATOM     16  C   UNL     1       2.438   4.605  20.918  0.00  0.00    +0.000 A 
ATOM     17  C   UNL     1       2.150   3.512  21.732  0.00  0.00    +0.000 A 
ATOM     18  C   UNL     1       1.458   2.441  21.182  0.00  0.00    +0.000 A 
ATOM     19  N   UNL     1       1.041   2.396  19.899  0.00  0.00    +0.000 NA
ATOM     20  C   UNL     1       1.333   3.470  19.128  0.00  0.00    +0.000 A 
ENDBRANCH  14  15
ENDBRANCH   2  13
BRANCH   2  21
ATOM     21  C   UNL     1       3.718   7.648  16.956  0.00  0.00    +0.000 C 
BRANCH  21  22
ATOM     22  O   UNL     1       5.051   7.442  17.396  0.00  0.00    +0.000 OA
BRANCH  22  23
ATOM     23  C   UNL     1       5.742   6.377  16.864  0.00  0.00    +0.000 A 
ATOM     24  C   UNL     1       5.148   5.883  15.686  0.00  0.00    +0.000 A 
ATOM     25  C   UNL     1       5.680   4.784  15.003  0.00  0.00    +0.000 A 
ATOM     26  C   UNL     1       6.819   4.153  15.490  0.00  0.00    +0.000 A 
ATOM     27  C   UNL     1       7.411   4.616  16.660  0.00  0.00    +0.000 A 
ATOM     28  C   UNL     1       6.878   5.712  17.358  0.00  0.00    +0.000 A 
ATOM     29 CL   UNL     1       7.695   6.063  18.840  0.00  0.00    +0.000 Cl
ENDBRANCH  22  23
ENDBRANCH  21  22
ENDBRANCH   2  21
TORSDOF 7
ENDMDL
MODEL 8
REMARK VINA RESULT:      -7.4      1.079      1.592
REMARK  Name = 
REMARK  7 active torsions:
REMARK  status: ('A' for Active; 'I' for Inactive)
REMARK    1  A    between atoms: C_2  and  C_23
REMARK    2  A    between atoms: N_3  and  N_4
REMARK    3  A    between atoms: C_5  and  C_6
REMARK    4  A    between atoms: C_5  and  N_15
REMARK    5  A    between atoms: C_6  and  O_7
REMARK    6  A    between atoms: O_7  and  C_8
REMARK    7  A    between atoms: C_16  and  C_17
REMARK                            x       y       z     vdW  Elec       q    Type
REMARK                         _______ _______ _______ _____ _____    ______ ____
ROOT
ATOM      1  N   UNL     1       6.584   6.798  17.008  0.00  0.00    +0.000 NA
ATOM      2  C   UNL     1       5.327   6.563  17.235  0.00  0.00    +0.000 C 
ENDROOT
BRANCH   1   5
ATOM      3  O   UNL     1       8.551   7.409  18.800  0.00  0.00    +0.000 OA
ATOM      4  C   UNL     1       8.051   8.285  18.098  0.00  0.00    +0.000 C 
ATOM      5  N   UNL     1       7.049   8.070  17.165  0.00  0.00    +0.000 N 
ATOM      6  H   UNL     1       6.634   8.789  16.584  0.00  0.00    +0.000 HD
BRANCH   4   7
ATOM      7  C   UNL     1       8.536   9.682  18.270  0.00  0.00    +0.000 A 
ATOM      8  C   UNL     1       9.379   9.929  19.356  0.00  0.00    +0.000 A 
ATOM      9  C   UNL     1       9.798  11.229  19.577  0.00  0.00    +0.000 A 
ATOM     10  N   UNL     1       9.430  12.264  18.796  0.00  0.00    +0.000 NA
ATOM     11  C   UNL     1       8.598  11.997  17.765  0.00  0.00    +0.000 A 
ATOM     12  C   UNL     1       8.129  10.731  17.459  0.00  0.00    +0.000 A 
ENDBRANCH   4   7
ENDBRANCH   1   5
BRANCH   2  13
ATOM     13  N   UNL     1       4.506   7.561  17.731  0.00  0.00    +0.000 NA
ATOM     14  C   UNL     1       3.254   7.313  17.931  0.00  0.00    +0.000 C 
BRANCH  14  15
ATOM     15  C   UNL     1       2.340   8.297  18.532  0.00  0.00    +0.000 A 
ATOM     16  C   UNL     1       1.797   8.135  19.805  0.00  0.00    +0.000 A 
ATOM     17  C   UNL     1       0.917   9.100  20.289  0.00  0.00    +0.000 A 
ATOM     18  C   UNL     1       0.617  10.187  19.479  0.00  0.00    +0.000 A 
ATOM     19  N   UNL     1       1.133  10.370  18.245  0.00  0.00    +0.000 NA
ATOM     20  C   UNL     1       1.985   9.418  17.797  0.00  0.00    +0.000 A 
ENDBRANCH  14  15
ENDBRANCH   2  13
BRANCH   2  21
ATOM     21  C   UNL     1       4.854   5.119  16.991  0.00  0.00    +0.000 C 
BRANCH  21  22
ATOM     22  O   UNL     1       4.842   4.323  18.167  0.00  0.00    +0.000 OA
BRANCH  22  23
ATOM     23  C   UNL     1       3.674   3.667  18.481  0.00  0.00    +0.000 A 
ATOM     24  C   UNL     1       3.351   2.664  17.547  0.00  0.00    +0.000 A 
ATOM     25  C   UNL     1       2.187   1.897  17.669  0.00  0.00    +0.000 A 
ATOM     26  C   UNL     1       1.319   2.123  18.731  0.00  0.00    +0.000 A 
ATOM     27  C   UNL     1       1.611   3.120  19.656  0.00  0.00    +0.000 A 
ATOM     28  C   UNL     1       2.772   3.902  19.535  0.00  0.00    +0.000 A 
ATOM     29 CL   UNL     1       2.900   5.153  20.720  0.00  0.00    +0.000 Cl
ENDBRANCH  22  23
ENDBRANCH  21  22
ENDBRANCH   2  21
TORSDOF 7
ENDMDL
MODEL 9
REMARK VINA RESULT:      -7.4      1.280      1.834
REMARK  Name = 
REMARK  7 active torsions:
REMARK  status: ('A' for Active; 'I' for Inactive)
REMARK    1  A    between atoms: C_2  and  C_23
REMARK    2  A    between atoms: N_3  and  N_4
REMARK    3  A    between atoms: C_5  and  C_6
REMARK    4  A    between atoms: C_5  and  N_15
REMARK    5  A    between atoms: C_6  and  O_7
REMARK    6  A    between atoms: O_7  and  C_8
REMARK    7  A    between atoms: C_16  and  C_17
REMARK                            x       y       z     vdW  Elec       q    Type
REMARK                         _______ _______ _______ _____ _____    ______ ____
ROOT
ATOM      1  N   UNL     1       6.084   6.184  17.077  0.00  0.00    +0.000 NA
ATOM      2  C   UNL     1       4.797   6.034  17.153  0.00  0.00    +0.000 C 
ENDROOT
BRANCH   1   5
ATOM      3  O   UNL     1       8.170   6.773  18.738  0.00  0.00    +0.000 OA
ATOM      4  C   UNL     1       7.662   7.647  18.040  0.00  0.00    +0.000 C 
ATOM      5  N   UNL     1       6.602   7.442  17.170  0.00  0.00    +0.000 N 
ATOM      6  H   UNL     1       6.180   8.160  16.592  0.00  0.00    +0.000 HD
BRANCH   4   7
ATOM      7  C   UNL     1       8.204   9.030  18.142  0.00  0.00    +0.000 A 
ATOM      8  C   UNL     1       9.120   9.275  19.168  0.00  0.00    +0.000 A 
ATOM      9  C   UNL     1       9.596  10.564  19.327  0.00  0.00    +0.000 A 
ATOM     10  N   UNL     1       9.216  11.591  18.541  0.00  0.00    +0.000 NA
ATOM     11  C   UNL     1       8.314  11.327  17.570  0.00  0.00    +0.000 A 
ATOM     12  C   UNL     1       7.784  10.071  17.329  0.00  0.00    +0.000 A 
ENDBRANCH   4   7
ENDBRANCH   1   5
BRANCH   2  13
ATOM     13  N   UNL     1       3.980   7.117  17.432  0.00  0.00    +0.000 NA
ATOM     14  C   UNL     1       3.060   7.002  18.330  0.00  0.00    +0.000 C 
BRANCH  14  15
ATOM     15  C   UNL     1       2.210   8.132  18.738  0.00  0.00    +0.000 A 
ATOM     16  C   UNL     1       1.897   9.183  17.879  0.00  0.00    +0.000 A 
ATOM     17  C   UNL     1       1.108  10.229  18.354  0.00  0.00    +0.000 A 
ATOM     18  C   UNL     1       0.666  10.180  19.669  0.00  0.00    +0.000 A 
ATOM     19  N   UNL     1       0.951   9.171  20.520  0.00  0.00    +0.000 NA
ATOM     20  C   UNL     1       1.719   8.168  20.035  0.00  0.00    +0.000 A 
ENDBRANCH  14  15
ENDBRANCH   2  13
BRANCH   2  21
ATOM     21  C   UNL     1       4.273   4.596  16.991  0.00  0.00    +0.000 C 
BRANCH  21  22
ATOM     22  O   UNL     1       4.502   3.780  18.129  0.00  0.00    +0.000 OA
BRANCH  22  23
ATOM     23  C   UNL     1       3.436   3.537  18.965  0.00  0.00    +0.000 A 
ATOM     24  C   UNL     1       3.830   2.963  20.189  0.00  0.00    +0.000 A 
ATOM     25  C   UNL     1       2.894   2.613  21.169  0.00  0.00    +0.000 A 
ATOM     26  C   UNL     1       1.540   2.829  20.940  0.00  0.00    +0.000 A 
ATOM     27  C   UNL     1       1.129   3.379  19.730  0.00  0.00    +0.000 A 
ATOM     28  C   UNL     1       2.061   3.723  18.737  0.00  0.00    +0.000 A 
ATOM     29 CL   UNL     1       1.343   4.293  17.272  0.00  0.00    +0.000 Cl
ENDBRANCH  22  23
ENDBRANCH  21  22
ENDBRANCH   2  21
TORSDOF 7
ENDMDL
