MODEL 1
REMARK VINA RESULT:      -8.2      0.000      0.000
REMARK  Name = 
REMARK  9 active torsions:
REMARK  status: ('A' for Active; 'I' for Inactive)
REMARK    1  A    between atoms: C_1  and  C_2
REMARK    2  A    between atoms: C_2  and  C_3
REMARK    3  A    between atoms: C_3  and  N_4
REMARK    4  A    between atoms: N_4  and  C_5
REMARK    5  A    between atoms: N_4  and  C_6
REMARK    6  A    between atoms: C_11  and  C_13
REMARK    7  A    between atoms: C_16  and  N_17
REMARK    8  A    between atoms: C_18  and  C_20
REMARK    9  A    between atoms: C_25  and  C_26
REMARK                            x       y       z     vdW  Elec       q    Type
REMARK                         _______ _______ _______ _____ _____    ______ ____
ROOT
ATOM      1  C   UNL     1      -0.412  13.555  19.147  0.00  0.00    +0.000 C 
ATOM      2  C   UNL     1      -1.340  14.175  20.216  0.00  0.00    +0.000 C 
ATOM      3  C   UNL     1      -1.424  13.540  21.607  0.00  0.00    +0.000 C 
ATOM      4  C   UNL     1      -1.585  12.012  21.723  0.00  0.00    +0.000 C 
ATOM      5  N   UNL     1      -0.787  11.162  20.821  0.00  0.00    +0.000 N 
ATOM      6  C   UNL     1       0.042  10.122  21.317  0.00  0.00    +0.000 C 
ATOM      7  O   UNL     1       0.163   9.896  22.523  0.00  0.00    +0.000 OA
ATOM      8  C   UNL     1      -1.268  11.137  19.497  0.00  0.00    +0.000 A 
ATOM      9  C   UNL     1      -1.911   9.976  19.041  0.00  0.00    +0.000 A 
ATOM     10  C   UNL     1      -2.342   9.884  17.724  0.00  0.00    +0.000 A 
ATOM     11  C   UNL     1      -2.135  10.960  16.866  0.00  0.00    +0.000 A 
ATOM     12  C   UNL     1      -1.499  12.123  17.327  0.00  0.00    +0.000 A 
ATOM     13  C   UNL     1      -1.045  12.243  18.656  0.00  0.00    +0.000 A 
ENDROOT
BRANCH   6  14
ATOM     14  C   UNL     1       0.900   9.292  20.359  0.00  0.00    +0.000 A 
ATOM     15  C   UNL     1       1.359   9.774  19.133  0.00  0.00    +0.000 A 
ATOM     16  C   UNL     1       2.156   9.016  18.277  0.00  0.00    +0.000 A 
ATOM     17  C   UNL     1       2.546   7.734  18.619  0.00  0.00    +0.000 A 
ATOM     18  C   UNL     1       2.122   7.231  19.860  0.00  0.00    +0.000 A 
ATOM     19  C   UNL     1       1.318   8.010  20.725  0.00  0.00    +0.000 A 
BRANCH  17  20
ATOM     20  N   UNL     1       3.333   6.925  17.762  0.00  0.00    +0.000 N 
ATOM     21  C   UNL     1       4.293   6.011  18.178  0.00  0.00    +0.000 C 
ATOM     22  O   UNL     1       4.512   5.689  19.340  0.00  0.00    +0.000 OA
ATOM     23  H   UNL     1       3.147   7.003  16.769  0.00  0.00    +0.000 HD
BRANCH  21  24
ATOM     24  C   UNL     1       5.130   5.371  17.116  0.00  0.00    +0.000 A 
ATOM     25  C   UNL     1       4.635   4.246  16.434  0.00  0.00    +0.000 A 
ATOM     26  C   UNL     1       5.349   3.694  15.369  0.00  0.00    +0.000 A 
ATOM     27  C   UNL     1       6.550   4.269  14.963  0.00  0.00    +0.000 A 
ATOM     28  C   UNL     1       7.050   5.388  15.626  0.00  0.00    +0.000 A 
ATOM     29  C   UNL     1       6.358   5.948  16.714  0.00  0.00    +0.000 A 
ATOM     30  C   UNL     1       6.965   7.141  17.406  0.00  0.00    +0.000 C 
ENDBRANCH  21  24
ENDBRANCH  17  20
ENDBRANCH   6  14
BRANCH   1  31
ATOM     31  N   UNL     1       1.065  13.652  19.412  0.00  0.00    +0.000 NA
ATOM     32  C   UNL     1       1.404  14.846  20.192  0.00  0.00    +0.000 C 
BRANCH  31  33
ATOM     33  C   UNL     1       1.978  13.443  18.288  0.00  0.00    +0.000 C 
BRANCH  33  35
ATOM     34  C   UNL     1       3.534  15.313  17.473  0.00  0.00    +0.000 C 
ATOM     35  C   UNL     1       3.390  14.047  18.294  0.00  0.00    +0.000 C 
ENDBRANCH  33  35
ENDBRANCH  31  33
ENDBRANCH   1  31
TORSDOF 6
ENDMDL
MODEL 2
REMARK VINA RESULT:      -8.2      0.815      1.447
REMARK  Name = 
REMARK  9 active torsions:
REMARK  status: ('A' for Active; 'I' for Inactive)
REMARK    1  A    between atoms: C_1  and  C_2
REMARK    2  A    between atoms: C_2  and  C_3
REMARK    3  A    between atoms: C_3  and  N_4
REMARK    4  A    between atoms: N_4  and  C_5
REMARK    5  A    between atoms: N_4  and  C_6
REMARK    6  A    between atoms: C_11  and  C_13
REMARK    7  A    between atoms: C_16  and  N_17
REMARK    8  A    between atoms: C_18  and  C_20
REMARK    9  A    between atoms: C_25  and  C_26
REMARK                            x       y       z     vdW  Elec       q    Type
REMARK                         _______ _______ _______ _____ _____    ______ ____
ROOT
ATOM      1  C   UNL     1       0.220  13.604  20.228  0.00  0.00    +0.000 C 
ATOM      2  C   UNL     1      -0.638  14.201  21.367  0.00  0.00    +0.000 C 
ATOM      3  C   UNL     1      -0.855  13.399  22.652  0.00  0.00    +0.000 C 
ATOM      4  C   UNL     1      -1.243  11.911  22.550  0.00  0.00    +0.000 C 
ATOM      5  N   UNL     1      -0.553  11.084  21.543  0.00  0.00    +0.000 N 
ATOM      6  C   UNL     1       0.100   9.873  21.894  0.00  0.00    +0.000 C 
ATOM      7  O   UNL     1       0.150   9.467  23.056  0.00  0.00    +0.000 OA
ATOM      8  C   UNL     1      -0.993  11.316  20.225  0.00  0.00    +0.000 A 
ATOM      9  C   UNL     1      -1.785  10.339  19.604  0.00  0.00    +0.000 A 
ATOM     10  C   UNL     1      -2.187  10.496  18.283  0.00  0.00    +0.000 A 
ATOM     11  C   UNL     1      -1.799  11.638  17.588  0.00  0.00    +0.000 A 
ATOM     12  C   UNL     1      -1.012  12.617  18.214  0.00  0.00    +0.000 A 
ATOM     13  C   UNL     1      -0.585  12.482  19.551  0.00  0.00    +0.000 A 
ENDROOT
BRANCH   6  14
ATOM     14  C   UNL     1       0.854   9.065  20.835  0.00  0.00    +0.000 A 
ATOM     15  C   UNL     1       1.299   9.612  19.631  0.00  0.00    +0.000 A 
ATOM     16  C   UNL     1       2.002   8.872  18.682  0.00  0.00    +0.000 A 
ATOM     17  C   UNL     1       2.308   7.541  18.903  0.00  0.00    +0.000 A 
ATOM     18  C   UNL     1       1.896   6.970  20.119  0.00  0.00    +0.000 A 
ATOM     19  C   UNL     1       1.188   7.731  21.079  0.00  0.00    +0.000 A 
BRANCH  17  20
ATOM     20  N   UNL     1       2.997   6.752  17.950  0.00  0.00    +0.000 N 
ATOM     21  C   UNL     1       4.150   6.018  18.199  0.00  0.00    +0.000 C 
ATOM     22  O   UNL     1       4.668   5.855  19.298  0.00  0.00    +0.000 OA
ATOM     23  H   UNL     1       2.587   6.696  17.026  0.00  0.00    +0.000 HD
BRANCH  21  24
ATOM     24  C   UNL     1       4.818   5.379  17.022  0.00  0.00    +0.000 A 
ATOM     25  C   UNL     1       5.767   6.109  16.288  0.00  0.00    +0.000 A 
ATOM     26  C   UNL     1       6.480   5.503  15.252  0.00  0.00    +0.000 A 
ATOM     27  C   UNL     1       6.267   4.160  14.953  0.00  0.00    +0.000 A 
ATOM     28  C   UNL     1       5.332   3.422  15.676  0.00  0.00    +0.000 A 
ATOM     29  C   UNL     1       4.589   4.017  16.709  0.00  0.00    +0.000 A 
ATOM     30  C   UNL     1       3.574   3.172  17.436  0.00  0.00    +0.000 C 
ENDBRANCH  21  24
ENDBRANCH  17  20
ENDBRANCH   6  14
BRANCH   1  31
ATOM     31  N   UNL     1       1.687  13.441  20.517  0.00  0.00    +0.000 NA
ATOM     32  C   UNL     1       2.209  14.538  21.337  0.00  0.00    +0.000 C 
BRANCH  31  33
ATOM     33  C   UNL     1       2.572  13.110  19.400  0.00  0.00    +0.000 C 
BRANCH  33  35
ATOM     34  C   UNL     1       3.228  15.106  17.929  0.00  0.00    +0.000 C 
ATOM     35  C   UNL     1       2.434  13.821  18.045  0.00  0.00    +0.000 C 
ENDBRANCH  33  35
ENDBRANCH  31  33
ENDBRANCH   1  31
TORSDOF 6
ENDMDL
MODEL 3
REMARK VINA RESULT:      -8.0      0.534      1.526
REMARK  Name = 
REMARK  9 active torsions:
REMARK  status: ('A' for Active; 'I' for Inactive)
REMARK    1  A    between atoms: C_1  and  C_2
REMARK    2  A    between atoms: C_2  and  C_3
REMARK    3  A    between atoms: C_3  and  N_4
REMARK    4  A    between atoms: N_4  and  C_5
REMARK    5  A    between atoms: N_4  and  C_6
REMARK    6  A    between atoms: C_11  and  C_13
REMARK    7  A    between atoms: C_16  and  N_17
REMARK    8  A    between atoms: C_18  and  C_20
REMARK    9  A    between atoms: C_25  and  C_26
REMARK                            x       y       z     vdW  Elec       q    Type
REMARK                         _______ _______ _______ _____ _____    ______ ____
ROOT
ATOM      1  C   UNL     1      -0.057  13.646  19.347  0.00  0.00    +0.000 C 
ATOM      2  C   UNL     1      -0.911  14.357  20.422  0.00  0.00    +0.000 C 
ATOM      3  C   UNL     1      -1.003  13.764  21.831  0.00  0.00    +0.000 C 
ATOM      4  C   UNL     1      -1.269  12.254  21.992  0.00  0.00    +0.000 C 
ATOM      5  N   UNL     1      -0.556  11.328  21.094  0.00  0.00    +0.000 N 
ATOM      6  C   UNL     1       0.210  10.244  21.597  0.00  0.00    +0.000 C 
ATOM      7  O   UNL     1       0.346  10.040  22.805  0.00  0.00    +0.000 OA
ATOM      8  C   UNL     1      -1.073  11.305  19.783  0.00  0.00    +0.000 A 
ATOM      9  C   UNL     1      -1.807  10.181  19.374  0.00  0.00    +0.000 A 
ATOM     10  C   UNL     1      -2.279  10.087  18.071  0.00  0.00    +0.000 A 
ATOM     11  C   UNL     1      -2.019  11.124  17.179  0.00  0.00    +0.000 A 
ATOM     12  C   UNL     1      -1.290  12.250  17.593  0.00  0.00    +0.000 A 
ATOM     13  C   UNL     1      -0.794  12.370  18.907  0.00  0.00    +0.000 A 
ENDROOT
BRANCH   6  14
ATOM     14  C   UNL     1       0.982   9.331  20.641  0.00  0.00    +0.000 A 
ATOM     15  C   UNL     1       1.217   7.980  20.898  0.00  0.00    +0.000 A 
ATOM     16  C   UNL     1       1.905   7.154  20.011  0.00  0.00    +0.000 A 
ATOM     17  C   UNL     1       2.381   7.642  18.809  0.00  0.00    +0.000 A 
ATOM     18  C   UNL     1       2.137   8.993  18.509  0.00  0.00    +0.000 A 
ATOM     19  C   UNL     1       1.432   9.823  19.413  0.00  0.00    +0.000 A 
BRANCH  17  20
ATOM     20  N   UNL     1       3.107   6.838  17.896  0.00  0.00    +0.000 N 
ATOM     21  C   UNL     1       4.182   6.022  18.224  0.00  0.00    +0.000 C 
ATOM     22  O   UNL     1       4.580   5.791  19.361  0.00  0.00    +0.000 OA
ATOM     23  H   UNL     1       2.785   6.838  16.936  0.00  0.00    +0.000 HD
BRANCH  21  24
ATOM     24  C   UNL     1       4.917   5.375  17.093  0.00  0.00    +0.000 A 
ATOM     25  C   UNL     1       5.977   6.062  16.477  0.00  0.00    +0.000 A 
ATOM     26  C   UNL     1       6.746   5.441  15.492  0.00  0.00    +0.000 A 
ATOM     27  C   UNL     1       6.477   4.125  15.125  0.00  0.00    +0.000 A 
ATOM     28  C   UNL     1       5.432   3.430  15.730  0.00  0.00    +0.000 A 
ATOM     29  C   UNL     1       4.633   4.042  16.711  0.00  0.00    +0.000 A 
ATOM     30  C   UNL     1       3.501   3.245  17.307  0.00  0.00    +0.000 C 
ENDBRANCH  21  24
ENDBRANCH  17  20
ENDBRANCH   6  14
BRANCH   1  31
ATOM     31  N   UNL     1       1.429  13.644  19.574  0.00  0.00    +0.000 NA
ATOM     32  C   UNL     1       1.844  14.704  20.497  0.00  0.00    +0.000 C 
BRANCH  31  33
ATOM     33  C   UNL     1       2.301  13.554  18.402  0.00  0.00    +0.000 C 
BRANCH  33  35
ATOM     34  C   UNL     1       4.613  14.609  18.057  0.00  0.00    +0.000 C 
ATOM     35  C   UNL     1       3.111  14.768  17.925  0.00  0.00    +0.000 C 
ENDBRANCH  33  35
ENDBRANCH  31  33
ENDBRANCH   1  31
TORSDOF 6
ENDMDL
MODEL 4
REMARK VINA RESULT:      -7.9      5.437      7.952
REMARK  Name = 
REMARK  9 active torsions:
REMARK  status: ('A' for Active; 'I' for Inactive)
REMARK    1  A    between atoms: C_1  and  C_2
REMARK    2  A    between atoms: C_2  and  C_3
REMARK    3  A    between atoms: C_3  and  N_4
REMARK    4  A    between atoms: N_4  and  C_5
REMARK    5  A    between atoms: N_4  and  C_6
REMARK    6  A    between atoms: C_11  and  C_13
REMARK    7  A    between atoms: C_16  and  N_17
REMARK    8  A    between atoms: C_18  and  C_20
REMARK    9  A    between atoms: C_25  and  C_26
REMARK                            x       y       z     vdW  Elec       q    Type
REMARK                         _______ _______ _______ _____ _____    ______ ____
ROOT
ATOM      1  C   UNL     1       7.729  15.544  20.351  0.00  0.00    +0.000 C 
ATOM      2  C   UNL     1       8.746  16.544  20.948  0.00  0.00    +0.000 C 
ATOM      3  C   UNL     1      10.245  16.322  20.728  0.00  0.00    +0.000 C 
ATOM      4  C   UNL     1      10.834  14.916  20.951  0.00  0.00    +0.000 C 
ATOM      5  N   UNL     1      10.069  13.758  20.454  0.00  0.00    +0.000 N 
ATOM      6  C   UNL     1      10.654  12.791  19.596  0.00  0.00    +0.000 C 
ATOM      7  O   UNL     1      11.817  12.884  19.198  0.00  0.00    +0.000 OA
ATOM      8  C   UNL     1       8.947  13.442  21.246  0.00  0.00    +0.000 A 
ATOM      9  C   UNL     1       9.001  12.295  22.052  0.00  0.00    +0.000 A 
ATOM     10  C   UNL     1       7.895  11.909  22.799  0.00  0.00    +0.000 A 
ATOM     11  C   UNL     1       6.736  12.679  22.741  0.00  0.00    +0.000 A 
ATOM     12  C   UNL     1       6.688  13.830  21.940  0.00  0.00    +0.000 A 
ATOM     13  C   UNL     1       7.793  14.242  21.167  0.00  0.00    +0.000 A 
ENDROOT
BRANCH   6  14
ATOM     14  C   UNL     1       9.818  11.630  19.053  0.00  0.00    +0.000 A 
ATOM     15  C   UNL     1       9.814  10.358  19.626  0.00  0.00    +0.000 A 
ATOM     16  C   UNL     1       9.034   9.313  19.135  0.00  0.00    +0.000 A 
ATOM     17  C   UNL     1       8.203   9.498  18.046  0.00  0.00    +0.000 A 
ATOM     18  C   UNL     1       8.164  10.776  17.463  0.00  0.00    +0.000 A 
ATOM     19  C   UNL     1       8.955  11.833  17.973  0.00  0.00    +0.000 A 
BRANCH  17  20
ATOM     20  N   UNL     1       7.416   8.452  17.504  0.00  0.00    +0.000 N 
ATOM     21  C   UNL     1       7.501   7.114  17.866  0.00  0.00    +0.000 C 
ATOM     22  O   UNL     1       8.181   6.666  18.783  0.00  0.00    +0.000 OA
ATOM     23  H   UNL     1       6.714   8.718  16.825  0.00  0.00    +0.000 HD
BRANCH  21  24
ATOM     24  C   UNL     1       6.698   6.139  17.064  0.00  0.00    +0.000 A 
ATOM     25  C   UNL     1       7.164   5.737  15.800  0.00  0.00    +0.000 A 
ATOM     26  C   UNL     1       6.489   4.751  15.078  0.00  0.00    +0.000 A 
ATOM     27  C   UNL     1       5.358   4.144  15.617  0.00  0.00    +0.000 A 
ATOM     28  C   UNL     1       4.888   4.529  16.871  0.00  0.00    +0.000 A 
ATOM     29  C   UNL     1       5.539   5.533  17.607  0.00  0.00    +0.000 A 
ATOM     30  C   UNL     1       4.965   5.923  18.945  0.00  0.00    +0.000 C 
ENDBRANCH  21  24
ENDBRANCH  17  20
ENDBRANCH   6  14
BRANCH   1  31
ATOM     31  N   UNL     1       7.628  15.516  18.851  0.00  0.00    +0.000 NA
ATOM     32  C   UNL     1       7.950  16.816  18.256  0.00  0.00    +0.000 C 
BRANCH  31  33
ATOM     33  C   UNL     1       6.435  14.911  18.257  0.00  0.00    +0.000 C 
BRANCH  33  35
ATOM     34  C   UNL     1       4.373  16.421  18.473  0.00  0.00    +0.000 C 
ATOM     35  C   UNL     1       5.047  15.126  18.879  0.00  0.00    +0.000 C 
ENDBRANCH  33  35
ENDBRANCH  31  33
ENDBRANCH   1  31
TORSDOF 6
ENDMDL
MODEL 5
REMARK VINA RESULT:      -7.7      0.653      1.125
REMARK  Name = 
REMARK  9 active torsions:
REMARK  status: ('A' for Active; 'I' for Inactive)
REMARK    1  A    between atoms: C_1  and  C_2
REMARK    2  A    between atoms: C_2  and  C_3
REMARK    3  A    between atoms: C_3  and  N_4
REMARK    4  A    between atoms: N_4  and  C_5
REMARK    5  A    between atoms: N_4  and  C_6
REMARK    6  A    between atoms: C_11  and  C_13
REMARK    7  A    between atoms: C_16  and  N_17
REMARK    8  A    between atoms: C_18  and  C_20
REMARK    9  A    between atoms: C_25  and  C_26
REMARK                            x       y       z     vdW  Elec       q    Type
REMARK                         _______ _______ _______ _____ _____    ______ ____
ROOT
ATOM      1  C   UNL     1      -0.383  13.599  19.053  0.00  0.00    +0.000 C 
ATOM      2  C   UNL     1      -1.275  14.255  20.131  0.00  0.00    +0.000 C 
ATOM      3  C   UNL     1      -1.311  13.669  21.545  0.00  0.00    +0.000 C 
ATOM      4  C   UNL     1      -1.466  12.145  21.719  0.00  0.00    +0.000 C 
ATOM      5  N   UNL     1      -0.698  11.265  20.821  0.00  0.00    +0.000 N 
ATOM      6  C   UNL     1       0.149  10.243  21.324  0.00  0.00    +0.000 C 
ATOM      7  O   UNL     1       0.311  10.059  22.532  0.00  0.00    +0.000 OA
ATOM      8  C   UNL     1      -1.223  11.194  19.516  0.00  0.00    +0.000 A 
ATOM      9  C   UNL     1      -1.879  10.018  19.122  0.00  0.00    +0.000 A 
ATOM     10  C   UNL     1      -2.355   9.879  17.824  0.00  0.00    +0.000 A 
ATOM     11  C   UNL     1      -2.179  10.926  16.923  0.00  0.00    +0.000 A 
ATOM     12  C   UNL     1      -1.529  12.104  17.321  0.00  0.00    +0.000 A 
ATOM     13  C   UNL     1      -1.030  12.270  18.629  0.00  0.00    +0.000 A 
ENDROOT
BRANCH   6  14
ATOM     14  C   UNL     1       0.976   9.380  20.367  0.00  0.00    +0.000 A 
ATOM     15  C   UNL     1       1.433   9.836  19.130  0.00  0.00    +0.000 A 
ATOM     16  C   UNL     1       2.201   9.048  18.275  0.00  0.00    +0.000 A 
ATOM     17  C   UNL     1       2.563   7.761  18.628  0.00  0.00    +0.000 A 
ATOM     18  C   UNL     1       2.140   7.283  19.879  0.00  0.00    +0.000 A 
ATOM     19  C   UNL     1       1.365   8.093  20.744  0.00  0.00    +0.000 A 
BRANCH  17  20
ATOM     20  N   UNL     1       3.320   6.923  17.772  0.00  0.00    +0.000 N 
ATOM     21  C   UNL     1       4.288   6.018  18.186  0.00  0.00    +0.000 C 
ATOM     22  O   UNL     1       4.542   5.730  19.351  0.00  0.00    +0.000 OA
ATOM     23  H   UNL     1       3.104   6.972  16.784  0.00  0.00    +0.000 HD
BRANCH  21  24
ATOM     24  C   UNL     1       5.090   5.342  17.119  0.00  0.00    +0.000 A 
ATOM     25  C   UNL     1       4.545   4.234  16.446  0.00  0.00    +0.000 A 
ATOM     26  C   UNL     1       5.227   3.651  15.376  0.00  0.00    +0.000 A 
ATOM     27  C   UNL     1       6.445   4.177  14.957  0.00  0.00    +0.000 A 
ATOM     28  C   UNL     1       6.995   5.278  15.612  0.00  0.00    +0.000 A 
ATOM     29  C   UNL     1       6.336   5.868  16.703  0.00  0.00    +0.000 A 
ATOM     30  C   UNL     1       6.996   7.039  17.385  0.00  0.00    +0.000 C 
ENDBRANCH  21  24
ENDBRANCH  17  20
ENDBRANCH   6  14
BRANCH   1  31
ATOM     31  N   UNL     1       1.102  13.705  19.265  0.00  0.00    +0.000 NA
ATOM     32  C   UNL     1       1.857  13.090  18.170  0.00  0.00    +0.000 C 
BRANCH  31  33
ATOM     33  C   UNL     1       1.634  13.345  20.580  0.00  0.00    +0.000 C 
BRANCH  33  35
ATOM     34  C   UNL     1       2.000  15.641  21.664  0.00  0.00    +0.000 C 
ATOM     35  C   UNL     1       2.590  14.286  21.329  0.00  0.00    +0.000 C 
ENDBRANCH  33  35
ENDBRANCH  31  33
ENDBRANCH   1  31
TORSDOF 6
ENDMDL
MODEL 6
REMARK VINA RESULT:      -7.7      0.762      1.599
REMARK  Name = 
REMARK  9 active torsions:
REMARK  status: ('A' for Active; 'I' for Inactive)
REMARK    1  A    between atoms: C_1  and  C_2
REMARK    2  A    between atoms: C_2  and  C_3
REMARK    3  A    between atoms: C_3  and  N_4
REMARK    4  A    between atoms: N_4  and  C_5
REMARK    5  A    between atoms: N_4  and  C_6
REMARK    6  A    between atoms: C_11  and  C_13
REMARK    7  A    between atoms: C_16  and  N_17
REMARK    8  A    between atoms: C_18  and  C_20
REMARK    9  A    between atoms: C_25  and  C_26
REMARK                            x       y       z     vdW  Elec       q    Type
REMARK                         _______ _______ _______ _____ _____    ______ ____
ROOT
ATOM      1  C   UNL     1      -0.277  13.626  19.122  0.00  0.00    +0.000 C 
ATOM      2  C   UNL     1      -1.123  14.303  20.225  0.00  0.00    +0.000 C 
ATOM      3  C   UNL     1      -1.141  13.710  21.636  0.00  0.00    +0.000 C 
ATOM      4  C   UNL     1      -1.337  12.191  21.807  0.00  0.00    +0.000 C 
ATOM      5  N   UNL     1      -0.618  11.293  20.886  0.00  0.00    +0.000 N 
ATOM      6  C   UNL     1       0.210  10.244  21.363  0.00  0.00    +0.000 C 
ATOM      7  O   UNL     1       0.396  10.048  22.566  0.00  0.00    +0.000 OA
ATOM      8  C   UNL     1      -1.178  11.245  19.594  0.00  0.00    +0.000 A 
ATOM      9  C   UNL     1      -1.878  10.091  19.211  0.00  0.00    +0.000 A 
ATOM     10  C   UNL     1      -2.389   9.974  17.925  0.00  0.00    +0.000 A 
ATOM     11  C   UNL     1      -2.204  11.020  17.024  0.00  0.00    +0.000 A 
ATOM     12  C   UNL     1      -1.510  12.176  17.412  0.00  0.00    +0.000 A 
ATOM     13  C   UNL     1      -0.974  12.320  18.708  0.00  0.00    +0.000 A 
ENDROOT
BRANCH   6  14
ATOM     14  C   UNL     1       0.986   9.362  20.382  0.00  0.00    +0.000 A 
ATOM     15  C   UNL     1       1.408   9.804  19.128  0.00  0.00    +0.000 A 
ATOM     16  C   UNL     1       2.132   8.999  18.250  0.00  0.00    +0.000 A 
ATOM     17  C   UNL     1       2.481   7.706  18.596  0.00  0.00    +0.000 A 
ATOM     18  C   UNL     1       2.094   7.242  19.863  0.00  0.00    +0.000 A 
ATOM     19  C   UNL     1       1.365   8.069  20.751  0.00  0.00    +0.000 A 
BRANCH  17  20
ATOM     20  N   UNL     1       3.193   6.852  17.718  0.00  0.00    +0.000 N 
ATOM     21  C   UNL     1       4.268   6.048  18.076  0.00  0.00    +0.000 C 
ATOM     22  O   UNL     1       4.678   5.875  19.218  0.00  0.00    +0.000 OA
ATOM     23  H   UNL     1       2.859   6.803  16.763  0.00  0.00    +0.000 HD
BRANCH  21  24
ATOM     24  C   UNL     1       4.986   5.339  16.971  0.00  0.00    +0.000 A 
ATOM     25  C   UNL     1       6.058   5.979  16.325  0.00  0.00    +0.000 A 
ATOM     26  C   UNL     1       6.811   5.301  15.365  0.00  0.00    +0.000 A 
ATOM     27  C   UNL     1       6.515   3.977  15.055  0.00  0.00    +0.000 A 
ATOM     28  C   UNL     1       5.458   3.329  15.691  0.00  0.00    +0.000 A 
ATOM     29  C   UNL     1       4.674   3.997  16.647  0.00  0.00    +0.000 A 
ATOM     30  C   UNL     1       3.528   3.249  17.279  0.00  0.00    +0.000 C 
ENDBRANCH  21  24
ENDBRANCH  17  20
ENDBRANCH   6  14
BRANCH   1  31
ATOM     31  N   UNL     1       1.215  13.687  19.297  0.00  0.00    +0.000 NA
ATOM     32  C   UNL     1       1.922  12.963  18.237  0.00  0.00    +0.000 C 
BRANCH  31  33
ATOM     33  C   UNL     1       1.761  13.404  20.625  0.00  0.00    +0.000 C 
BRANCH  33  35
ATOM     34  C   UNL     1       2.540  15.844  20.757  0.00  0.00    +0.000 C 
ATOM     35  C   UNL     1       2.544  14.473  21.402  0.00  0.00    +0.000 C 
ENDBRANCH  33  35
ENDBRANCH  31  33
ENDBRANCH   1  31
TORSDOF 6
ENDMDL
MODEL 7
REMARK VINA RESULT:      -7.6      7.420     11.683
REMARK  Name = 
REMARK  9 active torsions:
REMARK  status: ('A' for Active; 'I' for Inactive)
REMARK    1  A    between atoms: C_1  and  C_2
REMARK    2  A    between atoms: C_2  and  C_3
REMARK    3  A    between atoms: C_3  and  N_4
REMARK    4  A    between atoms: N_4  and  C_5
REMARK    5  A    between atoms: N_4  and  C_6
REMARK    6  A    between atoms: C_11  and  C_13
REMARK    7  A    between atoms: C_16  and  N_17
REMARK    8  A    between atoms: C_18  and  C_20
REMARK    9  A    between atoms: C_25  and  C_26
REMARK                            x       y       z     vdW  Elec       q    Type
REMARK                         _______ _______ _______ _____ _____    ______ ____
ROOT
ATOM      1  C   UNL     1       9.947  12.626  17.719  0.00  0.00    +0.000 C 
ATOM      2  C   UNL     1      10.989  13.153  16.706  0.00  0.00    +0.000 C 
ATOM      3  C   UNL     1      12.062  14.142  17.168  0.00  0.00    +0.000 C 
ATOM      4  C   UNL     1      11.646  15.348  18.032  0.00  0.00    +0.000 C 
ATOM      5  N   UNL     1      10.663  15.123  19.106  0.00  0.00    +0.000 N 
ATOM      6  C   UNL     1      10.924  15.507  20.448  0.00  0.00    +0.000 C 
ATOM      7  O   UNL     1      11.992  16.018  20.789  0.00  0.00    +0.000 OA
ATOM      8  C   UNL     1       9.342  14.969  18.640  0.00  0.00    +0.000 A 
ATOM      9  C   UNL     1       8.433  16.016  18.851  0.00  0.00    +0.000 A 
ATOM     10  C   UNL     1       7.105  15.882  18.466  0.00  0.00    +0.000 A 
ATOM     11  C   UNL     1       6.691  14.697  17.862  0.00  0.00    +0.000 A 
ATOM     12  C   UNL     1       7.605  13.654  17.645  0.00  0.00    +0.000 A 
ATOM     13  C   UNL     1       8.957  13.761  18.031  0.00  0.00    +0.000 A 
ENDROOT
BRANCH   6  14
ATOM     14  C   UNL     1       9.905  15.211  21.551  0.00  0.00    +0.000 A 
ATOM     15  C   UNL     1       9.476  13.921  21.867  0.00  0.00    +0.000 A 
ATOM     16  C   UNL     1       8.562  13.661  22.887  0.00  0.00    +0.000 A 
ATOM     17  C   UNL     1       8.042  14.687  23.653  0.00  0.00    +0.000 A 
ATOM     18  C   UNL     1       8.475  15.994  23.376  0.00  0.00    +0.000 A 
ATOM     19  C   UNL     1       9.408  16.248  22.343  0.00  0.00    +0.000 A 
BRANCH  17  20
ATOM     20  N   UNL     1       7.091  14.462  24.680  0.00  0.00    +0.000 N 
ATOM     21  C   UNL     1       7.364  13.887  25.914  0.00  0.00    +0.000 C 
ATOM     22  O   UNL     1       8.480  13.602  26.336  0.00  0.00    +0.000 OA
ATOM     23  H   UNL     1       6.147  14.783  24.501  0.00  0.00    +0.000 HD
BRANCH  21  24
ATOM     24  C   UNL     1       6.196  13.588  26.800  0.00  0.00    +0.000 A 
ATOM     25  C   UNL     1       5.641  14.618  27.579  0.00  0.00    +0.000 A 
ATOM     26  C   UNL     1       4.488  14.393  28.333  0.00  0.00    +0.000 A 
ATOM     27  C   UNL     1       3.868  13.147  28.301  0.00  0.00    +0.000 A 
ATOM     28  C   UNL     1       4.404  12.118  27.529  0.00  0.00    +0.000 A 
ATOM     29  C   UNL     1       5.575  12.317  26.778  0.00  0.00    +0.000 A 
ATOM     30  C   UNL     1       6.118  11.156  25.985  0.00  0.00    +0.000 C 
ENDBRANCH  21  24
ENDBRANCH  17  20
ENDBRANCH   6  14
BRANCH   1  31
ATOM     31  N   UNL     1      10.471  11.733  18.809  0.00  0.00    +0.000 NA
ATOM     32  C   UNL     1      11.914  11.506  18.684  0.00  0.00    +0.000 C 
BRANCH  31  33
ATOM     33  C   UNL     1       9.737  10.500  19.097  0.00  0.00    +0.000 C 
BRANCH  33  35
ATOM     34  C   UNL     1       8.347   8.535  18.211  0.00  0.00    +0.000 C 
ATOM     35  C   UNL     1       8.595  10.030  18.183  0.00  0.00    +0.000 C 
ENDBRANCH  33  35
ENDBRANCH  31  33
ENDBRANCH   1  31
TORSDOF 6
ENDMDL
MODEL 8
REMARK VINA RESULT:      -7.5      1.839      2.470
REMARK  Name = 
REMARK  9 active torsions:
REMARK  status: ('A' for Active; 'I' for Inactive)
REMARK    1  A    between atoms: C_1  and  C_2
REMARK    2  A    between atoms: C_2  and  C_3
REMARK    3  A    between atoms: C_3  and  N_4
REMARK    4  A    between atoms: N_4  and  C_5
REMARK    5  A    between atoms: N_4  and  C_6
REMARK    6  A    between atoms: C_11  and  C_13
REMARK    7  A    between atoms: C_16  and  N_17
REMARK    8  A    between atoms: C_18  and  C_20
REMARK    9  A    between atoms: C_25  and  C_26
REMARK                            x       y       z     vdW  Elec       q    Type
REMARK                         _______ _______ _______ _____ _____    ______ ____
ROOT
ATOM      1  C   UNL     1      -0.124  14.395  19.773  0.00  0.00    +0.000 C 
ATOM      2  C   UNL     1      -1.142  15.351  20.437  0.00  0.00    +0.000 C 
ATOM      3  C   UNL     1      -1.743  14.990  21.798  0.00  0.00    +0.000 C 
ATOM      4  C   UNL     1      -2.273  13.561  22.027  0.00  0.00    +0.000 C 
ATOM      5  N   UNL     1      -1.474  12.436  21.508  0.00  0.00    +0.000 N 
ATOM      6  C   UNL     1      -1.070  11.361  22.343  0.00  0.00    +0.000 C 
ATOM      7  O   UNL     1      -1.337  11.328  23.546  0.00  0.00    +0.000 OA
ATOM      8  C   UNL     1      -1.569  12.274  20.112  0.00  0.00    +0.000 A 
ATOM      9  C   UNL     1      -2.309  11.191  19.614  0.00  0.00    +0.000 A 
ATOM     10  C   UNL     1      -2.375  10.955  18.246  0.00  0.00    +0.000 A 
ATOM     11  C   UNL     1      -1.703  11.811  17.378  0.00  0.00    +0.000 A 
ATOM     12  C   UNL     1      -0.970  12.898  17.878  0.00  0.00    +0.000 A 
ATOM     13  C   UNL     1      -0.880  13.158  19.261  0.00  0.00    +0.000 A 
ENDROOT
BRANCH   6  14
ATOM     14  C   UNL     1      -0.195  10.235  21.787  0.00  0.00    +0.000 A 
ATOM     15  C   UNL     1       0.899  10.460  20.951  0.00  0.00    +0.000 A 
ATOM     16  C   UNL     1       1.700   9.428  20.466  0.00  0.00    +0.000 A 
ATOM     17  C   UNL     1       1.449   8.112  20.810  0.00  0.00    +0.000 A 
ATOM     18  C   UNL     1       0.370   7.856  21.672  0.00  0.00    +0.000 A 
ATOM     19  C   UNL     1      -0.434   8.912  22.165  0.00  0.00    +0.000 A 
BRANCH  17  20
ATOM     20  N   UNL     1       2.227   7.036  20.315  0.00  0.00    +0.000 N 
ATOM     21  C   UNL     1       2.735   6.940  19.026  0.00  0.00    +0.000 C 
ATOM     22  O   UNL     1       2.683   7.819  18.172  0.00  0.00    +0.000 OA
ATOM     23  H   UNL     1       2.455   6.301  20.973  0.00  0.00    +0.000 HD
BRANCH  21  24
ATOM     24  C   UNL     1       3.395   5.651  18.648  0.00  0.00    +0.000 A 
ATOM     25  C   UNL     1       4.748   5.450  18.972  0.00  0.00    +0.000 A 
ATOM     26  C   UNL     1       5.359   4.219  18.726  0.00  0.00    +0.000 A 
ATOM     27  C   UNL     1       4.624   3.175  18.174  0.00  0.00    +0.000 A 
ATOM     28  C   UNL     1       3.280   3.358  17.852  0.00  0.00    +0.000 A 
ATOM     29  C   UNL     1       2.650   4.595  18.073  0.00  0.00    +0.000 A 
ATOM     30  C   UNL     1       1.202   4.737  17.678  0.00  0.00    +0.000 C 
ENDBRANCH  21  24
ENDBRANCH  17  20
ENDBRANCH   6  14
BRANCH   1  31
ATOM     31  N   UNL     1       1.207  14.261  20.460  0.00  0.00    +0.000 NA
ATOM     32  C   UNL     1       1.620  15.512  21.103  0.00  0.00    +0.000 C 
BRANCH  31  33
ATOM     33  C   UNL     1       2.299  13.628  19.721  0.00  0.00    +0.000 C 
BRANCH  33  35
ATOM     34  C   UNL     1       3.696  14.981  18.048  0.00  0.00    +0.000 C 
ATOM     35  C   UNL     1       2.571  13.987  18.252  0.00  0.00    +0.000 C 
ENDBRANCH  33  35
ENDBRANCH  31  33
ENDBRANCH   1  31
TORSDOF 6
ENDMDL
MODEL 9
REMARK VINA RESULT:      -7.4      2.781      3.647
REMARK  Name = 
REMARK  9 active torsions:
REMARK  status: ('A' for Active; 'I' for Inactive)
REMARK    1  A    between atoms: C_1  and  C_2
REMARK    2  A    between atoms: C_2  and  C_3
REMARK    3  A    between atoms: C_3  and  N_4
REMARK    4  A    between atoms: N_4  and  C_5
REMARK    5  A    between atoms: N_4  and  C_6
REMARK    6  A    between atoms: C_11  and  C_13
REMARK    7  A    between atoms: C_16  and  N_17
REMARK    8  A    between atoms: C_18  and  C_20
REMARK    9  A    between atoms: C_25  and  C_26
REMARK                            x       y       z     vdW  Elec       q    Type
REMARK                         _______ _______ _______ _____ _____    ______ ____
ROOT
ATOM      1  C   UNL     1       0.351  14.259  18.604  0.00  0.00    +0.000 C 
ATOM      2  C   UNL     1      -0.243  15.628  19.009  0.00  0.00    +0.000 C 
ATOM      3  C   UNL     1      -0.583  15.902  20.476  0.00  0.00    +0.000 C 
ATOM      4  C   UNL     1      -1.358  14.838  21.276  0.00  0.00    +0.000 C 
ATOM      5  N   UNL     1      -0.978  13.425  21.096  0.00  0.00    +0.000 N 
ATOM      6  C   UNL     1      -0.650  12.594  22.199  0.00  0.00    +0.000 C 
ATOM      7  O   UNL     1      -0.635  13.016  23.357  0.00  0.00    +0.000 OA
ATOM      8  C   UNL     1      -1.424  12.872  19.879  0.00  0.00    +0.000 A 
ATOM      9  C   UNL     1      -2.486  11.956  19.912  0.00  0.00    +0.000 A 
ATOM     10  C   UNL     1      -2.915  11.336  18.744  0.00  0.00    +0.000 A 
ATOM     11  C   UNL     1      -2.283  11.643  17.543  0.00  0.00    +0.000 A 
ATOM     12  C   UNL     1      -1.226  12.565  17.512  0.00  0.00    +0.000 A 
ATOM     13  C   UNL     1      -0.765  13.204  18.681  0.00  0.00    +0.000 A 
ENDROOT
BRANCH   6  14
ATOM     14  C   UNL     1      -0.207  11.146  21.975  0.00  0.00    +0.000 A 
ATOM     15  C   UNL     1       0.745  10.778  21.024  0.00  0.00    +0.000 A 
ATOM     16  C   UNL     1       1.155   9.459  20.842  0.00  0.00    +0.000 A 
ATOM     17  C   UNL     1       0.636   8.439  21.619  0.00  0.00    +0.000 A 
ATOM     18  C   UNL     1      -0.305   8.783  22.604  0.00  0.00    +0.000 A 
ATOM     19  C   UNL     1      -0.711  10.127  22.786  0.00  0.00    +0.000 A 
BRANCH  17  20
ATOM     20  N   UNL     1       1.010   7.084  21.443  0.00  0.00    +0.000 N 
ATOM     21  C   UNL     1       1.877   6.611  20.467  0.00  0.00    +0.000 C 
ATOM     22  O   UNL     1       2.530   7.307  19.697  0.00  0.00    +0.000 OA
ATOM     23  H   UNL     1       0.637   6.421  22.112  0.00  0.00    +0.000 HD
BRANCH  21  24
ATOM     24  C   UNL     1       2.020   5.127  20.344  0.00  0.00    +0.000 A 
ATOM     25  C   UNL     1       2.254   4.360  21.498  0.00  0.00    +0.000 A 
ATOM     26  C   UNL     1       2.287   2.966  21.427  0.00  0.00    +0.000 A 
ATOM     27  C   UNL     1       2.069   2.326  20.211  0.00  0.00    +0.000 A 
ATOM     28  C   UNL     1       1.831   3.073  19.059  0.00  0.00    +0.000 A 
ATOM     29  C   UNL     1       1.813   4.478  19.104  0.00  0.00    +0.000 A 
ATOM     30  C   UNL     1       1.577   5.229  17.818  0.00  0.00    +0.000 C 
ENDBRANCH  21  24
ENDBRANCH  17  20
ENDBRANCH   6  14
BRANCH   1  31
ATOM     31  N   UNL     1       1.737  13.961  19.106  0.00  0.00    +0.000 NA
ATOM     32  C   UNL     1       2.733  14.872  18.535  0.00  0.00    +0.000 C 
BRANCH  31  33
ATOM     33  C   UNL     1       2.184  12.568  19.096  0.00  0.00    +0.000 C 
BRANCH  33  35
ATOM     34  C   UNL     1       2.205  10.379  17.759  0.00  0.00    +0.000 C 
ATOM     35  C   UNL     1       2.528  11.859  17.777  0.00  0.00    +0.000 C 
ENDBRANCH  33  35
ENDBRANCH  31  33
ENDBRANCH   1  31
TORSDOF 6
ENDMDL
