MODEL 1
REMARK VINA RESULT:      -5.2      0.000      0.000
REMARK  Name = 
REMARK  6 active torsions:
REMARK  status: ('A' for Active; 'I' for Inactive)
REMARK    1  A    between atoms: C_1  and  C_2
REMARK    2  A    between atoms: C_2  and  C_3
REMARK    3  A    between atoms: C_3  and  O_4
REMARK    4  A    between atoms: C_7  and  O_8
REMARK    5  A    between atoms: C_9  and  O_10
REMARK    6  A    between atoms: C_11  and  O_12
REMARK                            x       y       z     vdW  Elec       q    Type
REMARK                         _______ _______ _______ _____ _____    ______ ____
ROOT
ATOM      1  C   UNL     1       5.284   3.484  16.103  0.00  0.00    +0.000 C 
ATOM      2  C   UNL     1       5.594   4.546  17.188  0.00  0.00    +0.000 C 
ATOM      3  N   UNL     1       5.244   5.885  16.656  0.00  0.00    +0.000 NA
ATOM      4  C   UNL     1       5.605   6.995  17.559  0.00  0.00    +0.000 C 
ATOM      5  C   UNL     1       7.131   7.021  17.825  0.00  0.00    +0.000 C 
ATOM      6  C   UNL     1       7.582   5.665  18.434  0.00  0.00    +0.000 C 
ATOM      7  C   UNL     1       7.141   4.504  17.507  0.00  0.00    +0.000 C 
ATOM      8  H   UNL     1       4.220   5.940  16.440  0.00  0.00    +0.000 HD
ENDROOT
BRANCH   5   9
ATOM      9  O   UNL     1       7.884   7.296  16.664  0.00  0.00    +0.000 OA
ATOM     10  H   UNL     1       8.809   7.558  16.907  0.00  0.00    +0.000 HD
ENDBRANCH   5   9
BRANCH   6  11
ATOM     11  O   UNL     1       7.056   5.454  19.723  0.00  0.00    +0.000 OA
ATOM     12  H   UNL     1       6.117   5.767  19.752  0.00  0.00    +0.000 HD
ENDBRANCH   6  11
BRANCH   7  13
ATOM     13  O   UNL     1       7.929   4.517  16.336  0.00  0.00    +0.000 OA
ATOM     14  H   UNL     1       7.442   4.061  15.602  0.00  0.00    +0.000 HD
ENDBRANCH   7  13
BRANCH   2  15
ATOM     15  C   UNL     1       4.722   4.195  18.438  0.00  0.00    +0.000 C 
BRANCH  15  16
ATOM     16  O   UNL     1       5.306   3.162  19.192  0.00  0.00    +0.000 OA
ATOM     17  H   UNL     1       5.050   2.305  18.763  0.00  0.00    +0.000 HD
ENDBRANCH  15  16
ENDBRANCH   2  15
TORSDOF 5
ENDMDL
MODEL 2
REMARK VINA RESULT:      -5.2      2.183      3.203
REMARK  Name = 
REMARK  6 active torsions:
REMARK  status: ('A' for Active; 'I' for Inactive)
REMARK    1  A    between atoms: C_1  and  C_2
REMARK    2  A    between atoms: C_2  and  C_3
REMARK    3  A    between atoms: C_3  and  O_4
REMARK    4  A    between atoms: C_7  and  O_8
REMARK    5  A    between atoms: C_9  and  O_10
REMARK    6  A    between atoms: C_11  and  O_12
REMARK                            x       y       z     vdW  Elec       q    Type
REMARK                         _______ _______ _______ _____ _____    ______ ____
ROOT
ATOM      1  C   UNL     1       3.192   1.715  18.087  0.00  0.00    +0.000 C 
ATOM      2  C   UNL     1       3.666   3.186  17.970  0.00  0.00    +0.000 C 
ATOM      3  N   UNL     1       4.683   3.273  16.895  0.00  0.00    +0.000 NA
ATOM      4  C   UNL     1       5.297   4.610  16.766  0.00  0.00    +0.000 C 
ATOM      5  C   UNL     1       6.018   5.017  18.076  0.00  0.00    +0.000 C 
ATOM      6  C   UNL     1       5.009   5.001  19.258  0.00  0.00    +0.000 C 
ATOM      7  C   UNL     1       4.325   3.613  19.341  0.00  0.00    +0.000 C 
ATOM      8  H   UNL     1       4.269   3.000  15.972  0.00  0.00    +0.000 HD
ENDROOT
BRANCH   5   9
ATOM      9  O   UNL     1       7.118   4.187  18.376  0.00  0.00    +0.000 OA
ATOM     10  H   UNL     1       7.488   4.415  19.269  0.00  0.00    +0.000 HD
ENDBRANCH   5   9
BRANCH   6  11
ATOM     11  O   UNL     1       4.022   5.997  19.135  0.00  0.00    +0.000 OA
ATOM     12  H   UNL     1       3.293   5.823  19.782  0.00  0.00    +0.000 HD
ENDBRANCH   6  11
BRANCH   7  13
ATOM     13  O   UNL     1       5.258   2.660  19.806  0.00  0.00    +0.000 OA
ATOM     14  H   UNL     1       4.803   1.790  19.944  0.00  0.00    +0.000 HD
ENDBRANCH   7  13
BRANCH   2  15
ATOM     15  C   UNL     1       2.409   4.049  17.624  0.00  0.00    +0.000 C 
BRANCH  15  16
ATOM     16  O   UNL     1       1.601   4.248  18.756  0.00  0.00    +0.000 OA
ATOM     17  H   UNL     1       0.802   4.758  18.462  0.00  0.00    +0.000 HD
ENDBRANCH  15  16
ENDBRANCH   2  15
TORSDOF 5
ENDMDL
MODEL 3
REMARK VINA RESULT:      -5.1      2.685      4.528
REMARK  Name = 
REMARK  6 active torsions:
REMARK  status: ('A' for Active; 'I' for Inactive)
REMARK    1  A    between atoms: C_1  and  C_2
REMARK    2  A    between atoms: C_2  and  C_3
REMARK    3  A    between atoms: C_3  and  O_4
REMARK    4  A    between atoms: C_7  and  O_8
REMARK    5  A    between atoms: C_9  and  O_10
REMARK    6  A    between atoms: C_11  and  O_12
REMARK                            x       y       z     vdW  Elec       q    Type
REMARK                         _______ _______ _______ _____ _____    ______ ____
ROOT
ATOM      1  C   UNL     1       6.437   4.905  18.290  0.00  0.00    +0.000 C 
ATOM      2  C   UNL     1       5.068   4.276  18.650  0.00  0.00    +0.000 C 
ATOM      3  N   UNL     1       5.295   3.145  19.581  0.00  0.00    +0.000 NA
ATOM      4  C   UNL     1       4.069   2.389  19.906  0.00  0.00    +0.000 C 
ATOM      5  C   UNL     1       3.439   1.778  18.629  0.00  0.00    +0.000 C 
ATOM      6  C   UNL     1       3.120   2.906  17.610  0.00  0.00    +0.000 C 
ATOM      7  C   UNL     1       4.400   3.730  17.326  0.00  0.00    +0.000 C 
ATOM      8  H   UNL     1       5.733   3.482  20.471  0.00  0.00    +0.000 HD
ENDROOT
BRANCH   5   9
ATOM      9  O   UNL     1       4.263   0.806  18.024  0.00  0.00    +0.000 OA
ATOM     10  H   UNL     1       4.332   0.972  17.048  0.00  0.00    +0.000 HD
ENDBRANCH   5   9
BRANCH   6  11
ATOM     11  O   UNL     1       2.104   3.768  18.063  0.00  0.00    +0.000 OA
ATOM     12  H   UNL     1       2.155   3.850  19.049  0.00  0.00    +0.000 HD
ENDBRANCH   6  11
BRANCH   7  13
ATOM     13  O   UNL     1       5.295   2.955  16.557  0.00  0.00    +0.000 OA
ATOM     14  H   UNL     1       4.813   2.555  15.788  0.00  0.00    +0.000 HD
ENDBRANCH   7  13
BRANCH   2  15
ATOM     15  C   UNL     1       4.211   5.395  19.327  0.00  0.00    +0.000 C 
BRANCH  15  16
ATOM     16  O   UNL     1       3.678   6.277  18.370  0.00  0.00    +0.000 OA
ATOM     17  H   UNL     1       3.625   7.173  18.793  0.00  0.00    +0.000 HD
ENDBRANCH  15  16
ENDBRANCH   2  15
TORSDOF 5
ENDMDL
MODEL 4
REMARK VINA RESULT:      -5.1      3.224      4.813
REMARK  Name = 
REMARK  6 active torsions:
REMARK  status: ('A' for Active; 'I' for Inactive)
REMARK    1  A    between atoms: C_1  and  C_2
REMARK    2  A    between atoms: C_2  and  C_3
REMARK    3  A    between atoms: C_3  and  O_4
REMARK    4  A    between atoms: C_7  and  O_8
REMARK    5  A    between atoms: C_9  and  O_10
REMARK    6  A    between atoms: C_11  and  O_12
REMARK                            x       y       z     vdW  Elec       q    Type
REMARK                         _______ _______ _______ _____ _____    ______ ____
ROOT
ATOM      1  C   UNL     1       3.623   5.820  17.772  0.00  0.00    +0.000 C 
ATOM      2  C   UNL     1       3.101   4.503  18.400  0.00  0.00    +0.000 C 
ATOM      3  N   UNL     1       3.558   4.435  19.809  0.00  0.00    +0.000 NA
ATOM      4  C   UNL     1       3.220   3.165  20.481  0.00  0.00    +0.000 C 
ATOM      5  C   UNL     1       3.874   1.961  19.756  0.00  0.00    +0.000 C 
ATOM      6  C   UNL     1       3.409   1.925  18.274  0.00  0.00    +0.000 C 
ATOM      7  C   UNL     1       3.712   3.286  17.598  0.00  0.00    +0.000 C 
ATOM      8  H   UNL     1       3.162   5.230  20.364  0.00  0.00    +0.000 HD
ENDROOT
BRANCH   5   9
ATOM      9  O   UNL     1       5.283   1.988  19.813  0.00  0.00    +0.000 OA
ATOM     10  H   UNL     1       5.656   2.348  18.967  0.00  0.00    +0.000 HD
ENDBRANCH   5   9
BRANCH   6  11
ATOM     11  O   UNL     1       2.036   1.642  18.148  0.00  0.00    +0.000 OA
ATOM     12  H   UNL     1       1.719   1.174  18.962  0.00  0.00    +0.000 HD
ENDBRANCH   6  11
BRANCH   7  13
ATOM     13  O   UNL     1       5.106   3.415  17.412  0.00  0.00    +0.000 OA
ATOM     14  H   UNL     1       5.294   3.680  16.475  0.00  0.00    +0.000 HD
ENDBRANCH   7  13
BRANCH   2  15
ATOM     15  C   UNL     1       1.540   4.541  18.318  0.00  0.00    +0.000 C 
BRANCH  15  16
ATOM     16  O   UNL     1       1.086   4.103  17.063  0.00  0.00    +0.000 OA
ATOM     17  H   UNL     1       0.455   4.789  16.723  0.00  0.00    +0.000 HD
ENDBRANCH  15  16
ENDBRANCH   2  15
TORSDOF 5
ENDMDL
MODEL 5
REMARK VINA RESULT:      -5.1      1.781      2.943
REMARK  Name = 
REMARK  6 active torsions:
REMARK  status: ('A' for Active; 'I' for Inactive)
REMARK    1  A    between atoms: C_1  and  C_2
REMARK    2  A    between atoms: C_2  and  C_3
REMARK    3  A    between atoms: C_3  and  O_4
REMARK    4  A    between atoms: C_7  and  O_8
REMARK    5  A    between atoms: C_9  and  O_10
REMARK    6  A    between atoms: C_11  and  O_12
REMARK                            x       y       z     vdW  Elec       q    Type
REMARK                         _______ _______ _______ _____ _____    ______ ____
ROOT
ATOM      1  C   UNL     1       7.953   5.723  19.242  0.00  0.00    +0.000 C 
ATOM      2  C   UNL     1       6.855   5.396  18.199  0.00  0.00    +0.000 C 
ATOM      3  N   UNL     1       7.343   4.307  17.320  0.00  0.00    +0.000 NA
ATOM      4  C   UNL     1       6.427   3.987  16.208  0.00  0.00    +0.000 C 
ATOM      5  C   UNL     1       6.213   5.218  15.292  0.00  0.00    +0.000 C 
ATOM      6  C   UNL     1       5.651   6.402  16.126  0.00  0.00    +0.000 C 
ATOM      7  C   UNL     1       6.590   6.686  17.326  0.00  0.00    +0.000 C 
ATOM      8  H   UNL     1       7.522   3.437  17.875  0.00  0.00    +0.000 HD
ENDROOT
BRANCH   5   9
ATOM      9  O   UNL     1       7.392   5.618  14.629  0.00  0.00    +0.000 OA
ATOM     10  H   UNL     1       7.232   6.451  14.114  0.00  0.00    +0.000 HD
ENDBRANCH   5   9
BRANCH   6  11
ATOM     11  O   UNL     1       4.351   6.153  16.604  0.00  0.00    +0.000 OA
ATOM     12  H   UNL     1       4.016   5.302  16.224  0.00  0.00    +0.000 HD
ENDBRANCH   6  11
BRANCH   7  13
ATOM     13  O   UNL     1       7.786   7.269  16.855  0.00  0.00    +0.000 OA
ATOM     14  H   UNL     1       8.267   7.697  17.609  0.00  0.00    +0.000 HD
ENDBRANCH   7  13
BRANCH   2  15
ATOM     15  C   UNL     1       5.585   4.948  18.993  0.00  0.00    +0.000 C 
BRANCH  15  16
ATOM     16  O   UNL     1       5.660   3.590  19.348  0.00  0.00    +0.000 OA
ATOM     17  H   UNL     1       4.827   3.369  19.841  0.00  0.00    +0.000 HD
ENDBRANCH  15  16
ENDBRANCH   2  15
TORSDOF 5
ENDMDL
MODEL 6
REMARK VINA RESULT:      -5.1      3.771      5.302
REMARK  Name = 
REMARK  6 active torsions:
REMARK  status: ('A' for Active; 'I' for Inactive)
REMARK    1  A    between atoms: C_1  and  C_2
REMARK    2  A    between atoms: C_2  and  C_3
REMARK    3  A    between atoms: C_3  and  O_4
REMARK    4  A    between atoms: C_7  and  O_8
REMARK    5  A    between atoms: C_9  and  O_10
REMARK    6  A    between atoms: C_11  and  O_12
REMARK                            x       y       z     vdW  Elec       q    Type
REMARK                         _______ _______ _______ _____ _____    ______ ____
ROOT
ATOM      1  C   UNL     1       1.823   5.622  20.468  0.00  0.00    +0.000 C 
ATOM      2  C   UNL     1       2.377   4.254  19.997  0.00  0.00    +0.000 C 
ATOM      3  N   UNL     1       3.825   4.400  19.711  0.00  0.00    +0.000 NA
ATOM      4  C   UNL     1       4.442   3.187  19.141  0.00  0.00    +0.000 C 
ATOM      5  C   UNL     1       3.774   2.803  17.797  0.00  0.00    +0.000 C 
ATOM      6  C   UNL     1       2.251   2.580  18.012  0.00  0.00    +0.000 C 
ATOM      7  C   UNL     1       1.628   3.837  18.670  0.00  0.00    +0.000 C 
ATOM      8  H   UNL     1       4.346   4.672  20.578  0.00  0.00    +0.000 HD
ENDROOT
BRANCH   5   9
ATOM      9  O   UNL     1       3.977   3.769  16.789  0.00  0.00    +0.000 OA
ATOM     10  H   UNL     1       4.916   3.741  16.470  0.00  0.00    +0.000 HD
ENDBRANCH   5   9
BRANCH   6  11
ATOM     11  O   UNL     1       1.982   1.455  18.815  0.00  0.00    +0.000 OA
ATOM     12  H   UNL     1       1.140   1.029  18.515  0.00  0.00    +0.000 HD
ENDBRANCH   6  11
BRANCH   7  13
ATOM     13  O   UNL     1       1.587   4.886  17.726  0.00  0.00    +0.000 OA
ATOM     14  H   UNL     1       1.115   4.581  16.909  0.00  0.00    +0.000 HD
ENDBRANCH   7  13
BRANCH   2  15
ATOM     15  C   UNL     1       2.136   3.235  21.158  0.00  0.00    +0.000 C 
BRANCH  15  16
ATOM     16  O   UNL     1       0.791   2.827  21.206  0.00  0.00    +0.000 OA
ATOM     17  H   UNL     1       0.461   2.794  20.271  0.00  0.00    +0.000 HD
ENDBRANCH  15  16
ENDBRANCH   2  15
TORSDOF 5
ENDMDL
MODEL 7
REMARK VINA RESULT:      -5.1      1.810      2.976
REMARK  Name = 
REMARK  6 active torsions:
REMARK  status: ('A' for Active; 'I' for Inactive)
REMARK    1  A    between atoms: C_1  and  C_2
REMARK    2  A    between atoms: C_2  and  C_3
REMARK    3  A    between atoms: C_3  and  O_4
REMARK    4  A    between atoms: C_7  and  O_8
REMARK    5  A    between atoms: C_9  and  O_10
REMARK    6  A    between atoms: C_11  and  O_12
REMARK                            x       y       z     vdW  Elec       q    Type
REMARK                         _______ _______ _______ _____ _____    ______ ____
ROOT
ATOM      1  C   UNL     1       4.046   4.559  19.565  0.00  0.00    +0.000 C 
ATOM      2  C   UNL     1       4.824   4.973  18.290  0.00  0.00    +0.000 C 
ATOM      3  N   UNL     1       5.276   3.747  17.590  0.00  0.00    +0.000 NA
ATOM      4  C   UNL     1       6.132   4.014  16.418  0.00  0.00    +0.000 C 
ATOM      5  C   UNL     1       7.417   4.774  16.831  0.00  0.00    +0.000 C 
ATOM      6  C   UNL     1       7.037   6.106  17.534  0.00  0.00    +0.000 C 
ATOM      7  C   UNL     1       6.088   5.816  18.723  0.00  0.00    +0.000 C 
ATOM      8  H   UNL     1       4.454   3.171  17.287  0.00  0.00    +0.000 HD
ENDROOT
BRANCH   5   9
ATOM      9  O   UNL     1       8.256   4.013  17.673  0.00  0.00    +0.000 OA
ATOM     10  H   UNL     1       9.100   4.503  17.852  0.00  0.00    +0.000 HD
ENDBRANCH   5   9
BRANCH   6  11
ATOM     11  O   UNL     1       6.418   7.018  16.658  0.00  0.00    +0.000 OA
ATOM     12  H   UNL     1       6.378   7.910  17.084  0.00  0.00    +0.000 HD
ENDBRANCH   6  11
BRANCH   7  13
ATOM     13  O   UNL     1       6.815   5.195  19.761  0.00  0.00    +0.000 OA
ATOM     14  H   UNL     1       6.364   4.352  20.026  0.00  0.00    +0.000 HD
ENDBRANCH   7  13
BRANCH   2  15
ATOM     15  C   UNL     1       3.840   5.798  17.397  0.00  0.00    +0.000 C 
BRANCH  15  16
ATOM     16  O   UNL     1       3.692   7.109  17.880  0.00  0.00    +0.000 OA
ATOM     17  H   UNL     1       3.332   7.657  17.136  0.00  0.00    +0.000 HD
ENDBRANCH  15  16
ENDBRANCH   2  15
TORSDOF 5
ENDMDL
MODEL 8
REMARK VINA RESULT:      -5.1      3.306      4.861
REMARK  Name = 
REMARK  6 active torsions:
REMARK  status: ('A' for Active; 'I' for Inactive)
REMARK    1  A    between atoms: C_1  and  C_2
REMARK    2  A    between atoms: C_2  and  C_3
REMARK    3  A    between atoms: C_3  and  O_4
REMARK    4  A    between atoms: C_7  and  O_8
REMARK    5  A    between atoms: C_9  and  O_10
REMARK    6  A    between atoms: C_11  and  O_12
REMARK                            x       y       z     vdW  Elec       q    Type
REMARK                         _______ _______ _______ _____ _____    ______ ____
ROOT
ATOM      1  C   UNL     1       1.006   4.135  20.356  0.00  0.00    +0.000 C 
ATOM      2  C   UNL     1       2.369   3.550  19.905  0.00  0.00    +0.000 C 
ATOM      3  N   UNL     1       3.321   4.667  19.702  0.00  0.00    +0.000 NA
ATOM      4  C   UNL     1       4.626   4.242  19.157  0.00  0.00    +0.000 C 
ATOM      5  C   UNL     1       4.456   3.562  17.775  0.00  0.00    +0.000 C 
ATOM      6  C   UNL     1       3.504   2.341  17.905  0.00  0.00    +0.000 C 
ATOM      7  C   UNL     1       2.163   2.789  18.536  0.00  0.00    +0.000 C 
ATOM      8  H   UNL     1       3.479   5.186  20.598  0.00  0.00    +0.000 HD
ENDROOT
BRANCH   5   9
ATOM      9  O   UNL     1       3.969   4.444  16.788  0.00  0.00    +0.000 OA
ATOM     10  H   UNL     1       4.347   5.352  16.920  0.00  0.00    +0.000 HD
ENDBRANCH   5   9
BRANCH   6  11
ATOM     11  O   UNL     1       4.060   1.307  18.682  0.00  0.00    +0.000 OA
ATOM     12  H   UNL     1       4.428   0.607  18.087  0.00  0.00    +0.000 HD
ENDBRANCH   6  11
BRANCH   7  13
ATOM     13  O   UNL     1       1.440   3.561  17.599  0.00  0.00    +0.000 OA
ATOM     14  H   UNL     1       1.277   4.466  17.969  0.00  0.00    +0.000 HD
ENDBRANCH   7  13
BRANCH   2  15
ATOM     15  C   UNL     1       2.859   2.596  21.044  0.00  0.00    +0.000 C 
BRANCH  15  16
ATOM     16  O   UNL     1       2.352   2.993  22.293  0.00  0.00    +0.000 OA
ATOM     17  H   UNL     1       3.063   3.514  22.747  0.00  0.00    +0.000 HD
ENDBRANCH  15  16
ENDBRANCH   2  15
TORSDOF 5
ENDMDL
MODEL 9
REMARK VINA RESULT:      -5.1      1.149      1.193
REMARK  Name = 
REMARK  6 active torsions:
REMARK  status: ('A' for Active; 'I' for Inactive)
REMARK    1  A    between atoms: C_1  and  C_2
REMARK    2  A    between atoms: C_2  and  C_3
REMARK    3  A    between atoms: C_3  and  O_4
REMARK    4  A    between atoms: C_7  and  O_8
REMARK    5  A    between atoms: C_9  and  O_10
REMARK    6  A    between atoms: C_11  and  O_12
REMARK                            x       y       z     vdW  Elec       q    Type
REMARK                         _______ _______ _______ _____ _____    ______ ____
ROOT
ATOM      1  C   UNL     1       5.243   4.109  14.541  0.00  0.00    +0.000 C 
ATOM      2  C   UNL     1       5.399   4.703  15.963  0.00  0.00    +0.000 C 
ATOM      3  N   UNL     1       5.197   6.170  15.889  0.00  0.00    +0.000 NA
ATOM      4  C   UNL     1       5.437   6.867  17.168  0.00  0.00    +0.000 C 
ATOM      5  C   UNL     1       6.894   6.656  17.651  0.00  0.00    +0.000 C 
ATOM      6  C   UNL     1       7.181   5.137  17.804  0.00  0.00    +0.000 C 
ATOM      7  C   UNL     1       6.865   4.409  16.474  0.00  0.00    +0.000 C 
ATOM      8  H   UNL     1       4.229   6.393  15.557  0.00  0.00    +0.000 HD
ENDROOT
BRANCH   5   9
ATOM      9  O   UNL     1       7.846   7.236  16.787  0.00  0.00    +0.000 OA
ATOM     10  H   UNL     1       8.223   8.060  17.193  0.00  0.00    +0.000 HD
ENDBRANCH   5   9
BRANCH   6  11
ATOM     11  O   UNL     1       6.433   4.551  18.843  0.00  0.00    +0.000 OA
ATOM     12  H   UNL     1       6.729   4.920  19.713  0.00  0.00    +0.000 HD
ENDBRANCH   6  11
BRANCH   7  13
ATOM     13  O   UNL     1       7.844   4.744  15.514  0.00  0.00    +0.000 OA
ATOM     14  H   UNL     1       7.610   5.607  15.087  0.00  0.00    +0.000 HD
ENDBRANCH   7  13
BRANCH   2  15
ATOM     15  C   UNL     1       4.312   4.033  16.865  0.00  0.00    +0.000 C 
BRANCH  15  16
ATOM     16  O   UNL     1       4.711   2.748  17.273  0.00  0.00    +0.000 OA
ATOM     17  H   UNL     1       3.932   2.146  17.149  0.00  0.00    +0.000 HD
ENDBRANCH  15  16
ENDBRANCH   2  15
TORSDOF 5
ENDMDL
