MODEL 1
REMARK VINA RESULT:      -6.9      0.000      0.000
REMARK  Name = 
REMARK  5 active torsions:
REMARK  status: ('A' for Active; 'I' for Inactive)
REMARK    1  A    between atoms: C_1  and  O_2
REMARK    2  A    between atoms: O_2  and  C_3
REMARK    3  A    between atoms: N_11  and  C_12
REMARK    4  A    between atoms: C_12  and  C_13
REMARK    5  A    between atoms: C_16  and  C_17
REMARK                            x       y       z     vdW  Elec       q    Type
REMARK                         _______ _______ _______ _____ _____    ______ ____
ROOT
ATOM      1  C   UNL     1       1.444   7.799  20.391  0.00  0.00    +0.000 A 
ATOM      2  C   UNL     1       1.855   6.490  20.658  0.00  0.00    +0.000 A 
ATOM      3  C   UNL     1       2.634   5.786  19.725  0.00  0.00    +0.000 A 
ATOM      4  C   UNL     1       3.030   6.397  18.525  0.00  0.00    +0.000 A 
ATOM      5  C   UNL     1       2.613   7.711  18.263  0.00  0.00    +0.000 A 
ATOM      6  C   UNL     1       1.820   8.388  19.186  0.00  0.00    +0.000 A 
ATOM      7  F   UNL     1       1.424   9.636  18.890  0.00  0.00    +0.000 F 
ATOM      8  C   UNL     1       3.791   5.640  17.463  0.00  0.00    +0.000 C 
ATOM      9  N   UNL     1       4.345   4.347  17.892  0.00  0.00    +0.000 NA
ATOM     10  C   UNL     1       3.406   3.601  18.743  0.00  0.00    +0.000 C 
ATOM     11  C   UNL     1       3.064   4.372  20.023  0.00  0.00    +0.000 C 
ENDROOT
BRANCH   1  13
ATOM     12  C   UNL     1       1.300   9.253  22.249  0.00  0.00    +0.000 C 
ATOM     13  O   UNL     1       0.637   8.543  21.209  0.00  0.00    +0.000 OA
ENDBRANCH   1  13
BRANCH   9  14
ATOM     14  C   UNL     1       4.793   3.541  16.729  0.00  0.00    +0.000 C 
BRANCH  14  15
ATOM     15  C   UNL     1       5.806   4.196  15.815  0.00  0.00    +0.000 A 
ATOM     16  N   UNL     1       6.827   4.923  16.221  0.00  0.00    +0.000 NA
ATOM     17  N   UNL     1       7.631   5.335  15.184  0.00  0.00    +0.000 NA
ATOM     18  C   UNL     1       7.168   4.949  14.015  0.00  0.00    +0.000 A 
ATOM     19  C   UNL     1       7.806   5.268  12.714  0.00  0.00    +0.000 C 
ATOM     20  S   UNL     1       5.718   4.031  14.102  0.00  0.00    +0.000 S 
ENDBRANCH  14  15
ENDBRANCH   9  14
TORSDOF 3
ENDMDL
MODEL 2
REMARK VINA RESULT:      -6.8      0.975      1.067
REMARK  Name = 
REMARK  5 active torsions:
REMARK  status: ('A' for Active; 'I' for Inactive)
REMARK    1  A    between atoms: C_1  and  O_2
REMARK    2  A    between atoms: O_2  and  C_3
REMARK    3  A    between atoms: N_11  and  C_12
REMARK    4  A    between atoms: C_12  and  C_13
REMARK    5  A    between atoms: C_16  and  C_17
REMARK                            x       y       z     vdW  Elec       q    Type
REMARK                         _______ _______ _______ _____ _____    ______ ____
ROOT
ATOM      1  C   UNL     1       1.118   8.909  19.890  0.00  0.00    +0.000 A 
ATOM      2  C   UNL     1       1.490   7.696  20.477  0.00  0.00    +0.000 A 
ATOM      3  C   UNL     1       2.290   6.782  19.769  0.00  0.00    +0.000 A 
ATOM      4  C   UNL     1       2.743   7.086  18.477  0.00  0.00    +0.000 A 
ATOM      5  C   UNL     1       2.365   8.306  17.894  0.00  0.00    +0.000 A 
ATOM      6  C   UNL     1       1.552   9.192  18.597  0.00  0.00    +0.000 A 
ATOM      7  F   UNL     1       1.194  10.339  17.998  0.00  0.00    +0.000 F 
ATOM      8  C   UNL     1       3.528   6.091  17.656  0.00  0.00    +0.000 C 
ATOM      9  N   UNL     1       4.037   4.930  18.402  0.00  0.00    +0.000 NA
ATOM     10  C   UNL     1       3.051   4.418  19.365  0.00  0.00    +0.000 C 
ATOM     11  C   UNL     1       2.678   5.474  20.411  0.00  0.00    +0.000 C 
ENDROOT
BRANCH   1  13
ATOM     12  C   UNL     1       0.951  10.951  21.069  0.00  0.00    +0.000 C 
ATOM     13  O   UNL     1       0.297   9.836  20.475  0.00  0.00    +0.000 OA
ENDBRANCH   1  13
BRANCH   9  14
ATOM     14  C   UNL     1       4.512   3.866  17.482  0.00  0.00    +0.000 C 
BRANCH  14  15
ATOM     15  C   UNL     1       5.627   4.252  16.535  0.00  0.00    +0.000 A 
ATOM     16  N   UNL     1       6.872   4.491  16.894  0.00  0.00    +0.000 NA
ATOM     17  N   UNL     1       7.693   4.749  15.822  0.00  0.00    +0.000 NA
ATOM     18  C   UNL     1       7.037   4.747  14.683  0.00  0.00    +0.000 A 
ATOM     19  C   UNL     1       7.651   5.021  13.360  0.00  0.00    +0.000 C 
ATOM     20  S   UNL     1       5.360   4.407  14.840  0.00  0.00    +0.000 S 
ENDBRANCH  14  15
ENDBRANCH   9  14
TORSDOF 3
ENDMDL
MODEL 3
REMARK VINA RESULT:      -6.7      3.626      4.966
REMARK  Name = 
REMARK  5 active torsions:
REMARK  status: ('A' for Active; 'I' for Inactive)
REMARK    1  A    between atoms: C_1  and  O_2
REMARK    2  A    between atoms: O_2  and  C_3
REMARK    3  A    between atoms: N_11  and  C_12
REMARK    4  A    between atoms: C_12  and  C_13
REMARK    5  A    between atoms: C_16  and  C_17
REMARK                            x       y       z     vdW  Elec       q    Type
REMARK                         _______ _______ _______ _____ _____    ______ ____
ROOT
ATOM      1  C   UNL     1      -0.560  10.970  21.397  0.00  0.00    +0.000 A 
ATOM      2  C   UNL     1      -0.296  10.843  20.030  0.00  0.00    +0.000 A 
ATOM      3  C   UNL     1       0.504   9.790  19.557  0.00  0.00    +0.000 A 
ATOM      4  C   UNL     1       1.027   8.839  20.447  0.00  0.00    +0.000 A 
ATOM      5  C   UNL     1       0.759   8.974  21.818  0.00  0.00    +0.000 A 
ATOM      6  C   UNL     1      -0.016  10.037  22.275  0.00  0.00    +0.000 A 
ATOM      7  F   UNL     1      -0.234  10.144  23.596  0.00  0.00    +0.000 F 
ATOM      8  C   UNL     1       1.962   7.748  19.984  0.00  0.00    +0.000 C 
ATOM      9  N   UNL     1       2.037   7.566  18.527  0.00  0.00    +0.000 NA
ATOM     10  C   UNL     1       2.055   8.851  17.812  0.00  0.00    +0.000 C 
ATOM     11  C   UNL     1       0.787   9.668  18.081  0.00  0.00    +0.000 C 
ENDROOT
BRANCH   1  13
ATOM     12  C   UNL     1      -0.537  13.162  22.281  0.00  0.00    +0.000 C 
ATOM     13  O   UNL     1      -1.278  11.992  21.958  0.00  0.00    +0.000 OA
ENDBRANCH   1  13
BRANCH   9  14
ATOM     14  C   UNL     1       3.191   6.710  18.150  0.00  0.00    +0.000 C 
BRANCH  14  15
ATOM     15  C   UNL     1       2.938   5.219  18.139  0.00  0.00    +0.000 A 
ATOM     16  N   UNL     1       1.806   4.649  17.777  0.00  0.00    +0.000 NA
ATOM     17  N   UNL     1       1.875   3.276  17.791  0.00  0.00    +0.000 NA
ATOM     18  C   UNL     1       3.044   2.843  18.213  0.00  0.00    +0.000 A 
ATOM     19  C   UNL     1       3.403   1.411  18.362  0.00  0.00    +0.000 C 
ATOM     20  S   UNL     1       4.156   4.092  18.604  0.00  0.00    +0.000 S 
ENDBRANCH  14  15
ENDBRANCH   9  14
TORSDOF 3
ENDMDL
MODEL 4
REMARK VINA RESULT:      -6.6      3.427      5.035
REMARK  Name = 
REMARK  5 active torsions:
REMARK  status: ('A' for Active; 'I' for Inactive)
REMARK    1  A    between atoms: C_1  and  O_2
REMARK    2  A    between atoms: O_2  and  C_3
REMARK    3  A    between atoms: N_11  and  C_12
REMARK    4  A    between atoms: C_12  and  C_13
REMARK    5  A    between atoms: C_16  and  C_17
REMARK                            x       y       z     vdW  Elec       q    Type
REMARK                         _______ _______ _______ _____ _____    ______ ____
ROOT
ATOM      1  C   UNL     1      -0.213  10.706  22.184  0.00  0.00    +0.000 A 
ATOM      2  C   UNL     1      -0.020  10.903  20.814  0.00  0.00    +0.000 A 
ATOM      3  C   UNL     1       0.682   9.953  20.052  0.00  0.00    +0.000 A 
ATOM      4  C   UNL     1       1.175   8.784  20.654  0.00  0.00    +0.000 A 
ATOM      5  C   UNL     1       0.977   8.593  22.030  0.00  0.00    +0.000 A 
ATOM      6  C   UNL     1       0.301   9.556  22.777  0.00  0.00    +0.000 A 
ATOM      7  F   UNL     1       0.150   9.347  24.094  0.00  0.00    +0.000 F 
ATOM      8  C   UNL     1       2.009   7.787  19.885  0.00  0.00    +0.000 C 
ATOM      9  N   UNL     1       2.006   7.965  18.425  0.00  0.00    +0.000 NA
ATOM     10  C   UNL     1       2.084   9.382  18.042  0.00  0.00    +0.000 C 
ATOM     11  C   UNL     1       0.890  10.181  18.577  0.00  0.00    +0.000 C 
ENDROOT
BRANCH   1  13
ATOM     12  C   UNL     1      -2.160  11.961  22.659  0.00  0.00    +0.000 C 
ATOM     13  O   UNL     1      -0.831  11.598  23.018  0.00  0.00    +0.000 OA
ENDBRANCH   1  13
BRANCH   9  14
ATOM     14  C   UNL     1       3.078   7.162  17.784  0.00  0.00    +0.000 C 
BRANCH  14  15
ATOM     15  C   UNL     1       3.199   5.726  18.243  0.00  0.00    +0.000 A 
ATOM     16  N   UNL     1       4.209   5.239  18.937  0.00  0.00    +0.000 NA
ATOM     17  N   UNL     1       4.028   3.922  19.284  0.00  0.00    +0.000 NA
ATOM     18  C   UNL     1       2.908   3.430  18.801  0.00  0.00    +0.000 A 
ATOM     19  C   UNL     1       2.457   2.029  18.986  0.00  0.00    +0.000 C 
ATOM     20  S   UNL     1       1.979   4.559  17.897  0.00  0.00    +0.000 S 
ENDBRANCH  14  15
ENDBRANCH   9  14
TORSDOF 3
ENDMDL
MODEL 5
REMARK VINA RESULT:      -6.5      1.700      2.503
REMARK  Name = 
REMARK  5 active torsions:
REMARK  status: ('A' for Active; 'I' for Inactive)
REMARK    1  A    between atoms: C_1  and  O_2
REMARK    2  A    between atoms: O_2  and  C_3
REMARK    3  A    between atoms: N_11  and  C_12
REMARK    4  A    between atoms: C_12  and  C_13
REMARK    5  A    between atoms: C_16  and  C_17
REMARK                            x       y       z     vdW  Elec       q    Type
REMARK                         _______ _______ _______ _____ _____    ______ ____
ROOT
ATOM      1  C   UNL     1       0.661   9.488  20.102  0.00  0.00    +0.000 A 
ATOM      2  C   UNL     1       1.367   9.305  18.910  0.00  0.00    +0.000 A 
ATOM      3  C   UNL     1       2.159   8.160  18.723  0.00  0.00    +0.000 A 
ATOM      4  C   UNL     1       2.231   7.175  19.720  0.00  0.00    +0.000 A 
ATOM      5  C   UNL     1       1.519   7.366  20.915  0.00  0.00    +0.000 A 
ATOM      6  C   UNL     1       0.758   8.518  21.096  0.00  0.00    +0.000 A 
ATOM      7  F   UNL     1       0.108   8.674  22.260  0.00  0.00    +0.000 F 
ATOM      8  C   UNL     1       3.141   5.977  19.589  0.00  0.00    +0.000 C 
ATOM      9  N   UNL     1       3.696   5.760  18.245  0.00  0.00    +0.000 NA
ATOM     10  C   UNL     1       4.105   7.020  17.607  0.00  0.00    +0.000 C 
ATOM     11  C   UNL     1       2.922   7.978  17.435  0.00  0.00    +0.000 C 
ENDROOT
BRANCH   1  13
ATOM     12  C   UNL     1       0.147  11.737  19.585  0.00  0.00    +0.000 C 
ATOM     13  O   UNL     1      -0.089  10.594  20.399  0.00  0.00    +0.000 OA
ENDBRANCH   1  13
BRANCH   9  14
ATOM     14  C   UNL     1       4.806   4.773  18.275  0.00  0.00    +0.000 C 
BRANCH  14  15
ATOM     15  C   UNL     1       5.703   4.741  17.057  0.00  0.00    +0.000 A 
ATOM     16  N   UNL     1       7.003   4.956  17.074  0.00  0.00    +0.000 NA
ATOM     17  N   UNL     1       7.584   4.793  15.838  0.00  0.00    +0.000 NA
ATOM     18  C   UNL     1       6.698   4.507  14.908  0.00  0.00    +0.000 A 
ATOM     19  C   UNL     1       7.023   4.303  13.475  0.00  0.00    +0.000 C 
ATOM     20  S   UNL     1       5.084   4.397  15.486  0.00  0.00    +0.000 S 
ENDBRANCH  14  15
ENDBRANCH   9  14
TORSDOF 3
ENDMDL
MODEL 6
REMARK VINA RESULT:      -6.4      5.165      7.769
REMARK  Name = 
REMARK  5 active torsions:
REMARK  status: ('A' for Active; 'I' for Inactive)
REMARK    1  A    between atoms: C_1  and  O_2
REMARK    2  A    between atoms: O_2  and  C_3
REMARK    3  A    between atoms: N_11  and  C_12
REMARK    4  A    between atoms: C_12  and  C_13
REMARK    5  A    between atoms: C_16  and  C_17
REMARK                            x       y       z     vdW  Elec       q    Type
REMARK                         _______ _______ _______ _____ _____    ______ ____
ROOT
ATOM      1  C   UNL     1       3.856   4.885  19.117  0.00  0.00    +0.000 A 
ATOM      2  C   UNL     1       2.986   5.446  20.056  0.00  0.00    +0.000 A 
ATOM      3  C   UNL     1       2.354   6.674  19.794  0.00  0.00    +0.000 A 
ATOM      4  C   UNL     1       2.570   7.338  18.576  0.00  0.00    +0.000 A 
ATOM      5  C   UNL     1       3.446   6.769  17.638  0.00  0.00    +0.000 A 
ATOM      6  C   UNL     1       4.084   5.563  17.923  0.00  0.00    +0.000 A 
ATOM      7  F   UNL     1       4.930   5.061  17.009  0.00  0.00    +0.000 F 
ATOM      8  C   UNL     1       1.978   8.699  18.299  0.00  0.00    +0.000 C 
ATOM      9  N   UNL     1       0.935   9.130  19.241  0.00  0.00    +0.000 NA
ATOM     10  C   UNL     1       1.271   8.785  20.631  0.00  0.00    +0.000 C 
ATOM     11  C   UNL     1       1.425   7.272  20.818  0.00  0.00    +0.000 C 
ENDROOT
BRANCH   1  13
ATOM     12  C   UNL     1       3.847   2.522  19.052  0.00  0.00    +0.000 C 
ATOM     13  O   UNL     1       4.561   3.727  19.305  0.00  0.00    +0.000 OA
ENDBRANCH   1  13
BRANCH   9  14
ATOM     14  C   UNL     1       0.638  10.577  19.090  0.00  0.00    +0.000 C 
BRANCH  14  15
ATOM     15  C   UNL     1      -0.807  10.937  18.829  0.00  0.00    +0.000 A 
ATOM     16  N   UNL     1      -1.508  11.801  19.537  0.00  0.00    +0.000 NA
ATOM     17  N   UNL     1      -2.774  11.993  19.037  0.00  0.00    +0.000 NA
ATOM     18  C   UNL     1      -3.015  11.233  17.991  0.00  0.00    +0.000 A 
ATOM     19  C   UNL     1      -4.303  11.201  17.256  0.00  0.00    +0.000 C 
ATOM     20  S   UNL     1      -1.694  10.235  17.529  0.00  0.00    +0.000 S 
ENDBRANCH  14  15
ENDBRANCH   9  14
TORSDOF 3
ENDMDL
MODEL 7
REMARK VINA RESULT:      -6.3      3.080      4.101
REMARK  Name = 
REMARK  5 active torsions:
REMARK  status: ('A' for Active; 'I' for Inactive)
REMARK    1  A    between atoms: C_1  and  O_2
REMARK    2  A    between atoms: O_2  and  C_3
REMARK    3  A    between atoms: N_11  and  C_12
REMARK    4  A    between atoms: C_12  and  C_13
REMARK    5  A    between atoms: C_16  and  C_17
REMARK                            x       y       z     vdW  Elec       q    Type
REMARK                         _______ _______ _______ _____ _____    ______ ____
ROOT
ATOM      1  C   UNL     1       0.596  10.615  21.369  0.00  0.00    +0.000 A 
ATOM      2  C   UNL     1       0.860  10.528  20.000  0.00  0.00    +0.000 A 
ATOM      3  C   UNL     1       1.319   9.322  19.441  0.00  0.00    +0.000 A 
ATOM      4  C   UNL     1       1.492   8.187  20.247  0.00  0.00    +0.000 A 
ATOM      5  C   UNL     1       1.225   8.282  21.622  0.00  0.00    +0.000 A 
ATOM      6  C   UNL     1       0.795   9.490  22.165  0.00  0.00    +0.000 A 
ATOM      7  F   UNL     1       0.569   9.548  23.488  0.00  0.00    +0.000 F 
ATOM      8  C   UNL     1       2.067   6.903  19.697  0.00  0.00    +0.000 C 
ATOM      9  N   UNL     1       2.139   6.830  18.230  0.00  0.00    +0.000 NA
ATOM     10  C   UNL     1       2.575   8.102  17.635  0.00  0.00    +0.000 C 
ATOM     11  C   UNL     1       1.608   9.243  17.964  0.00  0.00    +0.000 C 
ENDROOT
BRANCH   1  13
ATOM     12  C   UNL     1       0.024  12.902  21.187  0.00  0.00    +0.000 C 
ATOM     13  O   UNL     1       0.202  11.757  22.013  0.00  0.00    +0.000 OA
ENDBRANCH   1  13
BRANCH   9  14
ATOM     14  C   UNL     1       2.990   5.695  17.789  0.00  0.00    +0.000 C 
BRANCH  14  15
ATOM     15  C   UNL     1       4.384   5.642  18.374  0.00  0.00    +0.000 A 
ATOM     16  N   UNL     1       4.715   4.996  19.474  0.00  0.00    +0.000 NA
ATOM     17  N   UNL     1       6.063   5.052  19.737  0.00  0.00    +0.000 NA
ATOM     18  C   UNL     1       6.711   5.781  18.854  0.00  0.00    +0.000 A 
ATOM     19  C   UNL     1       8.170   6.046  18.893  0.00  0.00    +0.000 C 
ATOM     20  S   UNL     1       5.713   6.438  17.619  0.00  0.00    +0.000 S 
ENDBRANCH  14  15
ENDBRANCH   9  14
TORSDOF 3
ENDMDL
MODEL 8
REMARK VINA RESULT:      -6.3      4.909      7.880
REMARK  Name = 
REMARK  5 active torsions:
REMARK  status: ('A' for Active; 'I' for Inactive)
REMARK    1  A    between atoms: C_1  and  O_2
REMARK    2  A    between atoms: O_2  and  C_3
REMARK    3  A    between atoms: N_11  and  C_12
REMARK    4  A    between atoms: C_12  and  C_13
REMARK    5  A    between atoms: C_16  and  C_17
REMARK                            x       y       z     vdW  Elec       q    Type
REMARK                         _______ _______ _______ _____ _____    ______ ____
ROOT
ATOM      1  C   UNL     1       3.490   3.604  19.649  0.00  0.00    +0.000 A 
ATOM      2  C   UNL     1       3.809   4.646  18.773  0.00  0.00    +0.000 A 
ATOM      3  C   UNL     1       3.192   5.901  18.909  0.00  0.00    +0.000 A 
ATOM      4  C   UNL     1       2.268   6.131  19.939  0.00  0.00    +0.000 A 
ATOM      5  C   UNL     1       1.952   5.080  20.815  0.00  0.00    +0.000 A 
ATOM      6  C   UNL     1       2.553   3.834  20.653  0.00  0.00    +0.000 A 
ATOM      7  F   UNL     1       2.210   2.848  21.497  0.00  0.00    +0.000 F 
ATOM      8  C   UNL     1       1.522   7.438  20.060  0.00  0.00    +0.000 C 
ATOM      9  N   UNL     1       2.045   8.534  19.231  0.00  0.00    +0.000 NA
ATOM     10  C   UNL     1       2.435   8.074  17.890  0.00  0.00    +0.000 C 
ATOM     11  C   UNL     1       3.540   7.013  17.953  0.00  0.00    +0.000 C 
ENDROOT
BRANCH   1  13
ATOM     12  C   UNL     1       3.491   1.544  18.490  0.00  0.00    +0.000 C 
ATOM     13  O   UNL     1       3.993   2.334  19.561  0.00  0.00    +0.000 OA
ENDBRANCH   1  13
BRANCH   9  14
ATOM     14  C   UNL     1       1.086   9.666  19.167  0.00  0.00    +0.000 C 
BRANCH  14  15
ATOM     15  C   UNL     1       0.535  10.148  20.490  0.00  0.00    +0.000 A 
ATOM     16  N   UNL     1       1.107   9.949  21.662  0.00  0.00    +0.000 NA
ATOM     17  N   UNL     1       0.431  10.558  22.692  0.00  0.00    +0.000 NA
ATOM     18  C   UNL     1      -0.662  11.163  22.279  0.00  0.00    +0.000 A 
ATOM     19  C   UNL     1      -1.608  11.883  23.167  0.00  0.00    +0.000 C 
ATOM     20  S   UNL     1      -0.933  11.045  20.587  0.00  0.00    +0.000 S 
ENDBRANCH  14  15
ENDBRANCH   9  14
TORSDOF 3
ENDMDL
MODEL 9
REMARK VINA RESULT:      -6.3      1.778      2.559
REMARK  Name = 
REMARK  5 active torsions:
REMARK  status: ('A' for Active; 'I' for Inactive)
REMARK    1  A    between atoms: C_1  and  O_2
REMARK    2  A    between atoms: O_2  and  C_3
REMARK    3  A    between atoms: N_11  and  C_12
REMARK    4  A    between atoms: C_12  and  C_13
REMARK    5  A    between atoms: C_16  and  C_17
REMARK                            x       y       z     vdW  Elec       q    Type
REMARK                         _______ _______ _______ _____ _____    ______ ____
ROOT
ATOM      1  C   UNL     1       1.819   6.293  20.295  0.00  0.00    +0.000 A 
ATOM      2  C   UNL     1       2.601   6.966  19.352  0.00  0.00    +0.000 A 
ATOM      3  C   UNL     1       3.462   6.249  18.503  0.00  0.00    +0.000 A 
ATOM      4  C   UNL     1       3.529   4.850  18.576  0.00  0.00    +0.000 A 
ATOM      5  C   UNL     1       2.741   4.181  19.526  0.00  0.00    +0.000 A 
ATOM      6  C   UNL     1       1.910   4.906  20.377  0.00  0.00    +0.000 A 
ATOM      7  F   UNL     1       1.188   4.233  21.286  0.00  0.00    +0.000 F 
ATOM      8  C   UNL     1       4.507   4.057  17.742  0.00  0.00    +0.000 C 
ATOM      9  N   UNL     1       5.149   4.807  16.653  0.00  0.00    +0.000 NA
ATOM     10  C   UNL     1       5.526   6.167  17.066  0.00  0.00    +0.000 C 
ATOM     11  C   UNL     1       4.306   6.988  17.496  0.00  0.00    +0.000 C 
ENDROOT
BRANCH   1  13
ATOM     12  C   UNL     1       0.984   8.328  21.161  0.00  0.00    +0.000 C 
ATOM     13  O   UNL     1       0.996   6.906  21.201  0.00  0.00    +0.000 OA
ENDBRANCH   1  13
BRANCH   9  14
ATOM     14  C   UNL     1       6.306   4.061  16.095  0.00  0.00    +0.000 C 
BRANCH  14  15
ATOM     15  C   UNL     1       6.839   4.552  14.768  0.00  0.00    +0.000 A 
ATOM     16  N   UNL     1       7.791   5.452  14.624  0.00  0.00    +0.000 NA
ATOM     17  N   UNL     1       8.132   5.658  13.309  0.00  0.00    +0.000 NA
ATOM     18  C   UNL     1       7.394   4.943  12.487  0.00  0.00    +0.000 A 
ATOM     19  C   UNL     1       7.513   4.977  11.008  0.00  0.00    +0.000 C 
ATOM     20  S   UNL     1       6.236   3.946  13.271  0.00  0.00    +0.000 S 
ENDBRANCH  14  15
ENDBRANCH   9  14
TORSDOF 3
ENDMDL
