MODEL 1
REMARK VINA RESULT:      -8.1      0.000      0.000
REMARK  Name = 
REMARK  6 active torsions:
REMARK  status: ('A' for Active; 'I' for Inactive)
REMARK    1  A    between atoms: C_1  and  N_2
REMARK    2  A    between atoms: N_6  and  C_7
REMARK    3  A    between atoms: C_7  and  C_8
REMARK    4  A    between atoms: C_17  and  C_18
REMARK    5  A    between atoms: C_19  and  C_20
REMARK    6  A    between atoms: C_23  and  C_24
REMARK                            x       y       z     vdW  Elec       q    Type
REMARK                         _______ _______ _______ _____ _____    ______ ____
ROOT
ATOM      1  C   UNL     1       1.137   1.973  22.215  0.00  0.00    +0.000 C 
ATOM      2  N   UNL     1       0.709   3.166  21.523  0.00  0.00    +0.000 N 
ATOM      3  C   UNL     1       1.644   3.715  20.661  0.00  0.00    +0.000 A 
ATOM      4  N   UNL     1       1.610   5.047  20.538  0.00  0.00    +0.000 NA
ATOM      5  C   UNL     1       2.432   5.628  19.644  0.00  0.00    +0.000 A 
ATOM      6  N   UNL     1       2.303   7.022  19.451  0.00  0.00    +0.000 N 
ATOM      7  C   UNL     1       3.316   4.863  18.853  0.00  0.00    +0.000 A 
ATOM      8  C   UNL     1       4.212   5.354  17.864  0.00  0.00    +0.000 A 
ATOM      9  C   UNL     1       5.134   4.524  17.208  0.00  0.00    +0.000 A 
ATOM     10  C   UNL     1       5.118   3.163  17.516  0.00  0.00    +0.000 A 
ATOM     11  C   UNL     1       4.200   2.664  18.443  0.00  0.00    +0.000 A 
ATOM     12  C   UNL     1       3.313   3.490  19.122  0.00  0.00    +0.000 A 
ATOM     13  N   UNL     1       2.490   2.924  20.006  0.00  0.00    +0.000 NA
ATOM     14  H   UNL     1       0.364   3.920  22.102  0.00  0.00    +0.000 HD
ATOM     15  H   UNL     1       3.138   7.445  19.070  0.00  0.00    +0.000 HD
ENDROOT
BRANCH   9  16
ATOM     16  C   UNL     1       6.094   5.058  16.248  0.00  0.00    +0.000 A 
ATOM     17  C   UNL     1       6.342   4.764  14.873  0.00  0.00    +0.000 A 
ATOM     18  C   UNL     1       5.686   3.807  13.948  0.00  0.00    +0.000 C 
ATOM     19  N   UNL     1       7.345   5.507  14.391  0.00  0.00    +0.000 NA
ATOM     20  O   UNL     1       7.798   6.267  15.443  0.00  0.00    +0.000 OA
ATOM     21  C   UNL     1       7.073   5.987  16.558  0.00  0.00    +0.000 A 
ATOM     22  C   UNL     1       7.524   6.686  17.783  0.00  0.00    +0.000 C 
ENDBRANCH   9  16
BRANCH   6  23
ATOM     23  C   UNL     1       1.845   7.753  20.638  0.00  0.00    +0.000 C 
BRANCH  23  24
ATOM     24  C   UNL     1       1.066   8.987  20.216  0.00  0.00    +0.000 A 
ATOM     25  C   UNL     1       1.080   9.451  18.890  0.00  0.00    +0.000 A 
ATOM     26  C   UNL     1       0.380  10.611  18.534  0.00  0.00    +0.000 A 
ATOM     27  C   UNL     1      -0.342  11.317  19.496  0.00  0.00    +0.000 A 
ATOM     28  C   UNL     1      -0.354  10.865  20.814  0.00  0.00    +0.000 A 
ATOM     29 CL   UNL     1      -1.239  11.736  22.005  0.00  0.00    +0.000 Cl
ATOM     30  C   UNL     1       0.346   9.717  21.176  0.00  0.00    +0.000 A 
ENDBRANCH  23  24
ENDBRANCH   6  23
TORSDOF 3
ENDMDL
MODEL 2
REMARK VINA RESULT:      -7.9      4.979     10.067
REMARK  Name = 
REMARK  6 active torsions:
REMARK  status: ('A' for Active; 'I' for Inactive)
REMARK    1  A    between atoms: C_1  and  N_2
REMARK    2  A    between atoms: N_6  and  C_7
REMARK    3  A    between atoms: C_7  and  C_8
REMARK    4  A    between atoms: C_17  and  C_18
REMARK    5  A    between atoms: C_19  and  C_20
REMARK    6  A    between atoms: C_23  and  C_24
REMARK                            x       y       z     vdW  Elec       q    Type
REMARK                         _______ _______ _______ _____ _____    ______ ____
ROOT
ATOM      1  C   UNL     1      -3.409  10.201  14.875  0.00  0.00    +0.000 C 
ATOM      2  N   UNL     1      -2.508   9.482  15.744  0.00  0.00    +0.000 N 
ATOM      3  C   UNL     1      -2.153  10.145  16.907  0.00  0.00    +0.000 A 
ATOM      4  N   UNL     1      -0.921   9.896  17.366  0.00  0.00    +0.000 NA
ATOM      5  C   UNL     1      -0.555  10.439  18.543  0.00  0.00    +0.000 A 
ATOM      6  N   UNL     1       0.708  10.076  19.063  0.00  0.00    +0.000 N 
ATOM      7  C   UNL     1      -1.438  11.258  19.280  0.00  0.00    +0.000 A 
ATOM      8  C   UNL     1      -1.178  11.867  20.538  0.00  0.00    +0.000 A 
ATOM      9  C   UNL     1      -2.081  12.757  21.141  0.00  0.00    +0.000 A 
ATOM     10  C   UNL     1      -3.291  12.997  20.490  0.00  0.00    +0.000 A 
ATOM     11  C   UNL     1      -3.578  12.356  19.282  0.00  0.00    +0.000 A 
ATOM     12  C   UNL     1      -2.669  11.505  18.665  0.00  0.00    +0.000 A 
ATOM     13  N   UNL     1      -3.024  10.956  17.502  0.00  0.00    +0.000 NA
ATOM     14  H   UNL     1      -1.650   9.148  15.322  0.00  0.00    +0.000 HD
ATOM     15  H   UNL     1       1.072  10.752  19.719  0.00  0.00    +0.000 HD
ENDROOT
BRANCH   9  16
ATOM     16  C   UNL     1      -1.767  13.429  22.398  0.00  0.00    +0.000 A 
ATOM     17  C   UNL     1      -0.678  14.261  22.796  0.00  0.00    +0.000 A 
ATOM     18  C   UNL     1       0.512  14.733  22.045  0.00  0.00    +0.000 C 
ATOM     19  N   UNL     1      -0.805  14.651  24.070  0.00  0.00    +0.000 NA
ATOM     20  O   UNL     1      -1.950  14.054  24.541  0.00  0.00    +0.000 OA
ATOM     21  C   UNL     1      -2.515  13.305  23.557  0.00  0.00    +0.000 A 
ATOM     22  C   UNL     1      -3.715  12.542  23.971  0.00  0.00    +0.000 C 
ENDBRANCH   9  16
BRANCH   6  23
ATOM     23  C   UNL     1       1.708   9.752  18.040  0.00  0.00    +0.000 C 
BRANCH  23  24
ATOM     24  C   UNL     1       2.322   8.393  18.330  0.00  0.00    +0.000 A 
ATOM     25  C   UNL     1       3.343   7.857  17.529  0.00  0.00    +0.000 A 
ATOM     26  C   UNL     1       3.868   6.587  17.798  0.00  0.00    +0.000 A 
ATOM     27  C   UNL     1       3.381   5.840  18.870  0.00  0.00    +0.000 A 
ATOM     28  C   UNL     1       2.363   6.363  19.665  0.00  0.00    +0.000 A 
ATOM     29 CL   UNL     1       1.755   5.442  20.985  0.00  0.00    +0.000 Cl
ATOM     30  C   UNL     1       1.831   7.622  19.398  0.00  0.00    +0.000 A 
ENDBRANCH  23  24
ENDBRANCH   6  23
TORSDOF 3
ENDMDL
MODEL 3
REMARK VINA RESULT:      -7.8      5.105     10.223
REMARK  Name = 
REMARK  6 active torsions:
REMARK  status: ('A' for Active; 'I' for Inactive)
REMARK    1  A    between atoms: C_1  and  N_2
REMARK    2  A    between atoms: N_6  and  C_7
REMARK    3  A    between atoms: C_7  and  C_8
REMARK    4  A    between atoms: C_17  and  C_18
REMARK    5  A    between atoms: C_19  and  C_20
REMARK    6  A    between atoms: C_23  and  C_24
REMARK                            x       y       z     vdW  Elec       q    Type
REMARK                         _______ _______ _______ _____ _____    ______ ____
ROOT
ATOM      1  C   UNL     1      -3.554  10.267  15.021  0.00  0.00    +0.000 C 
ATOM      2  N   UNL     1      -2.660   9.538  15.890  0.00  0.00    +0.000 N 
ATOM      3  C   UNL     1      -2.266  10.214  17.034  0.00  0.00    +0.000 A 
ATOM      4  N   UNL     1      -1.036   9.937  17.478  0.00  0.00    +0.000 NA
ATOM      5  C   UNL     1      -0.635  10.492  18.637  0.00  0.00    +0.000 A 
ATOM      6  N   UNL     1       0.626  10.102  19.145  0.00  0.00    +0.000 N 
ATOM      7  C   UNL     1      -1.480  11.351  19.372  0.00  0.00    +0.000 A 
ATOM      8  C   UNL     1      -1.182  11.978  20.613  0.00  0.00    +0.000 A 
ATOM      9  C   UNL     1      -2.048  12.906  21.212  0.00  0.00    +0.000 A 
ATOM     10  C   UNL     1      -3.261  13.169  20.575  0.00  0.00    +0.000 A 
ATOM     11  C   UNL     1      -3.587  12.513  19.385  0.00  0.00    +0.000 A 
ATOM     12  C   UNL     1      -2.714  11.623  18.772  0.00  0.00    +0.000 A 
ATOM     13  N   UNL     1      -3.104  11.061  17.626  0.00  0.00    +0.000 NA
ATOM     14  H   UNL     1      -1.820   9.170  15.462  0.00  0.00    +0.000 HD
ATOM     15  H   UNL     1       1.020  10.780  19.782  0.00  0.00    +0.000 HD
ENDROOT
BRANCH   9  16
ATOM     16  C   UNL     1      -1.694  13.593  22.449  0.00  0.00    +0.000 A 
ATOM     17  C   UNL     1      -2.361  13.713  23.706  0.00  0.00    +0.000 A 
ATOM     18  C   UNL     1      -3.655  13.161  24.178  0.00  0.00    +0.000 C 
ATOM     19  N   UNL     1      -1.653  14.461  24.562  0.00  0.00    +0.000 NA
ATOM     20  O   UNL     1      -0.538  14.876  23.875  0.00  0.00    +0.000 OA
ATOM     21  C   UNL     1      -0.567  14.383  22.609  0.00  0.00    +0.000 A 
ATOM     22  C   UNL     1       0.546  14.832  21.742  0.00  0.00    +0.000 C 
ENDBRANCH   9  16
BRANCH   6  23
ATOM     23  C   UNL     1       1.599   9.728  18.113  0.00  0.00    +0.000 C 
BRANCH  23  24
ATOM     24  C   UNL     1       2.192   8.366  18.432  0.00  0.00    +0.000 A 
ATOM     25  C   UNL     1       1.893   7.692  19.627  0.00  0.00    +0.000 A 
ATOM     26  C   UNL     1       2.479   6.452  19.912  0.00  0.00    +0.000 A 
ATOM     27  C   UNL     1       3.367   5.872  19.007  0.00  0.00    +0.000 A 
ATOM     28  C   UNL     1       3.673   6.539  17.822  0.00  0.00    +0.000 A 
ATOM     29 CL   UNL     1       4.773   5.830  16.705  0.00  0.00    +0.000 Cl
ATOM     30  C   UNL     1       3.100   7.776  17.536  0.00  0.00    +0.000 A 
ENDBRANCH  23  24
ENDBRANCH   6  23
TORSDOF 3
ENDMDL
MODEL 4
REMARK VINA RESULT:      -7.8      4.899     10.059
REMARK  Name = 
REMARK  6 active torsions:
REMARK  status: ('A' for Active; 'I' for Inactive)
REMARK    1  A    between atoms: C_1  and  N_2
REMARK    2  A    between atoms: N_6  and  C_7
REMARK    3  A    between atoms: C_7  and  C_8
REMARK    4  A    between atoms: C_17  and  C_18
REMARK    5  A    between atoms: C_19  and  C_20
REMARK    6  A    between atoms: C_23  and  C_24
REMARK                            x       y       z     vdW  Elec       q    Type
REMARK                         _______ _______ _______ _____ _____    ______ ____
ROOT
ATOM      1  C   UNL     1      -3.517  10.230  14.875  0.00  0.00    +0.000 C 
ATOM      2  N   UNL     1      -2.609   9.502  15.730  0.00  0.00    +0.000 N 
ATOM      3  C   UNL     1      -2.241  10.157  16.895  0.00  0.00    +0.000 A 
ATOM      4  N   UNL     1      -1.006   9.902  17.341  0.00  0.00    +0.000 NA
ATOM      5  C   UNL     1      -0.628  10.435  18.517  0.00  0.00    +0.000 A 
ATOM      6  N   UNL     1       0.639  10.065  19.023  0.00  0.00    +0.000 N 
ATOM      7  C   UNL     1      -1.501  11.250  19.270  0.00  0.00    +0.000 A 
ATOM      8  C   UNL     1      -1.228  11.849  20.529  0.00  0.00    +0.000 A 
ATOM      9  C   UNL     1      -2.124  12.737  21.147  0.00  0.00    +0.000 A 
ATOM     10  C   UNL     1      -3.339  12.985  20.509  0.00  0.00    +0.000 A 
ATOM     11  C   UNL     1      -3.639  12.353  19.299  0.00  0.00    +0.000 A 
ATOM     12  C   UNL     1      -2.738  11.504  18.668  0.00  0.00    +0.000 A 
ATOM     13  N   UNL     1      -3.105  10.964  17.504  0.00  0.00    +0.000 NA
ATOM     14  H   UNL     1      -1.756   9.169  15.298  0.00  0.00    +0.000 HD
ATOM     15  H   UNL     1       1.011  10.735  19.681  0.00  0.00    +0.000 HD
ENDROOT
BRANCH   9  16
ATOM     16  C   UNL     1      -1.796  13.399  22.406  0.00  0.00    +0.000 A 
ATOM     17  C   UNL     1      -2.479  13.474  23.657  0.00  0.00    +0.000 A 
ATOM     18  C   UNL     1      -3.767  12.884  24.101  0.00  0.00    +0.000 C 
ATOM     19  N   UNL     1      -1.795  14.213  24.540  0.00  0.00    +0.000 NA
ATOM     20  O   UNL     1      -0.681  14.666  23.877  0.00  0.00    +0.000 OA
ATOM     21  C   UNL     1      -0.687  14.206  22.598  0.00  0.00    +0.000 A 
ATOM     22  C   UNL     1       0.426  14.698  21.755  0.00  0.00    +0.000 C 
ENDBRANCH   9  16
BRANCH   6  23
ATOM     23  C   UNL     1       1.629   9.746  17.989  0.00  0.00    +0.000 C 
BRANCH  23  24
ATOM     24  C   UNL     1       2.270   8.401  18.284  0.00  0.00    +0.000 A 
ATOM     25  C   UNL     1       3.275   7.865  17.463  0.00  0.00    +0.000 A 
ATOM     26  C   UNL     1       3.826   6.607  17.738  0.00  0.00    +0.000 A 
ATOM     27  C   UNL     1       3.380   5.873  18.836  0.00  0.00    +0.000 A 
ATOM     28  C   UNL     1       2.378   6.395  19.651  0.00  0.00    +0.000 A 
ATOM     29 CL   UNL     1       1.821   5.490  21.004  0.00  0.00    +0.000 Cl
ATOM     30  C   UNL     1       1.821   7.642  19.378  0.00  0.00    +0.000 A 
ENDBRANCH  23  24
ENDBRANCH   6  23
TORSDOF 3
ENDMDL
MODEL 5
REMARK VINA RESULT:      -7.7      6.519     11.630
REMARK  Name = 
REMARK  6 active torsions:
REMARK  status: ('A' for Active; 'I' for Inactive)
REMARK    1  A    between atoms: C_1  and  N_2
REMARK    2  A    between atoms: N_6  and  C_7
REMARK    3  A    between atoms: C_7  and  C_8
REMARK    4  A    between atoms: C_17  and  C_18
REMARK    5  A    between atoms: C_19  and  C_20
REMARK    6  A    between atoms: C_23  and  C_24
REMARK                            x       y       z     vdW  Elec       q    Type
REMARK                         _______ _______ _______ _____ _____    ______ ____
ROOT
ATOM      1  C   UNL     1      -3.252  10.073  13.917  0.00  0.00    +0.000 C 
ATOM      2  N   UNL     1      -2.659   9.681  15.174  0.00  0.00    +0.000 N 
ATOM      3  C   UNL     1      -3.040  10.439  16.270  0.00  0.00    +0.000 A 
ATOM      4  N   UNL     1      -2.114  10.590  17.223  0.00  0.00    +0.000 NA
ATOM      5  C   UNL     1      -2.458  11.237  18.352  0.00  0.00    +0.000 A 
ATOM      6  N   UNL     1      -1.500  11.289  19.391  0.00  0.00    +0.000 N 
ATOM      7  C   UNL     1      -3.759  11.753  18.536  0.00  0.00    +0.000 A 
ATOM      8  C   UNL     1      -4.249  12.432  19.686  0.00  0.00    +0.000 A 
ATOM      9  C   UNL     1      -5.528  13.007  19.729  0.00  0.00    +0.000 A 
ATOM     10  C   UNL     1      -6.349  12.852  18.612  0.00  0.00    +0.000 A 
ATOM     11  C   UNL     1      -5.897  12.136  17.501  0.00  0.00    +0.000 A 
ATOM     12  C   UNL     1      -4.617  11.598  17.442  0.00  0.00    +0.000 A 
ATOM     13  N   UNL     1      -4.267  10.949  16.330  0.00  0.00    +0.000 NA
ATOM     14  H   UNL     1      -1.649   9.622  15.194  0.00  0.00    +0.000 HD
ATOM     15  H   UNL     1      -1.657  12.055  20.031  0.00  0.00    +0.000 HD
ENDROOT
BRANCH   9  16
ATOM     16  C   UNL     1      -5.987  13.762  20.890  0.00  0.00    +0.000 A 
ATOM     17  C   UNL     1      -5.620  15.039  21.412  0.00  0.00    +0.000 A 
ATOM     18  C   UNL     1      -4.639  16.042  20.929  0.00  0.00    +0.000 C 
ATOM     19  N   UNL     1      -6.310  15.327  22.522  0.00  0.00    +0.000 NA
ATOM     20  O   UNL     1      -7.107  14.235  22.771  0.00  0.00    +0.000 OA
ATOM     21  C   UNL     1      -6.902  13.289  21.817  0.00  0.00    +0.000 A 
ATOM     22  C   UNL     1      -7.646  12.026  22.025  0.00  0.00    +0.000 C 
ENDBRANCH   9  16
BRANCH   6  23
ATOM     23  C   UNL     1      -0.109  11.276  18.926  0.00  0.00    +0.000 C 
BRANCH  23  24
ATOM     24  C   UNL     1       0.570   9.991  19.369  0.00  0.00    +0.000 A 
ATOM     25  C   UNL     1       0.385   9.464  20.657  0.00  0.00    +0.000 A 
ATOM     26  C   UNL     1       1.050   8.296  21.052  0.00  0.00    +0.000 A 
ATOM     27  C   UNL     1       1.903   7.643  20.165  0.00  0.00    +0.000 A 
ATOM     28  C   UNL     1       2.097   8.164  18.887  0.00  0.00    +0.000 A 
ATOM     29 CL   UNL     1       3.154   7.363  17.791  0.00  0.00    +0.000 Cl
ATOM     30  C   UNL     1       1.445   9.329  18.491  0.00  0.00    +0.000 A 
ENDBRANCH  23  24
ENDBRANCH   6  23
TORSDOF 3
ENDMDL
MODEL 6
REMARK VINA RESULT:      -7.6      6.922      9.294
REMARK  Name = 
REMARK  6 active torsions:
REMARK  status: ('A' for Active; 'I' for Inactive)
REMARK    1  A    between atoms: C_1  and  N_2
REMARK    2  A    between atoms: N_6  and  C_7
REMARK    3  A    between atoms: C_7  and  C_8
REMARK    4  A    between atoms: C_17  and  C_18
REMARK    5  A    between atoms: C_19  and  C_20
REMARK    6  A    between atoms: C_23  and  C_24
REMARK                            x       y       z     vdW  Elec       q    Type
REMARK                         _______ _______ _______ _____ _____    ______ ____
ROOT
ATOM      1  C   UNL     1      -0.111   9.497  23.489  0.00  0.00    +0.000 C 
ATOM      2  N   UNL     1       0.371   9.267  22.147  0.00  0.00    +0.000 N 
ATOM      3  C   UNL     1       0.416  10.389  21.335  0.00  0.00    +0.000 A 
ATOM      4  N   UNL     1       0.194  10.173  20.033  0.00  0.00    +0.000 NA
ATOM      5  C   UNL     1       0.317  11.210  19.183  0.00  0.00    +0.000 A 
ATOM      6  N   UNL     1       0.187  10.939  17.802  0.00  0.00    +0.000 N 
ATOM      7  C   UNL     1       0.666  12.499  19.642  0.00  0.00    +0.000 A 
ATOM      8  C   UNL     1       0.848  13.662  18.846  0.00  0.00    +0.000 A 
ATOM      9  C   UNL     1       1.086  14.926  19.408  0.00  0.00    +0.000 A 
ATOM     10  C   UNL     1       1.194  15.011  20.796  0.00  0.00    +0.000 A 
ATOM     11  C   UNL     1       1.074  13.862  21.582  0.00  0.00    +0.000 A 
ATOM     12  C   UNL     1       0.801  12.616  21.029  0.00  0.00    +0.000 A 
ATOM     13  N   UNL     1       0.684  11.580  21.862  0.00  0.00    +0.000 NA
ATOM     14  H   UNL     1      -0.097   8.541  21.621  0.00  0.00    +0.000 HD
ATOM     15  H   UNL     1      -0.067  11.755  17.264  0.00  0.00    +0.000 HD
ENDROOT
BRANCH   9  16
ATOM     16  C   UNL     1       1.198  16.122  18.579  0.00  0.00    +0.000 A 
ATOM     17  C   UNL     1       2.293  16.694  17.863  0.00  0.00    +0.000 A 
ATOM     18  C   UNL     1       3.700  16.248  17.716  0.00  0.00    +0.000 C 
ATOM     19  N   UNL     1       1.928  17.821  17.239  0.00  0.00    +0.000 NA
ATOM     20  O   UNL     1       0.610  18.030  17.564  0.00  0.00    +0.000 OA
ATOM     21  C   UNL     1       0.175  17.035  18.382  0.00  0.00    +0.000 A 
ATOM     22  C   UNL     1      -1.213  17.195  18.871  0.00  0.00    +0.000 C 
ENDBRANCH   9  16
BRANCH   6  23
ATOM     23  C   UNL     1      -0.701   9.813  17.492  0.00  0.00    +0.000 C 
BRANCH  23  24
ATOM     24  C   UNL     1      -2.088  10.329  17.148  0.00  0.00    +0.000 A 
ATOM     25  C   UNL     1      -2.607  10.242  15.846  0.00  0.00    +0.000 A 
ATOM     26  C   UNL     1      -3.875  10.756  15.548  0.00  0.00    +0.000 A 
ATOM     27  C   UNL     1      -4.638  11.360  16.546  0.00  0.00    +0.000 A 
ATOM     28  C   UNL     1      -4.127  11.457  17.839  0.00  0.00    +0.000 A 
ATOM     29 CL   UNL     1      -5.063  12.206  19.072  0.00  0.00    +0.000 Cl
ATOM     30  C   UNL     1      -2.863  10.954  18.140  0.00  0.00    +0.000 A 
ENDBRANCH  23  24
ENDBRANCH   6  23
TORSDOF 3
ENDMDL
MODEL 7
REMARK VINA RESULT:      -7.5      1.143      1.379
REMARK  Name = 
REMARK  6 active torsions:
REMARK  status: ('A' for Active; 'I' for Inactive)
REMARK    1  A    between atoms: C_1  and  N_2
REMARK    2  A    between atoms: N_6  and  C_7
REMARK    3  A    between atoms: C_7  and  C_8
REMARK    4  A    between atoms: C_17  and  C_18
REMARK    5  A    between atoms: C_19  and  C_20
REMARK    6  A    between atoms: C_23  and  C_24
REMARK                            x       y       z     vdW  Elec       q    Type
REMARK                         _______ _______ _______ _____ _____    ______ ____
ROOT
ATOM      1  C   UNL     1       1.113   2.018  22.035  0.00  0.00    +0.000 C 
ATOM      2  N   UNL     1       0.688   3.204  21.329  0.00  0.00    +0.000 N 
ATOM      3  C   UNL     1       1.627   3.747  20.467  0.00  0.00    +0.000 A 
ATOM      4  N   UNL     1       1.591   5.078  20.332  0.00  0.00    +0.000 NA
ATOM      5  C   UNL     1       2.417   5.652  19.437  0.00  0.00    +0.000 A 
ATOM      6  N   UNL     1       2.286   7.044  19.231  0.00  0.00    +0.000 N 
ATOM      7  C   UNL     1       3.308   4.881  18.659  0.00  0.00    +0.000 A 
ATOM      8  C   UNL     1       4.208   5.365  17.671  0.00  0.00    +0.000 A 
ATOM      9  C   UNL     1       5.136   4.530  17.028  0.00  0.00    +0.000 A 
ATOM     10  C   UNL     1       5.121   3.173  17.349  0.00  0.00    +0.000 A 
ATOM     11  C   UNL     1       4.199   2.680  18.276  0.00  0.00    +0.000 A 
ATOM     12  C   UNL     1       3.306   3.511  18.941  0.00  0.00    +0.000 A 
ATOM     13  N   UNL     1       2.478   2.952  19.825  0.00  0.00    +0.000 NA
ATOM     14  H   UNL     1       0.337   3.963  21.899  0.00  0.00    +0.000 HD
ATOM     15  H   UNL     1       3.123   7.465  18.850  0.00  0.00    +0.000 HD
ENDROOT
BRANCH   9  16
ATOM     16  C   UNL     1       6.101   5.057  16.069  0.00  0.00    +0.000 A 
ATOM     17  C   UNL     1       6.343   4.767  14.693  0.00  0.00    +0.000 A 
ATOM     18  C   UNL     1       5.674   3.822  13.764  0.00  0.00    +0.000 C 
ATOM     19  N   UNL     1       7.355   5.501  14.212  0.00  0.00    +0.000 NA
ATOM     20  O   UNL     1       7.818   6.250  15.267  0.00  0.00    +0.000 OA
ATOM     21  C   UNL     1       7.092   5.973  16.382  0.00  0.00    +0.000 A 
ATOM     22  C   UNL     1       7.553   6.660  17.609  0.00  0.00    +0.000 C 
ENDBRANCH   9  16
BRANCH   6  23
ATOM     23  C   UNL     1       1.820   7.785  20.407  0.00  0.00    +0.000 C 
BRANCH  23  24
ATOM     24  C   UNL     1       1.202   9.104  19.975  0.00  0.00    +0.000 A 
ATOM     25  C   UNL     1      -0.098   9.472  20.359  0.00  0.00    +0.000 A 
ATOM     26  C   UNL     1      -0.656  10.679  19.919  0.00  0.00    +0.000 A 
ATOM     27  C   UNL     1       0.078  11.531  19.095  0.00  0.00    +0.000 A 
ATOM     28  C   UNL     1       1.366  11.169  18.705  0.00  0.00    +0.000 A 
ATOM     29 CL   UNL     1       2.273  12.215  17.684  0.00  0.00    +0.000 Cl
ATOM     30  C   UNL     1       1.924   9.966  19.133  0.00  0.00    +0.000 A 
ENDBRANCH  23  24
ENDBRANCH   6  23
TORSDOF 3
ENDMDL
MODEL 8
REMARK VINA RESULT:      -7.5      1.184      1.352
REMARK  Name = 
REMARK  6 active torsions:
REMARK  status: ('A' for Active; 'I' for Inactive)
REMARK    1  A    between atoms: C_1  and  N_2
REMARK    2  A    between atoms: N_6  and  C_7
REMARK    3  A    between atoms: C_7  and  C_8
REMARK    4  A    between atoms: C_17  and  C_18
REMARK    5  A    between atoms: C_19  and  C_20
REMARK    6  A    between atoms: C_23  and  C_24
REMARK                            x       y       z     vdW  Elec       q    Type
REMARK                         _______ _______ _______ _____ _____    ______ ____
ROOT
ATOM      1  C   UNL     1       1.183   2.322  22.073  0.00  0.00    +0.000 C 
ATOM      2  N   UNL     1       0.745   3.464  21.305  0.00  0.00    +0.000 N 
ATOM      3  C   UNL     1       1.681   3.973  20.419  0.00  0.00    +0.000 A 
ATOM      4  N   UNL     1       1.629   5.294  20.214  0.00  0.00    +0.000 NA
ATOM      5  C   UNL     1       2.451   5.831  19.293  0.00  0.00    +0.000 A 
ATOM      6  N   UNL     1       2.304   7.209  19.013  0.00  0.00    +0.000 N 
ATOM      7  C   UNL     1       3.355   5.032  18.560  0.00  0.00    +0.000 A 
ATOM      8  C   UNL     1       4.254   5.475  17.551  0.00  0.00    +0.000 A 
ATOM      9  C   UNL     1       5.194   4.620  16.956  0.00  0.00    +0.000 A 
ATOM     10  C   UNL     1       5.195   3.281  17.347  0.00  0.00    +0.000 A 
ATOM     11  C   UNL     1       4.275   2.825  18.295  0.00  0.00    +0.000 A 
ATOM     12  C   UNL     1       3.370   3.679  18.913  0.00  0.00    +0.000 A 
ATOM     13  N   UNL     1       2.545   3.156  19.822  0.00  0.00    +0.000 NA
ATOM     14  H   UNL     1       0.383   4.247  21.833  0.00  0.00    +0.000 HD
ATOM     15  H   UNL     1       3.137   7.620  18.614  0.00  0.00    +0.000 HD
ENDROOT
BRANCH   9  16
ATOM     16  C   UNL     1       6.157   5.108  15.974  0.00  0.00    +0.000 A 
ATOM     17  C   UNL     1       6.382   4.778  14.604  0.00  0.00    +0.000 A 
ATOM     18  C   UNL     1       5.691   3.817  13.707  0.00  0.00    +0.000 C 
ATOM     19  N   UNL     1       7.398   5.485  14.094  0.00  0.00    +0.000 NA
ATOM     20  O   UNL     1       7.881   6.256  15.124  0.00  0.00    +0.000 OA
ATOM     21  C   UNL     1       7.162   6.019  16.252  0.00  0.00    +0.000 A 
ATOM     22  C   UNL     1       7.644   6.733  17.456  0.00  0.00    +0.000 C 
ENDBRANCH   9  16
BRANCH   6  23
ATOM     23  C   UNL     1       1.823   8.004  20.148  0.00  0.00    +0.000 C 
BRANCH  23  24
ATOM     24  C   UNL     1       1.102   9.241  19.642  0.00  0.00    +0.000 A 
ATOM     25  C   UNL     1       1.371  10.518  20.161  0.00  0.00    +0.000 A 
ATOM     26  C   UNL     1       0.667  11.638  19.701  0.00  0.00    +0.000 A 
ATOM     27  C   UNL     1      -0.309  11.496  18.717  0.00  0.00    +0.000 A 
ATOM     28  C   UNL     1      -0.586  10.231  18.201  0.00  0.00    +0.000 A 
ATOM     29 CL   UNL     1      -1.795  10.050  16.989  0.00  0.00    +0.000 Cl
ATOM     30  C   UNL     1       0.104   9.112  18.660  0.00  0.00    +0.000 A 
ENDBRANCH  23  24
ENDBRANCH   6  23
TORSDOF 3
ENDMDL
MODEL 9
REMARK VINA RESULT:      -7.4      0.423      1.550
REMARK  Name = 
REMARK  6 active torsions:
REMARK  status: ('A' for Active; 'I' for Inactive)
REMARK    1  A    between atoms: C_1  and  N_2
REMARK    2  A    between atoms: N_6  and  C_7
REMARK    3  A    between atoms: C_7  and  C_8
REMARK    4  A    between atoms: C_17  and  C_18
REMARK    5  A    between atoms: C_19  and  C_20
REMARK    6  A    between atoms: C_23  and  C_24
REMARK                            x       y       z     vdW  Elec       q    Type
REMARK                         _______ _______ _______ _____ _____    ______ ____
ROOT
ATOM      1  C   UNL     1       1.127   2.042  22.177  0.00  0.00    +0.000 C 
ATOM      2  N   UNL     1       0.704   3.233  21.477  0.00  0.00    +0.000 N 
ATOM      3  C   UNL     1       1.661   3.807  20.656  0.00  0.00    +0.000 A 
ATOM      4  N   UNL     1       1.606   5.139  20.542  0.00  0.00    +0.000 NA
ATOM      5  C   UNL     1       2.450   5.742  19.684  0.00  0.00    +0.000 A 
ATOM      6  N   UNL     1       2.303   7.135  19.497  0.00  0.00    +0.000 N 
ATOM      7  C   UNL     1       3.379   5.000  18.923  0.00  0.00    +0.000 A 
ATOM      8  C   UNL     1       4.303   5.516  17.973  0.00  0.00    +0.000 A 
ATOM      9  C   UNL     1       5.265   4.709  17.347  0.00  0.00    +0.000 A 
ATOM     10  C   UNL     1       5.264   3.346  17.644  0.00  0.00    +0.000 A 
ATOM     11  C   UNL     1       4.321   2.821  18.532  0.00  0.00    +0.000 A 
ATOM     12  C   UNL     1       3.392   3.626  19.181  0.00  0.00    +0.000 A 
ATOM     13  N   UNL     1       2.546   3.037  20.028  0.00  0.00    +0.000 NA
ATOM     14  H   UNL     1       0.322   3.976  22.048  0.00  0.00    +0.000 HD
ATOM     15  H   UNL     1       3.143   7.577  19.151  0.00  0.00    +0.000 HD
ENDROOT
BRANCH   9  16
ATOM     16  C   UNL     1       6.252   5.268  16.429  0.00  0.00    +0.000 A 
ATOM     17  C   UNL     1       7.232   6.295  16.582  0.00  0.00    +0.000 A 
ATOM     18  C   UNL     1       7.582   7.140  17.750  0.00  0.00    +0.000 C 
ATOM     19  N   UNL     1       7.920   6.482  15.449  0.00  0.00    +0.000 NA
ATOM     20  O   UNL     1       7.381   5.617  14.527  0.00  0.00    +0.000 OA
ATOM     21  C   UNL     1       6.371   4.908  15.097  0.00  0.00    +0.000 A 
ATOM     22  C   UNL     1       5.654   3.998  14.175  0.00  0.00    +0.000 C 
ENDBRANCH   9  16
BRANCH   6  23
ATOM     23  C   UNL     1       1.785   7.848  20.670  0.00  0.00    +0.000 C 
BRANCH  23  24
ATOM     24  C   UNL     1       0.962   9.044  20.226  0.00  0.00    +0.000 A 
ATOM     25  C   UNL     1       0.962   9.488  18.893  0.00  0.00    +0.000 A 
ATOM     26  C   UNL     1       0.221  10.614  18.516  0.00  0.00    +0.000 A 
ATOM     27  C   UNL     1      -0.529  11.308  19.464  0.00  0.00    +0.000 A 
ATOM     28  C   UNL     1      -0.529  10.878  20.790  0.00  0.00    +0.000 A 
ATOM     29 CL   UNL     1      -1.449  11.735  21.964  0.00  0.00    +0.000 Cl
ATOM     30  C   UNL     1       0.213   9.763  21.173  0.00  0.00    +0.000 A 
ENDBRANCH  23  24
ENDBRANCH   6  23
TORSDOF 3
ENDMDL
