MODEL 1
REMARK VINA RESULT:      -8.0      0.000      0.000
REMARK  Name = 
REMARK  10 active torsions:
REMARK  status: ('A' for Active; 'I' for Inactive)
REMARK    1  A    between atoms: C_6  and  C_7
REMARK    2  A    between atoms: C_11  and  C_12
REMARK    3  A    between atoms: C_11  and  C_13
REMARK    4  A    between atoms: C_13  and  O_15
REMARK    5  A    between atoms: C_16  and  C_17
REMARK    6  A    between atoms: C_17  and  C_18
REMARK    7  A    between atoms: C_18  and  C_19
REMARK    8  A    between atoms: C_19  and  C_20
REMARK    9  A    between atoms: C_21  and  C_22
REMARK   10  A    between atoms: C_22  and  O_24
REMARK                            x       y       z     vdW  Elec       q    Type
REMARK                         _______ _______ _______ _____ _____    ______ ____
ROOT
ATOM      1  C   UNL     1       4.699   6.854  16.378  0.00  0.00    +0.000 C 
ATOM      2  C   UNL     1       4.561   6.348  17.619  0.00  0.00    +0.000 C 
ATOM      3  C   UNL     1       5.688   5.541  18.219  0.00  0.00    +0.000 C 
ATOM      4  C   UNL     1       5.235   4.131  18.615  0.00  0.00    +0.000 C 
ATOM      5  C   UNL     1       3.967   4.143  19.488  0.00  0.00    +0.000 C 
ATOM      6  C   UNL     1       2.796   4.982  18.839  0.00  0.00    +0.000 C 
ATOM      7  C   UNL     1       2.303   4.370  17.500  0.00  0.00    +0.000 C 
ATOM      8  C   UNL     1       1.634   5.054  19.859  0.00  0.00    +0.000 C 
ATOM      9  C   UNL     1       1.369   3.932  20.853  0.00  0.00    +0.000 C 
ATOM     10  C   UNL     1       2.537   3.041  21.224  0.00  0.00    +0.000 C 
ATOM     11  C   UNL     1       3.518   2.742  20.064  0.00  0.00    +0.000 C 
ATOM     12  C   UNL     1       4.671   1.933  20.696  0.00  0.00    +0.000 C 
ATOM     13  C   UNL     1       3.298   6.467  18.501  0.00  0.00    +0.000 C 
ENDROOT
BRANCH  11  14
ATOM     14  C   UNL     1       2.821   1.784  19.077  0.00  0.00    +0.000 C 
ATOM     15  O   UNL     1       1.613   1.592  19.031  0.00  0.00    +0.000 OA
BRANCH  14  16
ATOM     16  O   UNL     1       3.648   1.121  18.241  0.00  0.00    +0.000 OA
ATOM     17  H   UNL     1       4.267   0.506  18.667  0.00  0.00    +0.000 HD
ENDBRANCH  14  16
ENDBRANCH  11  14
BRANCH  13  18
ATOM     18  C   UNL     1       2.229   7.451  17.875  0.00  0.00    +0.000 C 
BRANCH  18  19
ATOM     19  C   UNL     1       2.198   8.923  18.332  0.00  0.00    +0.000 C 
BRANCH  19  20
ATOM     20  C   UNL     1       1.179   9.209  19.427  0.00  0.00    +0.000 C 
ATOM     21  C   UNL     1       0.135  10.239  19.099  0.00  0.00    +0.000 C 
ATOM     22  C   UNL     1       1.272   8.598  20.628  0.00  0.00    +0.000 C 
BRANCH  22  23
ATOM     23  C   UNL     1       0.330   8.810  21.760  0.00  0.00    +0.000 C 
ATOM     24  O   UNL     1      -0.724   8.225  21.917  0.00  0.00    +0.000 OA
BRANCH  23  25
ATOM     25  O   UNL     1       0.782   9.765  22.605  0.00  0.00    +0.000 OA
ATOM     26  H   UNL     1       0.201  10.529  22.730  0.00  0.00    +0.000 HD
ENDBRANCH  23  25
ENDBRANCH  22  23
ENDBRANCH  19  20
ENDBRANCH  18  19
ENDBRANCH  13  18
TORSDOF 7
ENDMDL
MODEL 2
REMARK VINA RESULT:      -7.6      2.094      4.020
REMARK  Name = 
REMARK  10 active torsions:
REMARK  status: ('A' for Active; 'I' for Inactive)
REMARK    1  A    between atoms: C_6  and  C_7
REMARK    2  A    between atoms: C_11  and  C_12
REMARK    3  A    between atoms: C_11  and  C_13
REMARK    4  A    between atoms: C_13  and  O_15
REMARK    5  A    between atoms: C_16  and  C_17
REMARK    6  A    between atoms: C_17  and  C_18
REMARK    7  A    between atoms: C_18  and  C_19
REMARK    8  A    between atoms: C_19  and  C_20
REMARK    9  A    between atoms: C_21  and  C_22
REMARK   10  A    between atoms: C_22  and  O_24
REMARK                            x       y       z     vdW  Elec       q    Type
REMARK                         _______ _______ _______ _____ _____    ______ ____
ROOT
ATOM      1  C   UNL     1       2.182   3.635  20.644  0.00  0.00    +0.000 C 
ATOM      2  C   UNL     1       2.421   3.968  19.362  0.00  0.00    +0.000 C 
ATOM      3  C   UNL     1       2.689   2.877  18.351  0.00  0.00    +0.000 C 
ATOM      4  C   UNL     1       4.047   3.054  17.663  0.00  0.00    +0.000 C 
ATOM      5  C   UNL     1       4.237   4.471  17.090  0.00  0.00    +0.000 C 
ATOM      6  C   UNL     1       3.964   5.598  18.164  0.00  0.00    +0.000 C 
ATOM      7  C   UNL     1       4.975   5.549  19.341  0.00  0.00    +0.000 C 
ATOM      8  C   UNL     1       4.033   6.969  17.450  0.00  0.00    +0.000 C 
ATOM      9  C   UNL     1       4.936   7.201  16.247  0.00  0.00    +0.000 C 
ATOM     10  C   UNL     1       5.319   5.991  15.419  0.00  0.00    +0.000 C 
ATOM     11  C   UNL     1       5.546   4.695  16.236  0.00  0.00    +0.000 C 
ATOM     12  C   UNL     1       5.801   3.588  15.189  0.00  0.00    +0.000 C 
ATOM     13  C   UNL     1       2.508   5.408  18.810  0.00  0.00    +0.000 C 
ENDROOT
BRANCH  11  14
ATOM     14  C   UNL     1       6.864   4.844  17.021  0.00  0.00    +0.000 C 
ATOM     15  O   UNL     1       7.663   5.758  16.870  0.00  0.00    +0.000 OA
BRANCH  14  16
ATOM     16  O   UNL     1       7.115   3.861  17.912  0.00  0.00    +0.000 OA
ATOM     17  H   UNL     1       7.125   2.961  17.548  0.00  0.00    +0.000 HD
ENDBRANCH  14  16
ENDBRANCH  11  14
BRANCH  13  18
ATOM     18  C   UNL     1       2.065   6.481  19.883  0.00  0.00    +0.000 C 
BRANCH  18  19
ATOM     19  C   UNL     1       1.961   7.964  19.472  0.00  0.00    +0.000 C 
BRANCH  19  20
ATOM     20  C   UNL     1       1.043   8.790  20.362  0.00  0.00    +0.000 C 
ATOM     21  C   UNL     1       0.296   9.902  19.682  0.00  0.00    +0.000 C 
ATOM     22  C   UNL     1       0.972   8.547  21.689  0.00  0.00    +0.000 C 
BRANCH  22  23
ATOM     23  C   UNL     1       0.110   9.296  22.642  0.00  0.00    +0.000 C 
ATOM     24  O   UNL     1       0.365  10.387  23.113  0.00  0.00    +0.000 OA
BRANCH  23  25
ATOM     25  O   UNL     1      -1.009   8.598  22.948  0.00  0.00    +0.000 OA
ATOM     26  H   UNL     1      -1.216   7.856  22.364  0.00  0.00    +0.000 HD
ENDBRANCH  23  25
ENDBRANCH  22  23
ENDBRANCH  19  20
ENDBRANCH  18  19
ENDBRANCH  13  18
TORSDOF 7
ENDMDL
MODEL 3
REMARK VINA RESULT:      -7.6      1.185      1.663
REMARK  Name = 
REMARK  10 active torsions:
REMARK  status: ('A' for Active; 'I' for Inactive)
REMARK    1  A    between atoms: C_6  and  C_7
REMARK    2  A    between atoms: C_11  and  C_12
REMARK    3  A    between atoms: C_11  and  C_13
REMARK    4  A    between atoms: C_13  and  O_15
REMARK    5  A    between atoms: C_16  and  C_17
REMARK    6  A    between atoms: C_17  and  C_18
REMARK    7  A    between atoms: C_18  and  C_19
REMARK    8  A    between atoms: C_19  and  C_20
REMARK    9  A    between atoms: C_21  and  C_22
REMARK   10  A    between atoms: C_22  and  O_24
REMARK                            x       y       z     vdW  Elec       q    Type
REMARK                         _______ _______ _______ _____ _____    ______ ____
ROOT
ATOM      1  C   UNL     1       4.823   6.803  16.380  0.00  0.00    +0.000 C 
ATOM      2  C   UNL     1       4.649   6.311  17.622  0.00  0.00    +0.000 C 
ATOM      3  C   UNL     1       5.751   5.494  18.256  0.00  0.00    +0.000 C 
ATOM      4  C   UNL     1       5.270   4.094  18.654  0.00  0.00    +0.000 C 
ATOM      5  C   UNL     1       3.982   4.131  19.496  0.00  0.00    +0.000 C 
ATOM      6  C   UNL     1       2.837   4.980  18.813  0.00  0.00    +0.000 C 
ATOM      7  C   UNL     1       2.368   4.362  17.468  0.00  0.00    +0.000 C 
ATOM      8  C   UNL     1       1.653   5.077  19.804  0.00  0.00    +0.000 C 
ATOM      9  C   UNL     1       1.350   3.969  20.802  0.00  0.00    +0.000 C 
ATOM     10  C   UNL     1       2.497   3.065  21.209  0.00  0.00    +0.000 C 
ATOM     11  C   UNL     1       3.500   2.743  20.074  0.00  0.00    +0.000 C 
ATOM     12  C   UNL     1       4.627   1.924  20.742  0.00  0.00    +0.000 C 
ATOM     13  C   UNL     1       3.368   6.455  18.472  0.00  0.00    +0.000 C 
ENDROOT
BRANCH  11  14
ATOM     14  C   UNL     1       2.813   1.784  19.081  0.00  0.00    +0.000 C 
ATOM     15  O   UNL     1       1.611   1.559  19.051  0.00  0.00    +0.000 OA
BRANCH  14  16
ATOM     16  O   UNL     1       3.645   1.162  18.218  0.00  0.00    +0.000 OA
ATOM     17  H   UNL     1       3.227   0.822  17.409  0.00  0.00    +0.000 HD
ENDBRANCH  14  16
ENDBRANCH  11  14
BRANCH  13  18
ATOM     18  C   UNL     1       2.327   7.447  17.813  0.00  0.00    +0.000 C 
BRANCH  18  19
ATOM     19  C   UNL     1       2.387   8.947  18.162  0.00  0.00    +0.000 C 
BRANCH  19  20
ATOM     20  C   UNL     1       1.185   9.448  18.951  0.00  0.00    +0.000 C 
ATOM     21  C   UNL     1       1.016   8.873  20.328  0.00  0.00    +0.000 C 
ATOM     22  C   UNL     1       0.312  10.315  18.393  0.00  0.00    +0.000 C 
BRANCH  22  23
ATOM     23  C   UNL     1      -0.891  10.862  19.077  0.00  0.00    +0.000 C 
ATOM     24  O   UNL     1      -0.882  11.726  19.933  0.00  0.00    +0.000 OA
BRANCH  23  25
ATOM     25  O   UNL     1      -2.022  10.260  18.642  0.00  0.00    +0.000 OA
ATOM     26  H   UNL     1      -2.822  10.443  19.154  0.00  0.00    +0.000 HD
ENDBRANCH  23  25
ENDBRANCH  22  23
ENDBRANCH  19  20
ENDBRANCH  18  19
ENDBRANCH  13  18
TORSDOF 7
ENDMDL
MODEL 4
REMARK VINA RESULT:      -7.5      3.322      6.631
REMARK  Name = 
REMARK  10 active torsions:
REMARK  status: ('A' for Active; 'I' for Inactive)
REMARK    1  A    between atoms: C_6  and  C_7
REMARK    2  A    between atoms: C_11  and  C_12
REMARK    3  A    between atoms: C_11  and  C_13
REMARK    4  A    between atoms: C_13  and  O_15
REMARK    5  A    between atoms: C_16  and  C_17
REMARK    6  A    between atoms: C_17  and  C_18
REMARK    7  A    between atoms: C_18  and  C_19
REMARK    8  A    between atoms: C_19  and  C_20
REMARK    9  A    between atoms: C_21  and  C_22
REMARK   10  A    between atoms: C_22  and  O_24
REMARK                            x       y       z     vdW  Elec       q    Type
REMARK                         _______ _______ _______ _____ _____    ______ ____
ROOT
ATOM      1  C   UNL     1       6.177   6.999  17.171  0.00  0.00    +0.000 C 
ATOM      2  C   UNL     1       4.996   6.356  17.129  0.00  0.00    +0.000 C 
ATOM      3  C   UNL     1       3.747   7.068  17.592  0.00  0.00    +0.000 C 
ATOM      4  C   UNL     1       3.045   6.315  18.728  0.00  0.00    +0.000 C 
ATOM      5  C   UNL     1       2.806   4.832  18.392  0.00  0.00    +0.000 C 
ATOM      6  C   UNL     1       4.124   4.100  17.920  0.00  0.00    +0.000 C 
ATOM      7  C   UNL     1       5.201   4.045  19.038  0.00  0.00    +0.000 C 
ATOM      8  C   UNL     1       3.745   2.670  17.466  0.00  0.00    +0.000 C 
ATOM      9  C   UNL     1       2.580   1.914  18.090  0.00  0.00    +0.000 C 
ATOM     10  C   UNL     1       1.475   2.736  18.723  0.00  0.00    +0.000 C 
ATOM     11  C   UNL     1       1.955   4.018  19.445  0.00  0.00    +0.000 C 
ATOM     12  C   UNL     1       0.668   4.744  19.896  0.00  0.00    +0.000 C 
ATOM     13  C   UNL     1       4.789   4.888  16.691  0.00  0.00    +0.000 C 
ENDROOT
BRANCH  11  14
ATOM     14  C   UNL     1       2.681   3.600  20.740  0.00  0.00    +0.000 C 
ATOM     15  O   UNL     1       3.168   2.496  20.937  0.00  0.00    +0.000 OA
BRANCH  14  16
ATOM     16  O   UNL     1       2.737   4.551  21.697  0.00  0.00    +0.000 OA
ATOM     17  H   UNL     1       2.321   4.316  22.543  0.00  0.00    +0.000 HD
ENDBRANCH  14  16
ENDBRANCH  11  14
BRANCH  13  18
ATOM     18  C   UNL     1       6.104   4.262  16.076  0.00  0.00    +0.000 C 
BRANCH  18  19
ATOM     19  C   UNL     1       6.841   5.010  14.947  0.00  0.00    +0.000 C 
BRANCH  19  20
ATOM     20  C   UNL     1       6.613   4.420  13.562  0.00  0.00    +0.000 C 
ATOM     21  C   UNL     1       7.547   4.892  12.485  0.00  0.00    +0.000 C 
ATOM     22  C   UNL     1       5.588   3.568  13.339  0.00  0.00    +0.000 C 
BRANCH  22  23
ATOM     23  C   UNL     1       5.281   2.939  12.026  0.00  0.00    +0.000 C 
ATOM     24  O   UNL     1       5.877   1.997  11.541  0.00  0.00    +0.000 OA
BRANCH  23  25
ATOM     25  O   UNL     1       4.250   3.563  11.410  0.00  0.00    +0.000 OA
ATOM     26  H   UNL     1       3.525   2.993  11.118  0.00  0.00    +0.000 HD
ENDBRANCH  23  25
ENDBRANCH  22  23
ENDBRANCH  19  20
ENDBRANCH  18  19
ENDBRANCH  13  18
TORSDOF 7
ENDMDL
MODEL 5
REMARK VINA RESULT:      -7.3      0.974      1.301
REMARK  Name = 
REMARK  10 active torsions:
REMARK  status: ('A' for Active; 'I' for Inactive)
REMARK    1  A    between atoms: C_6  and  C_7
REMARK    2  A    between atoms: C_11  and  C_12
REMARK    3  A    between atoms: C_11  and  C_13
REMARK    4  A    between atoms: C_13  and  O_15
REMARK    5  A    between atoms: C_16  and  C_17
REMARK    6  A    between atoms: C_17  and  C_18
REMARK    7  A    between atoms: C_18  and  C_19
REMARK    8  A    between atoms: C_19  and  C_20
REMARK    9  A    between atoms: C_21  and  C_22
REMARK   10  A    between atoms: C_22  and  O_24
REMARK                            x       y       z     vdW  Elec       q    Type
REMARK                         _______ _______ _______ _____ _____    ______ ____
ROOT
ATOM      1  C   UNL     1       4.478   6.946  16.378  0.00  0.00    +0.000 C 
ATOM      2  C   UNL     1       4.386   6.422  17.615  0.00  0.00    +0.000 C 
ATOM      3  C   UNL     1       5.531   5.599  18.158  0.00  0.00    +0.000 C 
ATOM      4  C   UNL     1       5.085   4.185  18.549  0.00  0.00    +0.000 C 
ATOM      5  C   UNL     1       3.853   4.190  19.472  0.00  0.00    +0.000 C 
ATOM      6  C   UNL     1       2.662   5.046  18.883  0.00  0.00    +0.000 C 
ATOM      7  C   UNL     1       2.113   4.459  17.555  0.00  0.00    +0.000 C 
ATOM      8  C   UNL     1       1.542   5.109  19.949  0.00  0.00    +0.000 C 
ATOM      9  C   UNL     1       1.310   3.973  20.935  0.00  0.00    +0.000 C 
ATOM     10  C   UNL     1       2.486   3.069  21.246  0.00  0.00    +0.000 C 
ATOM     11  C   UNL     1       3.418   2.784  20.043  0.00  0.00    +0.000 C 
ATOM     12  C   UNL     1       4.590   1.958  20.617  0.00  0.00    +0.000 C 
ATOM     13  C   UNL     1       3.159   6.534  18.548  0.00  0.00    +0.000 C 
ENDROOT
BRANCH  11  14
ATOM     14  C   UNL     1       2.677   1.845  19.070  0.00  0.00    +0.000 C 
ATOM     15  O   UNL     1       1.470   1.642  19.084  0.00  0.00    +0.000 OA
BRANCH  14  16
ATOM     16  O   UNL     1       3.463   1.214  18.172  0.00  0.00    +0.000 OA
ATOM     17  H   UNL     1       3.905   0.412  18.496  0.00  0.00    +0.000 HD
ENDBRANCH  14  16
ENDBRANCH  11  14
BRANCH  13  18
ATOM     18  C   UNL     1       2.073   7.533  17.981  0.00  0.00    +0.000 C 
BRANCH  18  19
ATOM     19  C   UNL     1       2.231   9.045  18.235  0.00  0.00    +0.000 C 
BRANCH  19  20
ATOM     20  C   UNL     1       1.399   9.568  19.398  0.00  0.00    +0.000 C 
ATOM     21  C   UNL     1       1.167   8.604  20.526  0.00  0.00    +0.000 C 
ATOM     22  C   UNL     1       0.869  10.811  19.359  0.00  0.00    +0.000 C 
BRANCH  22  23
ATOM     23  C   UNL     1       0.043  11.413  20.439  0.00  0.00    +0.000 C 
ATOM     24  O   UNL     1      -1.173  11.425  20.471  0.00  0.00    +0.000 OA
BRANCH  23  25
ATOM     25  O   UNL     1       0.817  11.978  21.395  0.00  0.00    +0.000 OA
ATOM     26  H   UNL     1       1.616  11.489  21.634  0.00  0.00    +0.000 HD
ENDBRANCH  23  25
ENDBRANCH  22  23
ENDBRANCH  19  20
ENDBRANCH  18  19
ENDBRANCH  13  18
TORSDOF 7
ENDMDL
MODEL 6
REMARK VINA RESULT:      -7.2      1.843      2.205
REMARK  Name = 
REMARK  10 active torsions:
REMARK  status: ('A' for Active; 'I' for Inactive)
REMARK    1  A    between atoms: C_6  and  C_7
REMARK    2  A    between atoms: C_11  and  C_12
REMARK    3  A    between atoms: C_11  and  C_13
REMARK    4  A    between atoms: C_13  and  O_15
REMARK    5  A    between atoms: C_16  and  C_17
REMARK    6  A    between atoms: C_17  and  C_18
REMARK    7  A    between atoms: C_18  and  C_19
REMARK    8  A    between atoms: C_19  and  C_20
REMARK    9  A    between atoms: C_21  and  C_22
REMARK   10  A    between atoms: C_22  and  O_24
REMARK                            x       y       z     vdW  Elec       q    Type
REMARK                         _______ _______ _______ _____ _____    ______ ____
ROOT
ATOM      1  C   UNL     1       4.638   7.005  16.485  0.00  0.00    +0.000 C 
ATOM      2  C   UNL     1       4.551   6.430  17.699  0.00  0.00    +0.000 C 
ATOM      3  C   UNL     1       5.659   5.515  18.167  0.00  0.00    +0.000 C 
ATOM      4  C   UNL     1       5.140   4.114  18.508  0.00  0.00    +0.000 C 
ATOM      5  C   UNL     1       3.938   4.150  19.469  0.00  0.00    +0.000 C 
ATOM      6  C   UNL     1       2.784   5.101  18.959  0.00  0.00    +0.000 C 
ATOM      7  C   UNL     1       2.161   4.611  17.624  0.00  0.00    +0.000 C 
ATOM      8  C   UNL     1       1.702   5.181  20.063  0.00  0.00    +0.000 C 
ATOM      9  C   UNL     1       1.431   4.016  21.003  0.00  0.00    +0.000 C 
ATOM     10  C   UNL     1       2.558   3.030  21.235  0.00  0.00    +0.000 C 
ATOM     11  C   UNL     1       3.435   2.746  19.991  0.00  0.00    +0.000 C 
ATOM     12  C   UNL     1       4.571   1.826  20.488  0.00  0.00    +0.000 C 
ATOM     13  C   UNL     1       3.361   6.571  18.675  0.00  0.00    +0.000 C 
ENDROOT
BRANCH  11  14
ATOM     14  C   UNL     1       2.609   1.900  19.001  0.00  0.00    +0.000 C 
ATOM     15  O   UNL     1       1.396   1.755  19.056  0.00  0.00    +0.000 OA
BRANCH  14  16
ATOM     16  O   UNL     1       3.326   1.282  18.038  0.00  0.00    +0.000 OA
ATOM     17  H   UNL     1       4.197   1.672  17.851  0.00  0.00    +0.000 HD
ENDBRANCH  14  16
ENDBRANCH  11  14
BRANCH  13  18
ATOM     18  C   UNL     1       2.322   7.659  18.190  0.00  0.00    +0.000 C 
BRANCH  18  19
ATOM     19  C   UNL     1       1.642   8.572  19.229  0.00  0.00    +0.000 C 
BRANCH  19  20
ATOM     20  C   UNL     1       1.193   9.916  18.672  0.00  0.00    +0.000 C 
ATOM     21  C   UNL     1      -0.113   9.916  17.929  0.00  0.00    +0.000 C 
ATOM     22  C   UNL     1       1.973  11.010  18.807  0.00  0.00    +0.000 C 
BRANCH  22  23
ATOM     23  C   UNL     1       1.627  12.365  18.299  0.00  0.00    +0.000 C 
ATOM     24  O   UNL     1       0.780  13.098  18.773  0.00  0.00    +0.000 OA
BRANCH  23  25
ATOM     25  O   UNL     1       2.365  12.688  17.212  0.00  0.00    +0.000 OA
ATOM     26  H   UNL     1       1.885  13.112  16.487  0.00  0.00    +0.000 HD
ENDBRANCH  23  25
ENDBRANCH  22  23
ENDBRANCH  19  20
ENDBRANCH  18  19
ENDBRANCH  13  18
TORSDOF 7
ENDMDL
MODEL 7
REMARK VINA RESULT:      -7.1      2.324      4.411
REMARK  Name = 
REMARK  10 active torsions:
REMARK  status: ('A' for Active; 'I' for Inactive)
REMARK    1  A    between atoms: C_6  and  C_7
REMARK    2  A    between atoms: C_11  and  C_12
REMARK    3  A    between atoms: C_11  and  C_13
REMARK    4  A    between atoms: C_13  and  O_15
REMARK    5  A    between atoms: C_16  and  C_17
REMARK    6  A    between atoms: C_17  and  C_18
REMARK    7  A    between atoms: C_18  and  C_19
REMARK    8  A    between atoms: C_19  and  C_20
REMARK    9  A    between atoms: C_21  and  C_22
REMARK   10  A    between atoms: C_22  and  O_24
REMARK                            x       y       z     vdW  Elec       q    Type
REMARK                         _______ _______ _______ _____ _____    ______ ____
ROOT
ATOM      1  C   UNL     1       3.443   2.627  20.404  0.00  0.00    +0.000 C 
ATOM      2  C   UNL     1       3.385   3.215  19.194  0.00  0.00    +0.000 C 
ATOM      3  C   UNL     1       3.538   2.370  17.951  0.00  0.00    +0.000 C 
ATOM      4  C   UNL     1       4.707   2.842  17.078  0.00  0.00    +0.000 C 
ATOM      5  C   UNL     1       4.648   4.351  16.780  0.00  0.00    +0.000 C 
ATOM      6  C   UNL     1       4.499   5.220  18.092  0.00  0.00    +0.000 C 
ATOM      7  C   UNL     1       5.729   5.087  19.030  0.00  0.00    +0.000 C 
ATOM      8  C   UNL     1       4.298   6.696  17.671  0.00  0.00    +0.000 C 
ATOM      9  C   UNL     1       4.912   7.256  16.397  0.00  0.00    +0.000 C 
ATOM     10  C   UNL     1       5.225   6.276  15.285  0.00  0.00    +0.000 C 
ATOM     11  C   UNL     1       5.730   4.893  15.765  0.00  0.00    +0.000 C 
ATOM     12  C   UNL     1       5.864   4.037  14.486  0.00  0.00    +0.000 C 
ATOM     13  C   UNL     1       3.228   4.731  18.940  0.00  0.00    +0.000 C 
ENDROOT
BRANCH  11  14
ATOM     14  C   UNL     1       7.161   5.064  16.311  0.00  0.00    +0.000 C 
ATOM     15  O   UNL     1       7.854   4.152  16.741  0.00  0.00    +0.000 OA
BRANCH  14  16
ATOM     16  O   UNL     1       7.627   6.331  16.309  0.00  0.00    +0.000 OA
ATOM     17  H   UNL     1       8.465   6.468  16.782  0.00  0.00    +0.000 HD
ENDBRANCH  14  16
ENDBRANCH  11  14
BRANCH  13  18
ATOM     18  C   UNL     1       2.918   5.526  20.272  0.00  0.00    +0.000 C 
BRANCH  18  19
ATOM     19  C   UNL     1       1.487   6.037  20.531  0.00  0.00    +0.000 C 
BRANCH  19  20
ATOM     20  C   UNL     1       1.345   7.550  20.448  0.00  0.00    +0.000 C 
ATOM     21  C   UNL     1       1.915   8.197  19.218  0.00  0.00    +0.000 C 
ATOM     22  C   UNL     1       0.785   8.244  21.463  0.00  0.00    +0.000 C 
BRANCH  22  23
ATOM     23  C   UNL     1       0.602   9.720  21.480  0.00  0.00    +0.000 C 
ATOM     24  O   UNL     1       1.362  10.518  21.995  0.00  0.00    +0.000 OA
BRANCH  23  25
ATOM     25  O   UNL     1      -0.544  10.082  20.858  0.00  0.00    +0.000 OA
ATOM     26  H   UNL     1      -0.513  10.914  20.366  0.00  0.00    +0.000 HD
ENDBRANCH  23  25
ENDBRANCH  22  23
ENDBRANCH  19  20
ENDBRANCH  18  19
ENDBRANCH  13  18
TORSDOF 7
ENDMDL
MODEL 8
REMARK VINA RESULT:      -7.1      3.703      6.640
REMARK  Name = 
REMARK  10 active torsions:
REMARK  status: ('A' for Active; 'I' for Inactive)
REMARK    1  A    between atoms: C_6  and  C_7
REMARK    2  A    between atoms: C_11  and  C_12
REMARK    3  A    between atoms: C_11  and  C_13
REMARK    4  A    between atoms: C_13  and  O_15
REMARK    5  A    between atoms: C_16  and  C_17
REMARK    6  A    between atoms: C_17  and  C_18
REMARK    7  A    between atoms: C_18  and  C_19
REMARK    8  A    between atoms: C_19  and  C_20
REMARK    9  A    between atoms: C_21  and  C_22
REMARK   10  A    between atoms: C_22  and  O_24
REMARK                            x       y       z     vdW  Elec       q    Type
REMARK                         _______ _______ _______ _____ _____    ______ ____
ROOT
ATOM      1  C   UNL     1       6.066   6.792  17.054  0.00  0.00    +0.000 C 
ATOM      2  C   UNL     1       4.834   6.249  17.095  0.00  0.00    +0.000 C 
ATOM      3  C   UNL     1       3.689   7.055  17.663  0.00  0.00    +0.000 C 
ATOM      4  C   UNL     1       3.015   6.342  18.841  0.00  0.00    +0.000 C 
ATOM      5  C   UNL     1       2.627   4.891  18.508  0.00  0.00    +0.000 C 
ATOM      6  C   UNL     1       3.839   4.060  17.927  0.00  0.00    +0.000 C 
ATOM      7  C   UNL     1       4.989   3.896  18.957  0.00  0.00    +0.000 C 
ATOM      8  C   UNL     1       3.307   2.675  17.488  0.00  0.00    +0.000 C 
ATOM      9  C   UNL     1       2.134   2.007  18.191  0.00  0.00    +0.000 C 
ATOM     10  C   UNL     1       1.154   2.907  18.917  0.00  0.00    +0.000 C 
ATOM     11  C   UNL     1       1.794   4.132  19.614  0.00  0.00    +0.000 C 
ATOM     12  C   UNL     1       0.611   4.953  20.172  0.00  0.00    +0.000 C 
ATOM     13  C   UNL     1       4.471   4.812  16.659  0.00  0.00    +0.000 C 
ENDROOT
BRANCH  11  14
ATOM     14  C   UNL     1       2.578   3.632  20.844  0.00  0.00    +0.000 C 
ATOM     15  O   UNL     1       2.976   2.485  20.995  0.00  0.00    +0.000 OA
BRANCH  14  16
ATOM     16  O   UNL     1       2.798   4.560  21.800  0.00  0.00    +0.000 OA
ATOM     17  H   UNL     1       2.661   5.482  21.525  0.00  0.00    +0.000 HD
ENDBRANCH  14  16
ENDBRANCH  11  14
BRANCH  13  18
ATOM     18  C   UNL     1       5.678   4.090  15.936  0.00  0.00    +0.000 C 
BRANCH  18  19
ATOM     19  C   UNL     1       5.497   3.574  14.495  0.00  0.00    +0.000 C 
BRANCH  19  20
ATOM     20  C   UNL     1       6.507   4.136  13.505  0.00  0.00    +0.000 C 
ATOM     21  C   UNL     1       6.597   3.427  12.183  0.00  0.00    +0.000 C 
ATOM     22  C   UNL     1       7.299   5.176  13.848  0.00  0.00    +0.000 C 
BRANCH  22  23
ATOM     23  C   UNL     1       8.316   5.796  12.956  0.00  0.00    +0.000 C 
ATOM     24  O   UNL     1       9.502   5.894  13.203  0.00  0.00    +0.000 OA
BRANCH  23  25
ATOM     25  O   UNL     1       7.752   6.268  11.820  0.00  0.00    +0.000 OA
ATOM     26  H   UNL     1       7.922   5.753  11.018  0.00  0.00    +0.000 HD
ENDBRANCH  23  25
ENDBRANCH  22  23
ENDBRANCH  19  20
ENDBRANCH  18  19
ENDBRANCH  13  18
TORSDOF 7
ENDMDL
MODEL 9
REMARK VINA RESULT:      -7.0      1.629      2.113
REMARK  Name = 
REMARK  10 active torsions:
REMARK  status: ('A' for Active; 'I' for Inactive)
REMARK    1  A    between atoms: C_6  and  C_7
REMARK    2  A    between atoms: C_11  and  C_12
REMARK    3  A    between atoms: C_11  and  C_13
REMARK    4  A    between atoms: C_13  and  O_15
REMARK    5  A    between atoms: C_16  and  C_17
REMARK    6  A    between atoms: C_17  and  C_18
REMARK    7  A    between atoms: C_18  and  C_19
REMARK    8  A    between atoms: C_19  and  C_20
REMARK    9  A    between atoms: C_21  and  C_22
REMARK   10  A    between atoms: C_22  and  O_24
REMARK                            x       y       z     vdW  Elec       q    Type
REMARK                         _______ _______ _______ _____ _____    ______ ____
ROOT
ATOM      1  C   UNL     1       4.675   7.271  16.605  0.00  0.00    +0.000 C 
ATOM      2  C   UNL     1       4.571   6.638  17.788  0.00  0.00    +0.000 C 
ATOM      3  C   UNL     1       5.699   5.747  18.254  0.00  0.00    +0.000 C 
ATOM      4  C   UNL     1       5.227   4.312  18.513  0.00  0.00    +0.000 C 
ATOM      5  C   UNL     1       3.993   4.255  19.431  0.00  0.00    +0.000 C 
ATOM      6  C   UNL     1       2.818   5.182  18.922  0.00  0.00    +0.000 C 
ATOM      7  C   UNL     1       2.263   4.729  17.545  0.00  0.00    +0.000 C 
ATOM      8  C   UNL     1       1.697   5.167  19.988  0.00  0.00    +0.000 C 
ATOM      9  C   UNL     1       1.442   3.949  20.865  0.00  0.00    +0.000 C 
ATOM     10  C   UNL     1       2.601   3.000  21.093  0.00  0.00    +0.000 C 
ATOM     11  C   UNL     1       3.531   2.809  19.870  0.00  0.00    +0.000 C 
ATOM     12  C   UNL     1       4.687   1.914  20.367  0.00  0.00    +0.000 C 
ATOM     13  C   UNL     1       3.344   6.685  18.726  0.00  0.00    +0.000 C 
ENDROOT
BRANCH  11  14
ATOM     14  C   UNL     1       2.776   1.977  18.815  0.00  0.00    +0.000 C 
ATOM     15  O   UNL     1       3.236   1.650  17.729  0.00  0.00    +0.000 OA
BRANCH  14  16
ATOM     16  O   UNL     1       1.516   1.629  19.154  0.00  0.00    +0.000 OA
ATOM     17  H   UNL     1       0.961   1.309  18.424  0.00  0.00    +0.000 HD
ENDBRANCH  14  16
ENDBRANCH  11  14
BRANCH  13  18
ATOM     18  C   UNL     1       2.277   7.752  18.252  0.00  0.00    +0.000 C 
BRANCH  18  19
ATOM     19  C   UNL     1       1.543   8.606  19.305  0.00  0.00    +0.000 C 
BRANCH  19  20
ATOM     20  C   UNL     1       1.156   9.995  18.814  0.00  0.00    +0.000 C 
ATOM     21  C   UNL     1       2.139  10.665  17.897  0.00  0.00    +0.000 C 
ATOM     22  C   UNL     1       0.017  10.581  19.243  0.00  0.00    +0.000 C 
BRANCH  22  23
ATOM     23  C   UNL     1      -0.449  11.931  18.826  0.00  0.00    +0.000 C 
ATOM     24  O   UNL     1      -0.237  12.966  19.429  0.00  0.00    +0.000 OA
BRANCH  23  25
ATOM     25  O   UNL     1      -1.169  11.873  17.682  0.00  0.00    +0.000 OA
ATOM     26  H   UNL     1      -1.058  12.617  17.074  0.00  0.00    +0.000 HD
ENDBRANCH  23  25
ENDBRANCH  22  23
ENDBRANCH  19  20
ENDBRANCH  18  19
ENDBRANCH  13  18
TORSDOF 7
ENDMDL
