MODEL 1
REMARK VINA RESULT:      -7.7      0.000      0.000
REMARK  Name = 
REMARK  5 active torsions:
REMARK  status: ('A' for Active; 'I' for Inactive)
REMARK    1  A    between atoms: C_1  and  C_2
REMARK    2  A    between atoms: C_3  and  C_4
REMARK    3  A    between atoms: C_4  and  N_5
REMARK    4  A    between atoms: C_9  and  N_10
REMARK    5  A    between atoms: N_23  and  C_24
REMARK                            x       y       z     vdW  Elec       q    Type
REMARK                         _______ _______ _______ _____ _____    ______ ____
ROOT
ATOM      1  N   UNL     1       2.471   6.734  19.906  0.00  0.00    +0.000 NA
ATOM      2  C   UNL     1       1.668   5.508  19.936  0.00  0.00    +0.000 C 
ATOM      3  C   UNL     1       2.462   4.306  20.441  0.00  0.00    +0.000 C 
ATOM      4  C   UNL     1       3.703   4.090  19.593  0.00  0.00    +0.000 C 
ATOM      5  C   UNL     1       4.586   5.346  19.548  0.00  0.00    +0.000 C 
ATOM      6  C   UNL     1       3.748   6.598  19.184  0.00  0.00    +0.000 C 
ENDROOT
BRANCH   5   7
ATOM      7  N   UNL     1       5.732   5.166  18.651  0.00  0.00    +0.000 N 
ATOM      8  C   UNL     1       7.082   5.230  18.984  0.00  0.00    +0.000 A 
ATOM      9  O   UNL     1       7.563   5.433  20.085  0.00  0.00    +0.000 OA
ATOM     10  O   UNL     1       7.891   5.044  17.855  0.00  0.00    +0.000 OA
ATOM     11  C   UNL     1       6.965   4.811  16.856  0.00  0.00    +0.000 A 
ATOM     12  C   UNL     1       7.283   4.574  15.534  0.00  0.00    +0.000 A 
ATOM     13  C   UNL     1       6.228   4.344  14.652  0.00  0.00    +0.000 A 
ATOM     14  C   UNL     1       4.897   4.340  15.114  0.00  0.00    +0.000 A 
ATOM     15  C   UNL     1       4.601   4.591  16.464  0.00  0.00    +0.000 A 
ATOM     16  C   UNL     1       5.661   4.843  17.307  0.00  0.00    +0.000 A 
ENDBRANCH   5   7
BRANCH   1  17
ATOM     17  C   UNL     1       1.685   7.910  19.474  0.00  0.00    +0.000 C 
BRANCH  17  20
ATOM     18  C   UNL     1      -0.660  10.265  19.434  0.00  0.00    +0.000 C 
ATOM     19  C   UNL     1       0.143   9.722  20.558  0.00  0.00    +0.000 A 
ATOM     20  C   UNL     1       1.118   8.734  20.596  0.00  0.00    +0.000 A 
ATOM     21  C   UNL     1       1.524   8.715  21.954  0.00  0.00    +0.000 A 
ATOM     22  N   UNL     1       0.853   9.583  22.711  0.00  0.00    +0.000 NA
ATOM     23  N   UNL     1       0.005  10.170  21.851  0.00  0.00    +0.000 N 
ATOM     24  C   UNL     1      -0.901  11.185  22.335  0.00  0.00    +0.000 C 
ENDBRANCH  17  20
ENDBRANCH   1  17
TORSDOF 3
ENDMDL
MODEL 2
REMARK VINA RESULT:      -7.5      3.833      8.130
REMARK  Name = 
REMARK  5 active torsions:
REMARK  status: ('A' for Active; 'I' for Inactive)
REMARK    1  A    between atoms: C_1  and  C_2
REMARK    2  A    between atoms: C_3  and  C_4
REMARK    3  A    between atoms: C_4  and  N_5
REMARK    4  A    between atoms: C_9  and  N_10
REMARK    5  A    between atoms: N_23  and  C_24
REMARK                            x       y       z     vdW  Elec       q    Type
REMARK                         _______ _______ _______ _____ _____    ______ ____
ROOT
ATOM      1  N   UNL     1       2.223   7.314  19.766  0.00  0.00    +0.000 NA
ATOM      2  C   UNL     1       2.409   7.157  18.320  0.00  0.00    +0.000 C 
ATOM      3  C   UNL     1       2.719   8.482  17.627  0.00  0.00    +0.000 C 
ATOM      4  C   UNL     1       1.622   9.496  17.900  0.00  0.00    +0.000 C 
ATOM      5  C   UNL     1       1.405   9.707  19.406  0.00  0.00    +0.000 C 
ATOM      6  C   UNL     1       1.243   8.349  20.136  0.00  0.00    +0.000 C 
ENDROOT
BRANCH   5   7
ATOM      7  N   UNL     1       0.281  10.613  19.666  0.00  0.00    +0.000 N 
ATOM      8  C   UNL     1       0.197  11.589  20.654  0.00  0.00    +0.000 A 
ATOM      9  O   UNL     1       1.045  11.884  21.477  0.00  0.00    +0.000 OA
ATOM     10  O   UNL     1      -1.047  12.235  20.622  0.00  0.00    +0.000 OA
ATOM     11  C   UNL     1      -1.669  11.638  19.541  0.00  0.00    +0.000 A 
ATOM     12  C   UNL     1      -2.943  11.941  19.106  0.00  0.00    +0.000 A 
ATOM     13  C   UNL     1      -3.419  11.256  17.989  0.00  0.00    +0.000 A 
ATOM     14  C   UNL     1      -2.609  10.306  17.334  0.00  0.00    +0.000 A 
ATOM     15  C   UNL     1      -1.319  10.012  17.802  0.00  0.00    +0.000 A 
ATOM     16  C   UNL     1      -0.885  10.685  18.924  0.00  0.00    +0.000 A 
ENDBRANCH   5   7
BRANCH   1  17
ATOM     17  C   UNL     1       1.984   6.021  20.444  0.00  0.00    +0.000 C 
BRANCH  17  20
ATOM     18  C   UNL     1       0.934   3.020  19.476  0.00  0.00    +0.000 C 
ATOM     19  C   UNL     1       2.296   3.609  19.486  0.00  0.00    +0.000 A 
ATOM     20  C   UNL     1       2.752   4.861  19.877  0.00  0.00    +0.000 A 
ATOM     21  C   UNL     1       4.154   4.784  19.682  0.00  0.00    +0.000 A 
ATOM     22  N   UNL     1       4.548   3.611  19.186  0.00  0.00    +0.000 NA
ATOM     23  N   UNL     1       3.405   2.918  19.055  0.00  0.00    +0.000 N 
ATOM     24  C   UNL     1       3.450   1.573  18.531  0.00  0.00    +0.000 C 
ENDBRANCH  17  20
ENDBRANCH   1  17
TORSDOF 3
ENDMDL
MODEL 3
REMARK VINA RESULT:      -7.3      2.802      6.839
REMARK  Name = 
REMARK  5 active torsions:
REMARK  status: ('A' for Active; 'I' for Inactive)
REMARK    1  A    between atoms: C_1  and  C_2
REMARK    2  A    between atoms: C_3  and  C_4
REMARK    3  A    between atoms: C_4  and  N_5
REMARK    4  A    between atoms: C_9  and  N_10
REMARK    5  A    between atoms: N_23  and  C_24
REMARK                            x       y       z     vdW  Elec       q    Type
REMARK                         _______ _______ _______ _____ _____    ______ ____
ROOT
ATOM      1  N   UNL     1       4.715   4.393  17.323  0.00  0.00    +0.000 NA
ATOM      2  C   UNL     1       4.101   3.081  17.540  0.00  0.00    +0.000 C 
ATOM      3  C   UNL     1       2.580   3.123  17.417  0.00  0.00    +0.000 C 
ATOM      4  C   UNL     1       1.994   4.134  18.387  0.00  0.00    +0.000 C 
ATOM      5  C   UNL     1       2.596   5.533  18.182  0.00  0.00    +0.000 C 
ATOM      6  C   UNL     1       4.145   5.468  18.153  0.00  0.00    +0.000 C 
ENDROOT
BRANCH   5   7
ATOM      7  N   UNL     1       2.100   6.484  19.182  0.00  0.00    +0.000 N 
ATOM      8  C   UNL     1       1.828   6.230  20.523  0.00  0.00    +0.000 A 
ATOM      9  O   UNL     1       1.965   5.177  21.120  0.00  0.00    +0.000 OA
ATOM     10  O   UNL     1       1.332   7.374  21.164  0.00  0.00    +0.000 OA
ATOM     11  C   UNL     1       1.376   8.324  20.161  0.00  0.00    +0.000 A 
ATOM     12  C   UNL     1       0.974   9.636  20.307  0.00  0.00    +0.000 A 
ATOM     13  C   UNL     1       1.097  10.472  19.197  0.00  0.00    +0.000 A 
ATOM     14  C   UNL     1       1.629   9.982  17.988  0.00  0.00    +0.000 A 
ATOM     15  C   UNL     1       2.024   8.640  17.865  0.00  0.00    +0.000 A 
ATOM     16  C   UNL     1       1.865   7.830  18.968  0.00  0.00    +0.000 A 
ENDBRANCH   5   7
BRANCH   1  17
ATOM     17  C   UNL     1       6.193   4.339  17.382  0.00  0.00    +0.000 C 
BRANCH  17  20
ATOM     18  C   UNL     1       7.937   5.685  19.869  0.00  0.00    +0.000 C 
ATOM     19  C   UNL     1       7.585   6.227  18.534  0.00  0.00    +0.000 A 
ATOM     20  C   UNL     1       6.867   5.678  17.480  0.00  0.00    +0.000 A 
ATOM     21  C   UNL     1       6.851   6.712  16.510  0.00  0.00    +0.000 A 
ATOM     22  N   UNL     1       7.518   7.799  16.895  0.00  0.00    +0.000 NA
ATOM     23  N   UNL     1       7.973   7.480  18.117  0.00  0.00    +0.000 N 
ATOM     24  C   UNL     1       8.760   8.442  18.851  0.00  0.00    +0.000 C 
ENDBRANCH  17  20
ENDBRANCH   1  17
TORSDOF 3
ENDMDL
MODEL 4
REMARK VINA RESULT:      -7.2      1.599      2.213
REMARK  Name = 
REMARK  5 active torsions:
REMARK  status: ('A' for Active; 'I' for Inactive)
REMARK    1  A    between atoms: C_1  and  C_2
REMARK    2  A    between atoms: C_3  and  C_4
REMARK    3  A    between atoms: C_4  and  N_5
REMARK    4  A    between atoms: C_9  and  N_10
REMARK    5  A    between atoms: N_23  and  C_24
REMARK                            x       y       z     vdW  Elec       q    Type
REMARK                         _______ _______ _______ _____ _____    ______ ____
ROOT
ATOM      1  N   UNL     1       2.610   4.934  20.424  0.00  0.00    +0.000 NA
ATOM      2  C   UNL     1       1.932   3.764  19.859  0.00  0.00    +0.000 C 
ATOM      3  C   UNL     1       2.876   2.579  19.676  0.00  0.00    +0.000 C 
ATOM      4  C   UNL     1       4.055   2.965  18.801  0.00  0.00    +0.000 C 
ATOM      5  C   UNL     1       4.808   4.179  19.366  0.00  0.00    +0.000 C 
ATOM      6  C   UNL     1       3.828   5.332  19.697  0.00  0.00    +0.000 C 
ENDROOT
BRANCH   5   7
ATOM      7  N   UNL     1       5.886   4.609  18.468  0.00  0.00    +0.000 N 
ATOM      8  C   UNL     1       7.114   5.156  18.827  0.00  0.00    +0.000 A 
ATOM      9  O   UNL     1       7.529   5.367  19.953  0.00  0.00    +0.000 OA
ATOM     10  O   UNL     1       7.874   5.480  17.695  0.00  0.00    +0.000 OA
ATOM     11  C   UNL     1       7.068   5.050  16.658  0.00  0.00    +0.000 A 
ATOM     12  C   UNL     1       7.388   5.161  15.320  0.00  0.00    +0.000 A 
ATOM     13  C   UNL     1       6.469   4.664  14.397  0.00  0.00    +0.000 A 
ATOM     14  C   UNL     1       5.273   4.059  14.834  0.00  0.00    +0.000 A 
ATOM     15  C   UNL     1       4.969   3.965  16.201  0.00  0.00    +0.000 A 
ATOM     16  C   UNL     1       5.883   4.490  17.089  0.00  0.00    +0.000 A 
ENDBRANCH   5   7
BRANCH   1  17
ATOM     17  C   UNL     1       1.681   6.062  20.658  0.00  0.00    +0.000 C 
BRANCH  17  20
ATOM     18  C   UNL     1       0.912   9.275  21.021  0.00  0.00    +0.000 C 
ATOM     19  C   UNL     1       1.495   8.546  19.867  0.00  0.00    +0.000 A 
ATOM     20  C   UNL     1       1.832   7.210  19.701  0.00  0.00    +0.000 A 
ATOM     21  C   UNL     1       2.303   7.147  18.365  0.00  0.00    +0.000 A 
ATOM     22  N   UNL     1       2.296   8.330  17.752  0.00  0.00    +0.000 NA
ATOM     23  N   UNL     1       1.822   9.171  18.686  0.00  0.00    +0.000 N 
ATOM     24  C   UNL     1       1.678  10.572  18.367  0.00  0.00    +0.000 C 
ENDBRANCH  17  20
ENDBRANCH   1  17
TORSDOF 3
ENDMDL
MODEL 5
REMARK VINA RESULT:      -7.2      2.956      4.741
REMARK  Name = 
REMARK  5 active torsions:
REMARK  status: ('A' for Active; 'I' for Inactive)
REMARK    1  A    between atoms: C_1  and  C_2
REMARK    2  A    between atoms: C_3  and  C_4
REMARK    3  A    between atoms: C_4  and  N_5
REMARK    4  A    between atoms: C_9  and  N_10
REMARK    5  A    between atoms: N_23  and  C_24
REMARK                            x       y       z     vdW  Elec       q    Type
REMARK                         _______ _______ _______ _____ _____    ______ ____
ROOT
ATOM      1  N   UNL     1       1.057  10.015  19.599  0.00  0.00    +0.000 NA
ATOM      2  C   UNL     1       0.135   9.698  20.693  0.00  0.00    +0.000 C 
ATOM      3  C   UNL     1       0.732   8.704  21.687  0.00  0.00    +0.000 C 
ATOM      4  C   UNL     1       1.151   7.427  20.979  0.00  0.00    +0.000 C 
ATOM      5  C   UNL     1       2.135   7.710  19.833  0.00  0.00    +0.000 C 
ATOM      6  C   UNL     1       1.598   8.831  18.908  0.00  0.00    +0.000 C 
ENDROOT
BRANCH   5   7
ATOM      7  N   UNL     1       2.461   6.488  19.091  0.00  0.00    +0.000 N 
ATOM      8  C   UNL     1       3.285   6.375  17.974  0.00  0.00    +0.000 A 
ATOM      9  O   UNL     1       3.899   7.266  17.415  0.00  0.00    +0.000 OA
ATOM     10  O   UNL     1       3.331   5.052  17.512  0.00  0.00    +0.000 OA
ATOM     11  C   UNL     1       2.548   4.384  18.434  0.00  0.00    +0.000 A 
ATOM     12  C   UNL     1       2.280   3.030  18.398  0.00  0.00    +0.000 A 
ATOM     13  C   UNL     1       1.481   2.507  19.414  0.00  0.00    +0.000 A 
ATOM     14  C   UNL     1       0.988   3.341  20.437  0.00  0.00    +0.000 A 
ATOM     15  C   UNL     1       1.270   4.717  20.445  0.00  0.00    +0.000 A 
ATOM     16  C   UNL     1       2.039   5.211  19.414  0.00  0.00    +0.000 A 
ENDBRANCH   5   7
BRANCH   1  17
ATOM     17  C   UNL     1       0.502  11.024  18.671  0.00  0.00    +0.000 C 
BRANCH  17  20
ATOM     18  C   UNL     1      -2.233  12.550  19.782  0.00  0.00    +0.000 C 
ATOM     19  C   UNL     1      -2.073  11.458  18.790  0.00  0.00    +0.000 A 
ATOM     20  C   UNL     1      -0.941  10.816  18.306  0.00  0.00    +0.000 A 
ATOM     21  C   UNL     1      -1.461   9.843  17.415  0.00  0.00    +0.000 A 
ATOM     22  N   UNL     1      -2.789   9.883  17.317  0.00  0.00    +0.000 NA
ATOM     23  N   UNL     1      -3.142  10.883  18.142  0.00  0.00    +0.000 N 
ATOM     24  C   UNL     1      -4.538  11.219  18.287  0.00  0.00    +0.000 C 
ENDBRANCH  17  20
ENDBRANCH   1  17
TORSDOF 3
ENDMDL
MODEL 6
REMARK VINA RESULT:      -7.2      3.693      8.007
REMARK  Name = 
REMARK  5 active torsions:
REMARK  status: ('A' for Active; 'I' for Inactive)
REMARK    1  A    between atoms: C_1  and  C_2
REMARK    2  A    between atoms: C_3  and  C_4
REMARK    3  A    between atoms: C_4  and  N_5
REMARK    4  A    between atoms: C_9  and  N_10
REMARK    5  A    between atoms: N_23  and  C_24
REMARK                            x       y       z     vdW  Elec       q    Type
REMARK                         _______ _______ _______ _____ _____    ______ ____
ROOT
ATOM      1  N   UNL     1       2.275   7.054  19.853  0.00  0.00    +0.000 NA
ATOM      2  C   UNL     1       2.385   6.776  18.418  0.00  0.00    +0.000 C 
ATOM      3  C   UNL     1       2.723   8.026  17.609  0.00  0.00    +0.000 C 
ATOM      4  C   UNL     1       1.690   9.112  17.846  0.00  0.00    +0.000 C 
ATOM      5  C   UNL     1       1.553   9.450  19.338  0.00  0.00    +0.000 C 
ATOM      6  C   UNL     1       1.363   8.164  20.181  0.00  0.00    +0.000 C 
ENDROOT
BRANCH   5   7
ATOM      7  N   UNL     1       0.486  10.429  19.573  0.00  0.00    +0.000 N 
ATOM      8  C   UNL     1       0.469  11.445  20.523  0.00  0.00    +0.000 A 
ATOM      9  O   UNL     1       1.342  11.721  21.327  0.00  0.00    +0.000 OA
ATOM     10  O   UNL     1      -0.735  12.161  20.478  0.00  0.00    +0.000 OA
ATOM     11  C   UNL     1      -1.402  11.561  19.426  0.00  0.00    +0.000 A 
ATOM     12  C   UNL     1      -2.661  11.921  18.990  0.00  0.00    +0.000 A 
ATOM     13  C   UNL     1      -3.188  11.222  17.904  0.00  0.00    +0.000 A 
ATOM     14  C   UNL     1      -2.442  10.204  17.279  0.00  0.00    +0.000 A 
ATOM     15  C   UNL     1      -1.165   9.853  17.747  0.00  0.00    +0.000 A 
ATOM     16  C   UNL     1      -0.681  10.541  18.839  0.00  0.00    +0.000 A 
ENDBRANCH   5   7
BRANCH   1  17
ATOM     17  C   UNL     1       2.008   5.832  20.643  0.00  0.00    +0.000 C 
BRANCH  17  20
ATOM     18  C   UNL     1       4.661   4.243  19.426  0.00  0.00    +0.000 C 
ATOM     19  C   UNL     1       3.217   3.905  19.357  0.00  0.00    +0.000 A 
ATOM     20  C   UNL     1       2.098   4.550  19.866  0.00  0.00    +0.000 A 
ATOM     21  C   UNL     1       1.017   3.746  19.423  0.00  0.00    +0.000 A 
ATOM     22  N   UNL     1       1.411   2.679  18.728  0.00  0.00    +0.000 NA
ATOM     23  N   UNL     1       2.750   2.781  18.715  0.00  0.00    +0.000 N 
ATOM     24  C   UNL     1       3.529   1.771  18.038  0.00  0.00    +0.000 C 
ENDBRANCH  17  20
ENDBRANCH   1  17
TORSDOF 3
ENDMDL
MODEL 7
REMARK VINA RESULT:      -7.1      2.420      3.208
REMARK  Name = 
REMARK  5 active torsions:
REMARK  status: ('A' for Active; 'I' for Inactive)
REMARK    1  A    between atoms: C_1  and  C_2
REMARK    2  A    between atoms: C_3  and  C_4
REMARK    3  A    between atoms: C_4  and  N_5
REMARK    4  A    between atoms: C_9  and  N_10
REMARK    5  A    between atoms: N_23  and  C_24
REMARK                            x       y       z     vdW  Elec       q    Type
REMARK                         _______ _______ _______ _____ _____    ______ ____
ROOT
ATOM      1  N   UNL     1       1.721   8.999  18.873  0.00  0.00    +0.000 NA
ATOM      2  C   UNL     1       0.908   8.505  19.988  0.00  0.00    +0.000 C 
ATOM      3  C   UNL     1       1.671   7.521  20.871  0.00  0.00    +0.000 C 
ATOM      4  C   UNL     1       2.185   6.352  20.049  0.00  0.00    +0.000 C 
ATOM      5  C   UNL     1       3.059   6.823  18.877  0.00  0.00    +0.000 C 
ATOM      6  C   UNL     1       2.346   7.936  18.068  0.00  0.00    +0.000 C 
ENDROOT
BRANCH   5   7
ATOM      7  N   UNL     1       3.473   5.700  18.029  0.00  0.00    +0.000 N 
ATOM      8  C   UNL     1       2.702   4.607  17.644  0.00  0.00    +0.000 A 
ATOM      9  O   UNL     1       1.538   4.387  17.924  0.00  0.00    +0.000 OA
ATOM     10  O   UNL     1       3.447   3.714  16.861  0.00  0.00    +0.000 OA
ATOM     11  C   UNL     1       4.669   4.352  16.757  0.00  0.00    +0.000 A 
ATOM     12  C   UNL     1       5.758   3.850  16.072  0.00  0.00    +0.000 A 
ATOM     13  C   UNL     1       6.916   4.627  16.051  0.00  0.00    +0.000 A 
ATOM     14  C   UNL     1       6.948   5.880  16.695  0.00  0.00    +0.000 A 
ATOM     15  C   UNL     1       5.827   6.364  17.390  0.00  0.00    +0.000 A 
ATOM     16  C   UNL     1       4.706   5.563  17.418  0.00  0.00    +0.000 A 
ENDBRANCH   5   7
BRANCH   1  17
ATOM     17  C   UNL     1       1.001   9.999  18.053  0.00  0.00    +0.000 C 
BRANCH  17  20
ATOM     18  C   UNL     1      -2.312  10.236  17.975  0.00  0.00    +0.000 C 
ATOM     19  C   UNL     1      -1.309  10.987  18.771  0.00  0.00    +0.000 A 
ATOM     20  C   UNL     1       0.075  10.895  18.825  0.00  0.00    +0.000 A 
ATOM     21  C   UNL     1       0.443  11.909  19.745  0.00  0.00    +0.000 A 
ATOM     22  N   UNL     1      -0.604  12.560  20.251  0.00  0.00    +0.000 NA
ATOM     23  N   UNL     1      -1.660  11.973  19.664  0.00  0.00    +0.000 N 
ATOM     24  C   UNL     1      -2.991  12.431  19.985  0.00  0.00    +0.000 C 
ENDBRANCH  17  20
ENDBRANCH   1  17
TORSDOF 3
ENDMDL
MODEL 8
REMARK VINA RESULT:      -7.1      2.526      7.693
REMARK  Name = 
REMARK  5 active torsions:
REMARK  status: ('A' for Active; 'I' for Inactive)
REMARK    1  A    between atoms: C_1  and  C_2
REMARK    2  A    between atoms: C_3  and  C_4
REMARK    3  A    between atoms: C_4  and  N_5
REMARK    4  A    between atoms: C_9  and  N_10
REMARK    5  A    between atoms: N_23  and  C_24
REMARK                            x       y       z     vdW  Elec       q    Type
REMARK                         _______ _______ _______ _____ _____    ______ ____
ROOT
ATOM      1  N   UNL     1       4.046   5.114  19.335  0.00  0.00    +0.000 NA
ATOM      2  C   UNL     1       3.434   4.408  20.463  0.00  0.00    +0.000 C 
ATOM      3  C   UNL     1       1.910   4.501  20.448  0.00  0.00    +0.000 C 
ATOM      4  C   UNL     1       1.463   5.952  20.444  0.00  0.00    +0.000 C 
ATOM      5  C   UNL     1       2.068   6.729  19.265  0.00  0.00    +0.000 C 
ATOM      6  C   UNL     1       3.601   6.511  19.187  0.00  0.00    +0.000 C 
ENDROOT
BRANCH   5   7
ATOM      7  N   UNL     1       1.713   8.151  19.319  0.00  0.00    +0.000 N 
ATOM      8  C   UNL     1       1.886   9.102  18.317  0.00  0.00    +0.000 A 
ATOM      9  O   UNL     1       2.350   8.927  17.205  0.00  0.00    +0.000 OA
ATOM     10  O   UNL     1       1.463  10.368  18.743  0.00  0.00    +0.000 OA
ATOM     11  C   UNL     1       0.983  10.114  20.014  0.00  0.00    +0.000 A 
ATOM     12  C   UNL     1       0.454  11.070  20.858  0.00  0.00    +0.000 A 
ATOM     13  C   UNL     1       0.001  10.645  22.106  0.00  0.00    +0.000 A 
ATOM     14  C   UNL     1       0.072   9.285  22.467  0.00  0.00    +0.000 A 
ATOM     15  C   UNL     1       0.621   8.333  21.592  0.00  0.00    +0.000 A 
ATOM     16  C   UNL     1       1.087   8.786  20.377  0.00  0.00    +0.000 A 
ENDBRANCH   5   7
BRANCH   1  17
ATOM     17  C   UNL     1       5.519   4.972  19.317  0.00  0.00    +0.000 C 
BRANCH  17  20
ATOM     18  C   UNL     1       4.103   3.924  16.500  0.00  0.00    +0.000 C 
ATOM     19  C   UNL     1       5.506   4.311  16.788  0.00  0.00    +0.000 A 
ATOM     20  C   UNL     1       6.113   4.760  17.954  0.00  0.00    +0.000 A 
ATOM     21  C   UNL     1       7.473   4.916  17.585  0.00  0.00    +0.000 A 
ATOM     22  N   UNL     1       7.704   4.626  16.305  0.00  0.00    +0.000 NA
ATOM     23  N   UNL     1       6.495   4.280  15.832  0.00  0.00    +0.000 N 
ATOM     24  C   UNL     1       6.361   3.899  14.446  0.00  0.00    +0.000 C 
ENDBRANCH  17  20
ENDBRANCH   1  17
TORSDOF 3
ENDMDL
MODEL 9
REMARK VINA RESULT:      -7.0      2.843      4.493
REMARK  Name = 
REMARK  5 active torsions:
REMARK  status: ('A' for Active; 'I' for Inactive)
REMARK    1  A    between atoms: C_1  and  C_2
REMARK    2  A    between atoms: C_3  and  C_4
REMARK    3  A    between atoms: C_4  and  N_5
REMARK    4  A    between atoms: C_9  and  N_10
REMARK    5  A    between atoms: N_23  and  C_24
REMARK                            x       y       z     vdW  Elec       q    Type
REMARK                         _______ _______ _______ _____ _____    ______ ____
ROOT
ATOM      1  N   UNL     1       1.283   9.832  19.505  0.00  0.00    +0.000 NA
ATOM      2  C   UNL     1       0.317   9.522  20.563  0.00  0.00    +0.000 C 
ATOM      3  C   UNL     1       0.847   8.480  21.546  0.00  0.00    +0.000 C 
ATOM      4  C   UNL     1       1.239   7.208  20.816  0.00  0.00    +0.000 C 
ATOM      5  C   UNL     1       2.266   7.483  19.707  0.00  0.00    +0.000 C 
ATOM      6  C   UNL     1       1.799   8.647  18.797  0.00  0.00    +0.000 C 
ENDROOT
BRANCH   5   7
ATOM      7  N   UNL     1       2.568   6.268  18.941  0.00  0.00    +0.000 N 
ATOM      8  C   UNL     1       3.445   6.147  17.867  0.00  0.00    +0.000 A 
ATOM      9  O   UNL     1       4.135   7.020  17.372  0.00  0.00    +0.000 OA
ATOM     10  O   UNL     1       3.448   4.839  17.362  0.00  0.00    +0.000 OA
ATOM     11  C   UNL     1       2.581   4.185  18.217  0.00  0.00    +0.000 A 
ATOM     12  C   UNL     1       2.245   2.849  18.121  0.00  0.00    +0.000 A 
ATOM     13  C   UNL     1       1.365   2.338  19.074  0.00  0.00    +0.000 A 
ATOM     14  C   UNL     1       0.861   3.165  20.097  0.00  0.00    +0.000 A 
ATOM     15  C   UNL     1       1.213   4.522  20.168  0.00  0.00    +0.000 A 
ATOM     16  C   UNL     1       2.063   5.007  19.197  0.00  0.00    +0.000 A 
ENDBRANCH   5   7
BRANCH   1  17
ATOM     17  C   UNL     1       0.793  10.885  18.589  0.00  0.00    +0.000 C 
BRANCH  17  20
ATOM     18  C   UNL     1      -1.951   9.884  17.005  0.00  0.00    +0.000 C 
ATOM     19  C   UNL     1      -1.777  10.856  18.114  0.00  0.00    +0.000 A 
ATOM     20  C   UNL     1      -0.642  11.279  18.793  0.00  0.00    +0.000 A 
ATOM     21  C   UNL     1      -1.138  12.243  19.706  0.00  0.00    +0.000 A 
ATOM     22  N   UNL     1      -2.460  12.396  19.637  0.00  0.00    +0.000 NA
ATOM     23  N   UNL     1      -2.833  11.531  18.679  0.00  0.00    +0.000 N 
ATOM     24  C   UNL     1      -4.230  11.422  18.331  0.00  0.00    +0.000 C 
ENDBRANCH  17  20
ENDBRANCH   1  17
TORSDOF 3
ENDMDL
