MODEL 1
REMARK VINA RESULT:      -8.7      0.000      0.000
REMARK  Name = 
REMARK  7 active torsions:
REMARK  status: ('A' for Active; 'I' for Inactive)
REMARK    1  A    between atoms: C_1  and  C_2
REMARK    2  A    between atoms: C_2  and  C_3
REMARK    3  A    between atoms: C_2  and  C_4
REMARK    4  A    between atoms: C_2  and  O_5
REMARK    5  A    between atoms: O_5  and  C_6
REMARK    6  A    between atoms: C_11  and  N_12
REMARK    7  A    between atoms: C_13  and  C_15
REMARK                            x       y       z     vdW  Elec       q    Type
REMARK                         _______ _______ _______ _____ _____    ______ ____
ROOT
ATOM      1  N   UNL     1       7.258   7.015  17.116  0.00  0.00    +0.000 N 
ATOM      2  C   UNL     1       8.025   7.293  18.229  0.00  0.00    +0.000 C 
ATOM      3  O   UNL     1       8.380   6.436  19.028  0.00  0.00    +0.000 OA
ATOM      4  H   UNL     1       7.143   7.752  16.438  0.00  0.00    +0.000 HD
ENDROOT
BRANCH   2   5
ATOM      5  C   UNL     1       8.390   8.688  18.367  0.00  0.00    +0.000 A 
ATOM      6  C   UNL     1       8.130   9.789  17.568  0.00  0.00    +0.000 A 
ATOM      7  C   UNL     1       8.746  10.929  18.146  0.00  0.00    +0.000 A 
ATOM      8  C   UNL     1       8.832  12.282  17.767  0.00  0.00    +0.000 A 
ATOM      9  C   UNL     1       9.546  13.171  18.576  0.00  0.00    +0.000 A 
ATOM     10  C   UNL     1      10.157  12.730  19.746  0.00  0.00    +0.000 A 
ATOM     11  C   UNL     1      10.075  11.390  20.147  0.00  0.00    +0.000 A 
ATOM     12  C   UNL     1       9.364  10.509  19.320  0.00  0.00    +0.000 A 
ATOM     13  N   UNL     1       9.124   9.158  19.439  0.00  0.00    +0.000 N 
ATOM     14  H   UNL     1       9.444   8.572  20.200  0.00  0.00    +0.000 HD
ENDBRANCH   2   5
BRANCH   1  20
ATOM     15  C   UNL     1       3.102   4.451  18.246  0.00  0.00    +0.000 C 
ATOM     16  O   UNL     1       2.129   4.556  17.508  0.00  0.00    +0.000 OA
ATOM     17  N   UNL     1       4.309   5.068  17.958  0.00  0.00    +0.000 N 
ATOM     18  C   UNL     1       4.365   5.976  16.818  0.00  0.00    +0.000 C 
ATOM     19  C   UNL     1       5.562   5.667  15.930  0.00  0.00    +0.000 C 
ATOM     20  C   UNL     1       6.868   5.665  16.730  0.00  0.00    +0.000 C 
ATOM     21  C   UNL     1       6.752   4.750  17.961  0.00  0.00    +0.000 C 
ATOM     22  C   UNL     1       5.497   5.015  18.799  0.00  0.00    +0.000 C 
BRANCH  15  23
ATOM     23  O   UNL     1       3.101   3.731  19.407  0.00  0.00    +0.000 OA
BRANCH  23  25
ATOM     24  C   UNL     1       0.725   3.203  19.811  0.00  0.00    +0.000 C 
ATOM     25  C   UNL     1       1.985   3.912  20.329  0.00  0.00    +0.000 C 
ATOM     26  C   UNL     1       1.745   5.401  20.626  0.00  0.00    +0.000 C 
ATOM     27  C   UNL     1       2.380   3.235  21.654  0.00  0.00    +0.000 C 
ENDBRANCH  23  25
ENDBRANCH  15  23
ENDBRANCH   1  20
TORSDOF 4
ENDMDL
MODEL 2
REMARK VINA RESULT:      -8.7      0.764      1.026
REMARK  Name = 
REMARK  7 active torsions:
REMARK  status: ('A' for Active; 'I' for Inactive)
REMARK    1  A    between atoms: C_1  and  C_2
REMARK    2  A    between atoms: C_2  and  C_3
REMARK    3  A    between atoms: C_2  and  C_4
REMARK    4  A    between atoms: C_2  and  O_5
REMARK    5  A    between atoms: O_5  and  C_6
REMARK    6  A    between atoms: C_11  and  N_12
REMARK    7  A    between atoms: C_13  and  C_15
REMARK                            x       y       z     vdW  Elec       q    Type
REMARK                         _______ _______ _______ _____ _____    ______ ____
ROOT
ATOM      1  N   UNL     1       7.088   7.399  17.306  0.00  0.00    +0.000 N 
ATOM      2  C   UNL     1       8.038   7.612  18.283  0.00  0.00    +0.000 C 
ATOM      3  O   UNL     1       8.481   6.718  18.994  0.00  0.00    +0.000 OA
ATOM      4  H   UNL     1       6.897   8.160  16.673  0.00  0.00    +0.000 HD
ENDROOT
BRANCH   2   5
ATOM      5  C   UNL     1       8.483   8.987  18.392  0.00  0.00    +0.000 A 
ATOM      6  C   UNL     1       8.291  10.082  17.566  0.00  0.00    +0.000 A 
ATOM      7  C   UNL     1       8.970  11.197  18.121  0.00  0.00    +0.000 A 
ATOM      8  C   UNL     1       9.137  12.533  17.712  0.00  0.00    +0.000 A 
ATOM      9  C   UNL     1       9.897  13.399  18.504  0.00  0.00    +0.000 A 
ATOM     10  C   UNL     1      10.476  12.950  19.689  0.00  0.00    +0.000 A 
ATOM     11  C   UNL     1      10.314  11.627  20.119  0.00  0.00    +0.000 A 
ATOM     12  C   UNL     1       9.557  10.770  19.308  0.00  0.00    +0.000 A 
ATOM     13  N   UNL     1       9.238   9.438  19.457  0.00  0.00    +0.000 N 
ATOM     14  H   UNL     1       9.520   8.852  20.233  0.00  0.00    +0.000 HD
ENDBRANCH   2   5
BRANCH   1  20
ATOM     15  C   UNL     1       2.759   5.214  18.571  0.00  0.00    +0.000 C 
ATOM     16  O   UNL     1       1.782   5.383  17.849  0.00  0.00    +0.000 OA
ATOM     17  N   UNL     1       4.006   5.722  18.247  0.00  0.00    +0.000 N 
ATOM     18  C   UNL     1       4.114   6.597  17.085  0.00  0.00    +0.000 C 
ATOM     19  C   UNL     1       5.263   6.171  16.183  0.00  0.00    +0.000 C 
ATOM     20  C   UNL     1       6.580   6.078  16.959  0.00  0.00    +0.000 C 
ATOM     21  C   UNL     1       6.414   5.203  18.212  0.00  0.00    +0.000 C 
ATOM     22  C   UNL     1       5.202   5.589  19.066  0.00  0.00    +0.000 C 
BRANCH  15  23
ATOM     23  O   UNL     1       2.721   4.522  19.748  0.00  0.00    +0.000 OA
BRANCH  23  25
ATOM     24  C   UNL     1       3.336   2.366  18.720  0.00  0.00    +0.000 C 
ATOM     25  C   UNL     1       2.409   3.098  19.702  0.00  0.00    +0.000 C 
ATOM     26  C   UNL     1       0.921   2.865  19.395  0.00  0.00    +0.000 C 
ATOM     27  C   UNL     1       2.685   2.529  21.105  0.00  0.00    +0.000 C 
ENDBRANCH  23  25
ENDBRANCH  15  23
ENDBRANCH   1  20
TORSDOF 4
ENDMDL
MODEL 3
REMARK VINA RESULT:      -8.3      4.279      7.119
REMARK  Name = 
REMARK  7 active torsions:
REMARK  status: ('A' for Active; 'I' for Inactive)
REMARK    1  A    between atoms: C_1  and  C_2
REMARK    2  A    between atoms: C_2  and  C_3
REMARK    3  A    between atoms: C_2  and  C_4
REMARK    4  A    between atoms: C_2  and  O_5
REMARK    5  A    between atoms: O_5  and  C_6
REMARK    6  A    between atoms: C_11  and  N_12
REMARK    7  A    between atoms: C_13  and  C_15
REMARK                            x       y       z     vdW  Elec       q    Type
REMARK                         _______ _______ _______ _____ _____    ______ ____
ROOT
ATOM      1  N   UNL     1       4.406   5.994  18.636  0.00  0.00    +0.000 N 
ATOM      2  C   UNL     1       3.364   5.906  19.536  0.00  0.00    +0.000 C 
ATOM      3  O   UNL     1       3.176   4.928  20.249  0.00  0.00    +0.000 OA
ATOM      4  H   UNL     1       4.571   6.891  18.206  0.00  0.00    +0.000 HD
ENDROOT
BRANCH   2   5
ATOM      5  C   UNL     1       2.513   7.078  19.579  0.00  0.00    +0.000 A 
ATOM      6  C   UNL     1       2.188   8.012  18.611  0.00  0.00    +0.000 A 
ATOM      7  C   UNL     1       1.332   8.987  19.185  0.00  0.00    +0.000 A 
ATOM      8  C   UNL     1       0.719  10.154  18.690  0.00  0.00    +0.000 A 
ATOM      9  C   UNL     1      -0.078  10.921  19.545  0.00  0.00    +0.000 A 
ATOM     10  C   UNL     1      -0.273  10.533  20.868  0.00  0.00    +0.000 A 
ATOM     11  C   UNL     1       0.319   9.370  21.378  0.00  0.00    +0.000 A 
ATOM     12  C   UNL     1       1.123   8.618  20.511  0.00  0.00    +0.000 A 
ATOM     13  N   UNL     1       1.834   7.458  20.721  0.00  0.00    +0.000 N 
ATOM     14  H   UNL     1       1.872   6.945  21.593  0.00  0.00    +0.000 HD
ENDBRANCH   2   5
BRANCH   1  20
ATOM     15  C   UNL     1       6.841   4.430  14.545  0.00  0.00    +0.000 C 
ATOM     16  O   UNL     1       7.874   5.005  14.220  0.00  0.00    +0.000 OA
ATOM     17  N   UNL     1       6.156   4.756  15.703  0.00  0.00    +0.000 N 
ATOM     18  C   UNL     1       6.609   5.908  16.474  0.00  0.00    +0.000 C 
ATOM     19  C   UNL     1       6.739   5.563  17.950  0.00  0.00    +0.000 C 
ATOM     20  C   UNL     1       5.439   4.974  18.506  0.00  0.00    +0.000 C 
ATOM     21  C   UNL     1       4.953   3.806  17.632  0.00  0.00    +0.000 C 
ATOM     22  C   UNL     1       4.909   4.140  16.138  0.00  0.00    +0.000 C 
BRANCH  15  23
ATOM     23  O   UNL     1       6.268   3.429  13.813  0.00  0.00    +0.000 OA
BRANCH  23  25
ATOM     24  C   UNL     1       7.157   4.705  11.897  0.00  0.00    +0.000 C 
ATOM     25  C   UNL     1       6.232   3.570  12.361  0.00  0.00    +0.000 C 
ATOM     26  C   UNL     1       4.791   3.738  11.855  0.00  0.00    +0.000 C 
ATOM     27  C   UNL     1       6.780   2.259  11.767  0.00  0.00    +0.000 C 
ENDBRANCH  23  25
ENDBRANCH  15  23
ENDBRANCH   1  20
TORSDOF 4
ENDMDL
MODEL 4
REMARK VINA RESULT:      -8.2      1.103      1.355
REMARK  Name = 
REMARK  7 active torsions:
REMARK  status: ('A' for Active; 'I' for Inactive)
REMARK    1  A    between atoms: C_1  and  C_2
REMARK    2  A    between atoms: C_2  and  C_3
REMARK    3  A    between atoms: C_2  and  C_4
REMARK    4  A    between atoms: C_2  and  O_5
REMARK    5  A    between atoms: O_5  and  C_6
REMARK    6  A    between atoms: C_11  and  N_12
REMARK    7  A    between atoms: C_13  and  C_15
REMARK                            x       y       z     vdW  Elec       q    Type
REMARK                         _______ _______ _______ _____ _____    ______ ____
ROOT
ATOM      1  N   UNL     1       7.044   6.551  18.273  0.00  0.00    +0.000 N 
ATOM      2  C   UNL     1       7.774   7.309  17.381  0.00  0.00    +0.000 C 
ATOM      3  O   UNL     1       8.054   6.929  16.250  0.00  0.00    +0.000 OA
ATOM      4  H   UNL     1       6.734   7.004  19.119  0.00  0.00    +0.000 HD
ENDROOT
BRANCH   2   5
ATOM      5  C   UNL     1       8.174   8.606  17.888  0.00  0.00    +0.000 A 
ATOM      6  C   UNL     1       8.023   9.881  17.370  0.00  0.00    +0.000 A 
ATOM      7  C   UNL     1       8.625  10.810  18.258  0.00  0.00    +0.000 A 
ATOM      8  C   UNL     1       8.790  12.207  18.235  0.00  0.00    +0.000 A 
ATOM      9  C   UNL     1       9.461  12.831  19.292  0.00  0.00    +0.000 A 
ATOM     10  C   UNL     1       9.951  12.084  20.360  0.00  0.00    +0.000 A 
ATOM     11  C   UNL     1       9.787  10.693  20.407  0.00  0.00    +0.000 A 
ATOM     12  C   UNL     1       9.122  10.082  19.335  0.00  0.00    +0.000 A 
ATOM     13  N   UNL     1       8.826   8.758  19.097  0.00  0.00    +0.000 N 
ATOM     14  H   UNL     1       9.058   7.987  19.711  0.00  0.00    +0.000 HD
ENDBRANCH   2   5
BRANCH   1  20
ATOM     15  C   UNL     1       2.284   5.025  18.636  0.00  0.00    +0.000 C 
ATOM     16  O   UNL     1       1.533   5.213  17.686  0.00  0.00    +0.000 OA
ATOM     17  N   UNL     1       3.630   5.350  18.581  0.00  0.00    +0.000 N 
ATOM     18  C   UNL     1       4.121   6.062  17.407  0.00  0.00    +0.000 C 
ATOM     19  C   UNL     1       5.378   5.406  16.854  0.00  0.00    +0.000 C 
ATOM     20  C   UNL     1       6.455   5.262  17.933  0.00  0.00    +0.000 C 
ATOM     21  C   UNL     1       5.887   4.568  19.182  0.00  0.00    +0.000 C 
ATOM     22  C   UNL     1       4.575   5.185  19.676  0.00  0.00    +0.000 C 
BRANCH  15  23
ATOM     23  O   UNL     1       1.882   4.488  19.826  0.00  0.00    +0.000 OA
BRANCH  23  25
ATOM     24  C   UNL     1       2.896   2.267  19.476  0.00  0.00    +0.000 C 
ATOM     25  C   UNL     1       1.641   3.051  19.888  0.00  0.00    +0.000 C 
ATOM     26  C   UNL     1       0.403   2.659  19.066  0.00  0.00    +0.000 C 
ATOM     27  C   UNL     1       1.347   2.705  21.359  0.00  0.00    +0.000 C 
ENDBRANCH  23  25
ENDBRANCH  15  23
ENDBRANCH   1  20
TORSDOF 4
ENDMDL
MODEL 5
REMARK VINA RESULT:      -8.1      1.111      1.696
REMARK  Name = 
REMARK  7 active torsions:
REMARK  status: ('A' for Active; 'I' for Inactive)
REMARK    1  A    between atoms: C_1  and  C_2
REMARK    2  A    between atoms: C_2  and  C_3
REMARK    3  A    between atoms: C_2  and  C_4
REMARK    4  A    between atoms: C_2  and  O_5
REMARK    5  A    between atoms: O_5  and  C_6
REMARK    6  A    between atoms: C_11  and  N_12
REMARK    7  A    between atoms: C_13  and  C_15
REMARK                            x       y       z     vdW  Elec       q    Type
REMARK                         _______ _______ _______ _____ _____    ______ ____
ROOT
ATOM      1  N   UNL     1       7.114   7.675  17.218  0.00  0.00    +0.000 N 
ATOM      2  C   UNL     1       8.068   7.834  18.201  0.00  0.00    +0.000 C 
ATOM      3  O   UNL     1       8.533   6.899  18.841  0.00  0.00    +0.000 OA
ATOM      4  H   UNL     1       6.903   8.476  16.643  0.00  0.00    +0.000 HD
ENDROOT
BRANCH   2   5
ATOM      5  C   UNL     1       8.489   9.205  18.406  0.00  0.00    +0.000 A 
ATOM      6  C   UNL     1       9.302   9.783  19.365  0.00  0.00    +0.000 A 
ATOM      7  C   UNL     1       9.368  11.180  19.129  0.00  0.00    +0.000 A 
ATOM      8  C   UNL     1      10.012  12.246  19.785  0.00  0.00    +0.000 A 
ATOM      9  C   UNL     1       9.859  13.544  19.288  0.00  0.00    +0.000 A 
ATOM     10  C   UNL     1       9.087  13.781  18.154  0.00  0.00    +0.000 A 
ATOM     11  C   UNL     1       8.445  12.733  17.481  0.00  0.00    +0.000 A 
ATOM     12  C   UNL     1       8.601  11.440  17.998  0.00  0.00    +0.000 A 
ATOM     13  N   UNL     1       8.093  10.233  17.571  0.00  0.00    +0.000 N 
ATOM     14  H   UNL     1       7.499  10.101  16.762  0.00  0.00    +0.000 HD
ENDBRANCH   2   5
BRANCH   1  20
ATOM     15  C   UNL     1       2.951   5.216  18.540  0.00  0.00    +0.000 C 
ATOM     16  O   UNL     1       1.924   5.413  17.901  0.00  0.00    +0.000 OA
ATOM     17  N   UNL     1       4.157   5.800  18.187  0.00  0.00    +0.000 N 
ATOM     18  C   UNL     1       4.159   6.783  17.110  0.00  0.00    +0.000 C 
ATOM     19  C   UNL     1       5.259   6.487  16.100  0.00  0.00    +0.000 C 
ATOM     20  C   UNL     1       6.627   6.373  16.778  0.00  0.00    +0.000 C 
ATOM     21  C   UNL     1       6.573   5.379  17.951  0.00  0.00    +0.000 C 
ATOM     22  C   UNL     1       5.409   5.637  18.913  0.00  0.00    +0.000 C 
BRANCH  15  23
ATOM     23  O   UNL     1       3.015   4.416  19.646  0.00  0.00    +0.000 OA
BRANCH  23  25
ATOM     24  C   UNL     1       3.174   2.601  17.983  0.00  0.00    +0.000 C 
ATOM     25  C   UNL     1       2.951   2.971  19.457  0.00  0.00    +0.000 C 
ATOM     26  C   UNL     1       1.643   2.394  20.020  0.00  0.00    +0.000 C 
ATOM     27  C   UNL     1       4.110   2.359  20.264  0.00  0.00    +0.000 C 
ENDBRANCH  23  25
ENDBRANCH  15  23
ENDBRANCH   1  20
TORSDOF 4
ENDMDL
MODEL 6
REMARK VINA RESULT:      -8.0      4.264      7.168
REMARK  Name = 
REMARK  7 active torsions:
REMARK  status: ('A' for Active; 'I' for Inactive)
REMARK    1  A    between atoms: C_1  and  C_2
REMARK    2  A    between atoms: C_2  and  C_3
REMARK    3  A    between atoms: C_2  and  C_4
REMARK    4  A    between atoms: C_2  and  O_5
REMARK    5  A    between atoms: O_5  and  C_6
REMARK    6  A    between atoms: C_11  and  N_12
REMARK    7  A    between atoms: C_13  and  C_15
REMARK                            x       y       z     vdW  Elec       q    Type
REMARK                         _______ _______ _______ _____ _____    ______ ____
ROOT
ATOM      1  N   UNL     1       4.381   5.973  18.705  0.00  0.00    +0.000 N 
ATOM      2  C   UNL     1       3.311   5.845  19.567  0.00  0.00    +0.000 C 
ATOM      3  O   UNL     1       3.100   4.835  20.227  0.00  0.00    +0.000 OA
ATOM      4  H   UNL     1       4.560   6.889  18.323  0.00  0.00    +0.000 HD
ENDROOT
BRANCH   2   5
ATOM      5  C   UNL     1       2.461   7.016  19.640  0.00  0.00    +0.000 A 
ATOM      6  C   UNL     1       1.659   7.506  20.655  0.00  0.00    +0.000 A 
ATOM      7  C   UNL     1       1.006   8.680  20.197  0.00  0.00    +0.000 A 
ATOM      8  C   UNL     1       0.079   9.565  20.778  0.00  0.00    +0.000 A 
ATOM      9  C   UNL     1      -0.390  10.649  20.029  0.00  0.00    +0.000 A 
ATOM     10  C   UNL     1       0.061  10.859  18.729  0.00  0.00    +0.000 A 
ATOM     11  C   UNL     1       0.991   9.996  18.135  0.00  0.00    +0.000 A 
ATOM     12  C   UNL     1       1.443   8.908  18.895  0.00  0.00    +0.000 A 
ATOM     13  N   UNL     1       2.329   7.901  18.586  0.00  0.00    +0.000 N 
ATOM     14  H   UNL     1       2.820   7.802  17.706  0.00  0.00    +0.000 HD
ENDBRANCH   2   5
BRANCH   1  20
ATOM     15  C   UNL     1       6.800   4.461  14.585  0.00  0.00    +0.000 C 
ATOM     16  O   UNL     1       7.829   5.042  14.261  0.00  0.00    +0.000 OA
ATOM     17  N   UNL     1       6.119   4.772  15.751  0.00  0.00    +0.000 N 
ATOM     18  C   UNL     1       6.573   5.917  16.531  0.00  0.00    +0.000 C 
ATOM     19  C   UNL     1       6.712   5.557  18.003  0.00  0.00    +0.000 C 
ATOM     20  C   UNL     1       5.417   4.958  18.558  0.00  0.00    +0.000 C 
ATOM     21  C   UNL     1       4.930   3.797  17.675  0.00  0.00    +0.000 C 
ATOM     22  C   UNL     1       4.877   4.148  16.185  0.00  0.00    +0.000 C 
BRANCH  15  23
ATOM     23  O   UNL     1       6.226   3.466  13.845  0.00  0.00    +0.000 OA
BRANCH  23  25
ATOM     24  C   UNL     1       7.137   4.745  11.942  0.00  0.00    +0.000 C 
ATOM     25  C   UNL     1       6.207   3.608  12.394  0.00  0.00    +0.000 C 
ATOM     26  C   UNL     1       4.772   3.776  11.871  0.00  0.00    +0.000 C 
ATOM     27  C   UNL     1       6.763   2.299  11.804  0.00  0.00    +0.000 C 
ENDBRANCH  23  25
ENDBRANCH  15  23
ENDBRANCH   1  20
TORSDOF 4
ENDMDL
MODEL 7
REMARK VINA RESULT:      -7.9      0.750      1.565
REMARK  Name = 
REMARK  7 active torsions:
REMARK  status: ('A' for Active; 'I' for Inactive)
REMARK    1  A    between atoms: C_1  and  C_2
REMARK    2  A    between atoms: C_2  and  C_3
REMARK    3  A    between atoms: C_2  and  C_4
REMARK    4  A    between atoms: C_2  and  O_5
REMARK    5  A    between atoms: O_5  and  C_6
REMARK    6  A    between atoms: C_11  and  N_12
REMARK    7  A    between atoms: C_13  and  C_15
REMARK                            x       y       z     vdW  Elec       q    Type
REMARK                         _______ _______ _______ _____ _____    ______ ____
ROOT
ATOM      1  N   UNL     1       7.191   7.493  17.139  0.00  0.00    +0.000 N 
ATOM      2  C   UNL     1       8.072   7.733  18.172  0.00  0.00    +0.000 C 
ATOM      3  O   UNL     1       8.531   6.847  18.882  0.00  0.00    +0.000 OA
ATOM      4  H   UNL     1       6.986   8.259  16.517  0.00  0.00    +0.000 HD
ENDROOT
BRANCH   2   5
ATOM      5  C   UNL     1       8.425   9.129  18.342  0.00  0.00    +0.000 A 
ATOM      6  C   UNL     1       9.243   9.764  19.259  0.00  0.00    +0.000 A 
ATOM      7  C   UNL     1       9.222  11.159  19.003  0.00  0.00    +0.000 A 
ATOM      8  C   UNL     1       9.832  12.269  19.617  0.00  0.00    +0.000 A 
ATOM      9  C   UNL     1       9.587  13.549  19.111  0.00  0.00    +0.000 A 
ATOM     10  C   UNL     1       8.758  13.726  18.006  0.00  0.00    +0.000 A 
ATOM     11  C   UNL     1       8.148  12.635  17.374  0.00  0.00    +0.000 A 
ATOM     12  C   UNL     1       8.396  11.359  17.900  0.00  0.00    +0.000 A 
ATOM     13  N   UNL     1       7.939  10.120  17.511  0.00  0.00    +0.000 N 
ATOM     14  H   UNL     1       7.321   9.944  16.728  0.00  0.00    +0.000 HD
ENDBRANCH   2   5
BRANCH   1  20
ATOM     15  C   UNL     1       3.087   4.890  18.364  0.00  0.00    +0.000 C 
ATOM     16  O   UNL     1       2.083   5.015  17.671  0.00  0.00    +0.000 OA
ATOM     17  N   UNL     1       4.280   5.517  18.044  0.00  0.00    +0.000 N 
ATOM     18  C   UNL     1       4.288   6.459  16.931  0.00  0.00    +0.000 C 
ATOM     19  C   UNL     1       5.447   6.179  15.985  0.00  0.00    +0.000 C 
ATOM     20  C   UNL     1       6.785   6.154  16.729  0.00  0.00    +0.000 C 
ATOM     21  C   UNL     1       6.721   5.203  17.935  0.00  0.00    +0.000 C 
ATOM     22  C   UNL     1       5.502   5.440  18.832  0.00  0.00    +0.000 C 
BRANCH  15  23
ATOM     23  O   UNL     1       3.134   4.135  19.501  0.00  0.00    +0.000 OA
BRANCH  23  25
ATOM     24  C   UNL     1       1.716   5.738  20.727  0.00  0.00    +0.000 C 
ATOM     25  C   UNL     1       2.041   4.261  20.459  0.00  0.00    +0.000 C 
ATOM     26  C   UNL     1       2.339   3.479  21.748  0.00  0.00    +0.000 C 
ATOM     27  C   UNL     1       0.797   3.628  19.811  0.00  0.00    +0.000 C 
ENDBRANCH  23  25
ENDBRANCH  15  23
ENDBRANCH   1  20
TORSDOF 4
ENDMDL
MODEL 8
REMARK VINA RESULT:      -7.7      4.442      6.996
REMARK  Name = 
REMARK  7 active torsions:
REMARK  status: ('A' for Active; 'I' for Inactive)
REMARK    1  A    between atoms: C_1  and  C_2
REMARK    2  A    between atoms: C_2  and  C_3
REMARK    3  A    between atoms: C_2  and  C_4
REMARK    4  A    between atoms: C_2  and  O_5
REMARK    5  A    between atoms: O_5  and  C_6
REMARK    6  A    between atoms: C_11  and  N_12
REMARK    7  A    between atoms: C_13  and  C_15
REMARK                            x       y       z     vdW  Elec       q    Type
REMARK                         _______ _______ _______ _____ _____    ______ ____
ROOT
ATOM      1  N   UNL     1       3.256   5.796  19.476  0.00  0.00    +0.000 N 
ATOM      2  C   UNL     1       2.169   6.023  20.295  0.00  0.00    +0.000 C 
ATOM      3  O   UNL     1       1.671   5.156  21.003  0.00  0.00    +0.000 OA
ATOM      4  H   UNL     1       3.689   6.599  19.048  0.00  0.00    +0.000 HD
ENDROOT
BRANCH   2   5
ATOM      5  C   UNL     1       1.671   7.383  20.259  0.00  0.00    +0.000 A 
ATOM      6  C   UNL     1       0.979   8.132  21.196  0.00  0.00    +0.000 A 
ATOM      7  C   UNL     1       0.700   9.409  20.644  0.00  0.00    +0.000 A 
ATOM      8  C   UNL     1       0.021  10.545  21.122  0.00  0.00    +0.000 A 
ATOM      9  C   UNL     1      -0.089  11.670  20.299  0.00  0.00    +0.000 A 
ATOM     10  C   UNL     1       0.473  11.672  19.025  0.00  0.00    +0.000 A 
ATOM     11  C   UNL     1       1.162  10.556  18.534  0.00  0.00    +0.000 A 
ATOM     12  C   UNL     1       1.254   9.433  19.368  0.00  0.00    +0.000 A 
ATOM     13  N   UNL     1       1.846   8.206  19.164  0.00  0.00    +0.000 N 
ATOM     14  H   UNL     1       2.338   7.927  18.324  0.00  0.00    +0.000 HD
ENDBRANCH   2   5
BRANCH   1  20
ATOM     15  C   UNL     1       6.816   4.253  16.302  0.00  0.00    +0.000 C 
ATOM     16  O   UNL     1       7.986   4.499  16.569  0.00  0.00    +0.000 OA
ATOM     17  N   UNL     1       5.784   4.580  17.167  0.00  0.00    +0.000 N 
ATOM     18  C   UNL     1       6.101   5.361  18.357  0.00  0.00    +0.000 C 
ATOM     19  C   UNL     1       5.485   4.740  19.602  0.00  0.00    +0.000 C 
ATOM     20  C   UNL     1       3.977   4.529  19.436  0.00  0.00    +0.000 C 
ATOM     21  C   UNL     1       3.673   3.761  18.139  0.00  0.00    +0.000 C 
ATOM     22  C   UNL     1       4.369   4.348  16.907  0.00  0.00    +0.000 C 
BRANCH  15  23
ATOM     23  O   UNL     1       6.412   3.645  15.148  0.00  0.00    +0.000 OA
BRANCH  23  25
ATOM     24  C   UNL     1       7.639   4.821  13.360  0.00  0.00    +0.000 C 
ATOM     25  C   UNL     1       6.267   4.465  13.950  0.00  0.00    +0.000 C 
ATOM     26  C   UNL     1       5.404   5.706  14.228  0.00  0.00    +0.000 C 
ATOM     27  C   UNL     1       5.524   3.612  12.906  0.00  0.00    +0.000 C 
ENDBRANCH  23  25
ENDBRANCH  15  23
ENDBRANCH   1  20
TORSDOF 4
ENDMDL
MODEL 9
REMARK VINA RESULT:      -7.7      5.759      9.199
REMARK  Name = 
REMARK  7 active torsions:
REMARK  status: ('A' for Active; 'I' for Inactive)
REMARK    1  A    between atoms: C_1  and  C_2
REMARK    2  A    between atoms: C_2  and  C_3
REMARK    3  A    between atoms: C_2  and  C_4
REMARK    4  A    between atoms: C_2  and  O_5
REMARK    5  A    between atoms: O_5  and  C_6
REMARK    6  A    between atoms: C_11  and  N_12
REMARK    7  A    between atoms: C_13  and  C_15
REMARK                            x       y       z     vdW  Elec       q    Type
REMARK                         _______ _______ _______ _____ _____    ______ ____
ROOT
ATOM      1  N   UNL     1       1.573   8.551  19.506  0.00  0.00    +0.000 N 
ATOM      2  C   UNL     1       2.401   7.726  18.773  0.00  0.00    +0.000 C 
ATOM      3  O   UNL     1       3.144   8.135  17.890  0.00  0.00    +0.000 OA
ATOM      4  H   UNL     1       1.114   8.151  20.309  0.00  0.00    +0.000 HD
ENDROOT
BRANCH   2   5
ATOM      5  C   UNL     1       2.330   6.327  19.147  0.00  0.00    +0.000 A 
ATOM      6  C   UNL     1       2.259   5.176  18.382  0.00  0.00    +0.000 A 
ATOM      7  C   UNL     1       2.177   4.055  19.249  0.00  0.00    +0.000 A 
ATOM      8  C   UNL     1       2.064   2.669  19.036  0.00  0.00    +0.000 A 
ATOM      9  C   UNL     1       1.992   1.813  20.139  0.00  0.00    +0.000 A 
ATOM     10  C   UNL     1       2.041   2.322  21.434  0.00  0.00    +0.000 A 
ATOM     11  C   UNL     1       2.163   3.698  21.669  0.00  0.00    +0.000 A 
ATOM     12  C   UNL     1       2.224   4.543  20.552  0.00  0.00    +0.000 A 
ATOM     13  N   UNL     1       2.330   5.913  20.465  0.00  0.00    +0.000 N 
ATOM     14  H   UNL     1       2.392   6.547  21.252  0.00  0.00    +0.000 HD
ENDBRANCH   2   5
BRANCH   1  20
ATOM     15  C   UNL     1      -2.295  11.656  18.788  0.00  0.00    +0.000 C 
ATOM     16  O   UNL     1      -2.876  12.107  19.769  0.00  0.00    +0.000 OA
ATOM     17  N   UNL     1      -1.171  10.854  18.907  0.00  0.00    +0.000 N 
ATOM     18  C   UNL     1      -0.765  10.429  20.242  0.00  0.00    +0.000 C 
ATOM     19  C   UNL     1       0.722  10.663  20.463  0.00  0.00    +0.000 C 
ATOM     20  C   UNL     1       1.563  10.002  19.366  0.00  0.00    +0.000 C 
ATOM     21  C   UNL     1       1.066  10.419  17.972  0.00  0.00    +0.000 C 
ATOM     22  C   UNL     1      -0.447  10.258  17.793  0.00  0.00    +0.000 C 
BRANCH  15  23
ATOM     23  O   UNL     1      -2.685  11.891  17.500  0.00  0.00    +0.000 OA
BRANCH  23  25
ATOM     24  C   UNL     1      -3.968   9.804  17.789  0.00  0.00    +0.000 C 
ATOM     25  C   UNL     1      -3.749  11.065  16.941  0.00  0.00    +0.000 C 
ATOM     26  C   UNL     1      -3.484  10.744  15.462  0.00  0.00    +0.000 C 
ATOM     27  C   UNL     1      -5.046  11.893  17.007  0.00  0.00    +0.000 C 
ENDBRANCH  23  25
ENDBRANCH  15  23
ENDBRANCH   1  20
TORSDOF 4
ENDMDL
