MODEL 1
REMARK VINA RESULT:      -7.6      0.000      0.000
REMARK  Name = 
REMARK  8 active torsions:
REMARK  status: ('A' for Active; 'I' for Inactive)
REMARK    1  A    between atoms: C_2  and  C_4
REMARK    2  A    between atoms: C_4  and  N_5
REMARK    3  A    between atoms: C_4  and  C_6
REMARK    4  A    between atoms: C_6  and  C_7
REMARK    5  A    between atoms: C_7  and  C_8
REMARK    6  A    between atoms: N_10  and  C_11
REMARK    7  A    between atoms: C_14  and  O_15
REMARK    8  A    between atoms: O_15  and  C_16
REMARK                            x       y       z     vdW  Elec       q    Type
REMARK                         _______ _______ _______ _____ _____    ______ ____
ROOT
ATOM      1  C   UNL     1       8.358   9.086  18.377  0.00  0.00    +0.000 C 
ATOM      2  O   UNL     1       7.558   9.536  17.560  0.00  0.00    +0.000 OA
ATOM      3  N   UNL     1       8.483   7.766  18.758  0.00  0.00    +0.000 N 
ATOM      4  H   UNL     1       9.058   7.568  19.575  0.00  0.00    +0.000 HD
ENDROOT
BRANCH   3   5
ATOM      5  C   UNL     1       7.713   6.691  18.255  0.00  0.00    +0.000 A 
ATOM      6  C   UNL     1       7.345   6.559  16.916  0.00  0.00    +0.000 A 
ATOM      7  C   UNL     1       6.527   5.505  16.516  0.00  0.00    +0.000 A 
ATOM      8  C   UNL     1       6.125   4.589  17.471  0.00  0.00    +0.000 A 
ATOM      9  N   UNL     1       6.470   4.668  18.776  0.00  0.00    +0.000 NA
ATOM     10  C   UNL     1       7.265   5.706  19.132  0.00  0.00    +0.000 A 
BRANCH   8  11
ATOM     11  O   UNL     1       5.293   3.569  17.032  0.00  0.00    +0.000 OA
BRANCH  11  12
ATOM     12  C   UNL     1       3.983   3.585  17.451  0.00  0.00    +0.000 A 
ATOM     13  C   UNL     1       3.458   2.371  17.897  0.00  0.00    +0.000 A 
ATOM     14  C   UNL     1       2.147   2.309  18.370  0.00  0.00    +0.000 A 
ATOM     15  C   UNL     1       1.364   3.466  18.404  0.00  0.00    +0.000 A 
ATOM     16  C   UNL     1       1.895   4.682  17.983  0.00  0.00    +0.000 A 
ATOM     17  C   UNL     1       3.207   4.746  17.524  0.00  0.00    +0.000 A 
ENDBRANCH  11  12
ENDBRANCH   8  11
ENDBRANCH   3   5
BRANCH   1  18
ATOM     18  C   UNL     1       9.279  10.030  19.121  0.00  0.00    +0.000 C 
BRANCH  18  19
ATOM     19  C   UNL     1       9.935  11.022  18.157  0.00  0.00    +0.000 C 
BRANCH  19  20
ATOM     20  C   UNL     1       9.379  12.450  18.258  0.00  0.00    +0.000 C 
BRANCH  20  22
ATOM     21  N   UNL     1      10.632  13.928  16.720  0.00  0.00    +0.000 N 
ATOM     22  C   UNL     1      10.498  13.478  18.002  0.00  0.00    +0.000 C 
ATOM     23  O   UNL     1      11.301  13.805  18.874  0.00  0.00    +0.000 OA
ATOM     24  H   UNL     1      11.343  14.628  16.542  0.00  0.00    +0.000 HD
ATOM     25  H   UNL     1       9.894  13.816  16.039  0.00  0.00    +0.000 HD
ENDBRANCH  20  22
BRANCH  20  26
ATOM     26  N   UNL     1       8.270  12.612  17.297  0.00  0.00    +0.000 NA
ATOM     27  H   UNL     1       7.612  13.321  17.605  0.00  0.00    +0.000 HD
ATOM     28  H   UNL     1       7.783  11.726  17.169  0.00  0.00    +0.000 HD
ENDBRANCH  20  26
ENDBRANCH  19  20
ENDBRANCH  18  19
ENDBRANCH   1  18
TORSDOF 8
ENDMDL
MODEL 2
REMARK VINA RESULT:      -7.4      0.769      1.147
REMARK  Name = 
REMARK  8 active torsions:
REMARK  status: ('A' for Active; 'I' for Inactive)
REMARK    1  A    between atoms: C_2  and  C_4
REMARK    2  A    between atoms: C_4  and  N_5
REMARK    3  A    between atoms: C_4  and  C_6
REMARK    4  A    between atoms: C_6  and  C_7
REMARK    5  A    between atoms: C_7  and  C_8
REMARK    6  A    between atoms: N_10  and  C_11
REMARK    7  A    between atoms: C_14  and  O_15
REMARK    8  A    between atoms: O_15  and  C_16
REMARK                            x       y       z     vdW  Elec       q    Type
REMARK                         _______ _______ _______ _____ _____    ______ ____
ROOT
ATOM      1  C   UNL     1       8.485   9.297  18.395  0.00  0.00    +0.000 C 
ATOM      2  O   UNL     1       7.612   9.719  17.639  0.00  0.00    +0.000 OA
ATOM      3  N   UNL     1       8.651   7.989  18.802  0.00  0.00    +0.000 N 
ATOM      4  H   UNL     1       9.297   7.818  19.570  0.00  0.00    +0.000 HD
ENDROOT
BRANCH   3   5
ATOM      5  C   UNL     1       7.846   6.897  18.401  0.00  0.00    +0.000 A 
ATOM      6  C   UNL     1       7.239   6.797  17.149  0.00  0.00    +0.000 A 
ATOM      7  C   UNL     1       6.406   5.719  16.860  0.00  0.00    +0.000 A 
ATOM      8  C   UNL     1       6.230   4.749  17.829  0.00  0.00    +0.000 A 
ATOM      9  N   UNL     1       6.809   4.796  19.050  0.00  0.00    +0.000 NA
ATOM     10  C   UNL     1       7.612   5.858  19.300  0.00  0.00    +0.000 A 
BRANCH   8  11
ATOM     11  O   UNL     1       5.373   3.706  17.506  0.00  0.00    +0.000 OA
BRANCH  11  12
ATOM     12  C   UNL     1       4.126   3.696  18.085  0.00  0.00    +0.000 A 
ATOM     13  C   UNL     1       3.116   4.375  17.400  0.00  0.00    +0.000 A 
ATOM     14  C   UNL     1       1.816   4.384  17.905  0.00  0.00    +0.000 A 
ATOM     15  C   UNL     1       1.524   3.706  19.091  0.00  0.00    +0.000 A 
ATOM     16  C   UNL     1       2.525   3.009  19.761  0.00  0.00    +0.000 A 
ATOM     17  C   UNL     1       3.820   2.988  19.251  0.00  0.00    +0.000 A 
ENDBRANCH  11  12
ENDBRANCH   8  11
ENDBRANCH   3   5
BRANCH   1  18
ATOM     18  C   UNL     1       9.461  10.266  19.026  0.00  0.00    +0.000 C 
BRANCH  18  19
ATOM     19  C   UNL     1      10.149  11.119  17.956  0.00  0.00    +0.000 C 
BRANCH  19  20
ATOM     20  C   UNL     1       9.744  12.599  17.984  0.00  0.00    +0.000 C 
BRANCH  20  22
ATOM     21  N   UNL     1      10.470  14.723  16.942  0.00  0.00    +0.000 N 
ATOM     22  C   UNL     1      10.836  13.465  17.326  0.00  0.00    +0.000 C 
ATOM     23  O   UNL     1      11.951  13.022  17.059  0.00  0.00    +0.000 OA
ATOM     24  H   UNL     1      11.184  15.315  16.536  0.00  0.00    +0.000 HD
ATOM     25  H   UNL     1       9.634  15.164  17.300  0.00  0.00    +0.000 HD
ENDBRANCH  20  22
BRANCH  20  26
ATOM     26  N   UNL     1       8.444  12.764  17.301  0.00  0.00    +0.000 NA
ATOM     27  H   UNL     1       7.692  12.915  17.966  0.00  0.00    +0.000 HD
ATOM     28  H   UNL     1       8.239  11.943  16.734  0.00  0.00    +0.000 HD
ENDBRANCH  20  26
ENDBRANCH  19  20
ENDBRANCH  18  19
ENDBRANCH   1  18
TORSDOF 8
ENDMDL
MODEL 3
REMARK VINA RESULT:      -7.4      4.877      8.172
REMARK  Name = 
REMARK  8 active torsions:
REMARK  status: ('A' for Active; 'I' for Inactive)
REMARK    1  A    between atoms: C_2  and  C_4
REMARK    2  A    between atoms: C_4  and  N_5
REMARK    3  A    between atoms: C_4  and  C_6
REMARK    4  A    between atoms: C_6  and  C_7
REMARK    5  A    between atoms: C_7  and  C_8
REMARK    6  A    between atoms: N_10  and  C_11
REMARK    7  A    between atoms: C_14  and  O_15
REMARK    8  A    between atoms: O_15  and  C_16
REMARK                            x       y       z     vdW  Elec       q    Type
REMARK                         _______ _______ _______ _____ _____    ______ ____
ROOT
ATOM      1  C   UNL     1       2.650   5.891  19.399  0.00  0.00    +0.000 C 
ATOM      2  O   UNL     1       2.059   6.221  18.373  0.00  0.00    +0.000 OA
ATOM      3  N   UNL     1       3.996   5.611  19.513  0.00  0.00    +0.000 N 
ATOM      4  H   UNL     1       4.309   5.173  20.378  0.00  0.00    +0.000 HD
ENDROOT
BRANCH   3   5
ATOM      5  C   UNL     1       4.938   5.672  18.460  0.00  0.00    +0.000 A 
ATOM      6  C   UNL     1       5.067   6.758  17.594  0.00  0.00    +0.000 A 
ATOM      7  C   UNL     1       5.975   6.709  16.540  0.00  0.00    +0.000 A 
ATOM      8  C   UNL     1       6.759   5.578  16.403  0.00  0.00    +0.000 A 
ATOM      9  N   UNL     1       6.680   4.509  17.227  0.00  0.00    +0.000 NA
ATOM     10  C   UNL     1       5.785   4.588  18.241  0.00  0.00    +0.000 A 
BRANCH   8  11
ATOM     11  O   UNL     1       7.633   5.563  15.325  0.00  0.00    +0.000 OA
BRANCH  11  12
ATOM     12  C   UNL     1       7.236   4.906  14.185  0.00  0.00    +0.000 A 
ATOM     13  C   UNL     1       6.079   4.130  14.285  0.00  0.00    +0.000 A 
ATOM     14  C   UNL     1       5.590   3.458  13.165  0.00  0.00    +0.000 A 
ATOM     15  C   UNL     1       6.254   3.570  11.941  0.00  0.00    +0.000 A 
ATOM     16  C   UNL     1       7.393   4.364  11.834  0.00  0.00    +0.000 A 
ATOM     17  C   UNL     1       7.874   5.045  12.949  0.00  0.00    +0.000 A 
ENDBRANCH  11  12
ENDBRANCH   8  11
ENDBRANCH   3   5
BRANCH   1  18
ATOM     18  C   UNL     1       1.869   5.691  20.680  0.00  0.00    +0.000 C 
BRANCH  18  19
ATOM     19  C   UNL     1       1.716   4.200  20.996  0.00  0.00    +0.000 C 
BRANCH  19  20
ATOM     20  C   UNL     1       1.432   3.328  19.765  0.00  0.00    +0.000 C 
BRANCH  20  22
ATOM     21  N   UNL     1       2.458   1.469  18.494  0.00  0.00    +0.000 N 
ATOM     22  C   UNL     1       2.620   2.384  19.494  0.00  0.00    +0.000 C 
ATOM     23  O   UNL     1       3.626   2.376  20.201  0.00  0.00    +0.000 OA
ATOM     24  H   UNL     1       3.241   0.862  18.283  0.00  0.00    +0.000 HD
ATOM     25  H   UNL     1       1.732   1.568  17.798  0.00  0.00    +0.000 HD
ENDBRANCH  20  22
BRANCH  20  26
ATOM     26  N   UNL     1       0.183   2.569  19.980  0.00  0.00    +0.000 NA
ATOM     27  H   UNL     1       0.030   2.378  20.965  0.00  0.00    +0.000 HD
ATOM     28  H   UNL     1       0.211   1.693  19.461  0.00  0.00    +0.000 HD
ENDBRANCH  20  26
ENDBRANCH  19  20
ENDBRANCH  18  19
ENDBRANCH   1  18
TORSDOF 8
ENDMDL
MODEL 4
REMARK VINA RESULT:      -7.4      1.377      1.793
REMARK  Name = 
REMARK  8 active torsions:
REMARK  status: ('A' for Active; 'I' for Inactive)
REMARK    1  A    between atoms: C_2  and  C_4
REMARK    2  A    between atoms: C_4  and  N_5
REMARK    3  A    between atoms: C_4  and  C_6
REMARK    4  A    between atoms: C_6  and  C_7
REMARK    5  A    between atoms: C_7  and  C_8
REMARK    6  A    between atoms: N_10  and  C_11
REMARK    7  A    between atoms: C_14  and  O_15
REMARK    8  A    between atoms: O_15  and  C_16
REMARK                            x       y       z     vdW  Elec       q    Type
REMARK                         _______ _______ _______ _____ _____    ______ ____
ROOT
ATOM      1  C   UNL     1       8.406   8.947  18.331  0.00  0.00    +0.000 C 
ATOM      2  O   UNL     1       7.645   9.408  17.483  0.00  0.00    +0.000 OA
ATOM      3  N   UNL     1       8.470   7.632  18.745  0.00  0.00    +0.000 N 
ATOM      4  H   UNL     1       9.015   7.432  19.581  0.00  0.00    +0.000 HD
ENDROOT
BRANCH   3   5
ATOM      5  C   UNL     1       7.672   6.576  18.246  0.00  0.00    +0.000 A 
ATOM      6  C   UNL     1       7.293   6.453  16.909  0.00  0.00    +0.000 A 
ATOM      7  C   UNL     1       6.448   5.419  16.514  0.00  0.00    +0.000 A 
ATOM      8  C   UNL     1       6.031   4.512  17.470  0.00  0.00    +0.000 A 
ATOM      9  N   UNL     1       6.385   4.582  18.773  0.00  0.00    +0.000 NA
ATOM     10  C   UNL     1       7.206   5.600  19.125  0.00  0.00    +0.000 A 
BRANCH   8  11
ATOM     11  O   UNL     1       5.172   3.512  17.035  0.00  0.00    +0.000 OA
BRANCH  11  12
ATOM     12  C   UNL     1       3.884   3.519  17.516  0.00  0.00    +0.000 A 
ATOM     13  C   UNL     1       3.291   4.771  17.689  0.00  0.00    +0.000 A 
ATOM     14  C   UNL     1       1.975   4.863  18.142  0.00  0.00    +0.000 A 
ATOM     15  C   UNL     1       1.249   3.701  18.413  0.00  0.00    +0.000 A 
ATOM     16  C   UNL     1       1.831   2.451  18.217  0.00  0.00    +0.000 A 
ATOM     17  C   UNL     1       3.140   2.359  17.753  0.00  0.00    +0.000 A 
ENDBRANCH  11  12
ENDBRANCH   8  11
ENDBRANCH   3   5
BRANCH   1  18
ATOM     18  C   UNL     1       9.342   9.872  19.078  0.00  0.00    +0.000 C 
BRANCH  18  19
ATOM     19  C   UNL     1       9.350  11.266  18.444  0.00  0.00    +0.000 C 
BRANCH  19  20
ATOM     20  C   UNL     1      10.704  11.985  18.535  0.00  0.00    +0.000 C 
BRANCH  20  22
ATOM     21  N   UNL     1      10.470  12.598  20.921  0.00  0.00    +0.000 N 
ATOM     22  C   UNL     1      11.227  11.956  19.985  0.00  0.00    +0.000 C 
ATOM     23  O   UNL     1      12.320  11.474  20.278  0.00  0.00    +0.000 OA
ATOM     24  H   UNL     1      10.784  12.562  21.883  0.00  0.00    +0.000 HD
ATOM     25  H   UNL     1       9.505  12.842  20.745  0.00  0.00    +0.000 HD
ENDBRANCH  20  22
BRANCH  20  26
ATOM     26  N   UNL     1      11.659  11.348  17.607  0.00  0.00    +0.000 NA
ATOM     27  H   UNL     1      12.510  11.894  17.517  0.00  0.00    +0.000 HD
ATOM     28  H   UNL     1      11.232  11.228  16.690  0.00  0.00    +0.000 HD
ENDBRANCH  20  26
ENDBRANCH  19  20
ENDBRANCH  18  19
ENDBRANCH   1  18
TORSDOF 8
ENDMDL
MODEL 5
REMARK VINA RESULT:      -7.3      1.725      2.050
REMARK  Name = 
REMARK  8 active torsions:
REMARK  status: ('A' for Active; 'I' for Inactive)
REMARK    1  A    between atoms: C_2  and  C_4
REMARK    2  A    between atoms: C_4  and  N_5
REMARK    3  A    between atoms: C_4  and  C_6
REMARK    4  A    between atoms: C_6  and  C_7
REMARK    5  A    between atoms: C_7  and  C_8
REMARK    6  A    between atoms: N_10  and  C_11
REMARK    7  A    between atoms: C_14  and  O_15
REMARK    8  A    between atoms: O_15  and  C_16
REMARK                            x       y       z     vdW  Elec       q    Type
REMARK                         _______ _______ _______ _____ _____    ______ ____
ROOT
ATOM      1  C   UNL     1       8.093   8.315  18.093  0.00  0.00    +0.000 C 
ATOM      2  O   UNL     1       8.538   7.527  18.925  0.00  0.00    +0.000 OA
ATOM      3  N   UNL     1       7.073   8.070  17.197  0.00  0.00    +0.000 N 
ATOM      4  H   UNL     1       6.937   8.746  16.448  0.00  0.00    +0.000 HD
ENDROOT
BRANCH   3   5
ATOM      5  C   UNL     1       6.347   6.860  17.093  0.00  0.00    +0.000 A 
ATOM      6  C   UNL     1       4.957   6.779  17.171  0.00  0.00    +0.000 A 
ATOM      7  C   UNL     1       4.325   5.539  17.127  0.00  0.00    +0.000 A 
ATOM      8  C   UNL     1       5.108   4.410  16.971  0.00  0.00    +0.000 A 
ATOM      9  N   UNL     1       6.456   4.441  16.876  0.00  0.00    +0.000 NA
ATOM     10  C   UNL     1       7.040   5.663  16.924  0.00  0.00    +0.000 A 
BRANCH   8  11
ATOM     11  O   UNL     1       4.438   3.194  16.956  0.00  0.00    +0.000 OA
BRANCH  11  12
ATOM     12  C   UNL     1       3.543   2.942  17.969  0.00  0.00    +0.000 A 
ATOM     13  C   UNL     1       4.068   2.883  19.262  0.00  0.00    +0.000 A 
ATOM     14  C   UNL     1       3.221   2.664  20.349  0.00  0.00    +0.000 A 
ATOM     15  C   UNL     1       1.848   2.513  20.143  0.00  0.00    +0.000 A 
ATOM     16  C   UNL     1       1.321   2.596  18.857  0.00  0.00    +0.000 A 
ATOM     17  C   UNL     1       2.163   2.828  17.773  0.00  0.00    +0.000 A 
ENDBRANCH  11  12
ENDBRANCH   8  11
ENDBRANCH   3   5
BRANCH   1  18
ATOM     18  C   UNL     1       8.728   9.681  17.942  0.00  0.00    +0.000 C 
BRANCH  18  19
ATOM     19  C   UNL     1       9.154  10.237  19.304  0.00  0.00    +0.000 C 
BRANCH  19  20
ATOM     20  C   UNL     1      10.436  11.080  19.260  0.00  0.00    +0.000 C 
BRANCH  20  22
ATOM     21  N   UNL     1      11.448  11.903  17.157  0.00  0.00    +0.000 N 
ATOM     22  C   UNL     1      10.413  12.022  18.040  0.00  0.00    +0.000 C 
ATOM     23  O   UNL     1       9.572  12.909  17.911  0.00  0.00    +0.000 OA
ATOM     24  H   UNL     1      11.431  12.493  16.334  0.00  0.00    +0.000 HD
ATOM     25  H   UNL     1      12.041  11.085  17.144  0.00  0.00    +0.000 HD
ENDBRANCH  20  22
BRANCH  20  26
ATOM     26  N   UNL     1      10.567  11.839  20.520  0.00  0.00    +0.000 NA
ATOM     27  H   UNL     1      10.195  11.317  21.308  0.00  0.00    +0.000 HD
ATOM     28  H   UNL     1      10.084  12.733  20.444  0.00  0.00    +0.000 HD
ENDBRANCH  20  26
ENDBRANCH  19  20
ENDBRANCH  18  19
ENDBRANCH   1  18
TORSDOF 8
ENDMDL
MODEL 6
REMARK VINA RESULT:      -7.3      5.854      9.048
REMARK  Name = 
REMARK  8 active torsions:
REMARK  status: ('A' for Active; 'I' for Inactive)
REMARK    1  A    between atoms: C_2  and  C_4
REMARK    2  A    between atoms: C_4  and  N_5
REMARK    3  A    between atoms: C_4  and  C_6
REMARK    4  A    between atoms: C_6  and  C_7
REMARK    5  A    between atoms: C_7  and  C_8
REMARK    6  A    between atoms: N_10  and  C_11
REMARK    7  A    between atoms: C_14  and  O_15
REMARK    8  A    between atoms: O_15  and  C_16
REMARK                            x       y       z     vdW  Elec       q    Type
REMARK                         _______ _______ _______ _____ _____    ______ ____
ROOT
ATOM      1  C   UNL     1       1.799   4.171  20.576  0.00  0.00    +0.000 C 
ATOM      2  O   UNL     1       0.701   4.078  20.031  0.00  0.00    +0.000 OA
ATOM      3  N   UNL     1       2.574   5.309  20.665  0.00  0.00    +0.000 N 
ATOM      4  H   UNL     1       3.536   5.194  20.979  0.00  0.00    +0.000 HD
ENDROOT
BRANCH   3   5
ATOM      5  C   UNL     1       2.226   6.580  20.151  0.00  0.00    +0.000 A 
ATOM      6  C   UNL     1       1.533   7.548  20.877  0.00  0.00    +0.000 A 
ATOM      7  C   UNL     1       1.170   8.749  20.272  0.00  0.00    +0.000 A 
ATOM      8  C   UNL     1       1.545   8.961  18.958  0.00  0.00    +0.000 A 
ATOM      9  N   UNL     1       2.230   8.058  18.221  0.00  0.00    +0.000 NA
ATOM     10  C   UNL     1       2.566   6.900  18.838  0.00  0.00    +0.000 A 
BRANCH   8  11
ATOM     11  O   UNL     1       1.142  10.161  18.390  0.00  0.00    +0.000 OA
BRANCH  11  12
ATOM     12  C   UNL     1      -0.204  10.437  18.358  0.00  0.00    +0.000 A 
ATOM     13  C   UNL     1      -0.633  11.531  19.112  0.00  0.00    +0.000 A 
ATOM     14  C   UNL     1      -1.979  11.897  19.108  0.00  0.00    +0.000 A 
ATOM     15  C   UNL     1      -2.895  11.173  18.340  0.00  0.00    +0.000 A 
ATOM     16  C   UNL     1      -2.464  10.098  17.568  0.00  0.00    +0.000 A 
ATOM     17  C   UNL     1      -1.119   9.740  17.563  0.00  0.00    +0.000 A 
ENDBRANCH  11  12
ENDBRANCH   8  11
ENDBRANCH   3   5
BRANCH   1  18
ATOM     18  C   UNL     1       2.447   2.938  21.168  0.00  0.00    +0.000 C 
BRANCH  18  19
ATOM     19  C   UNL     1       3.713   2.562  20.392  0.00  0.00    +0.000 C 
BRANCH  19  20
ATOM     20  C   UNL     1       3.483   2.352  18.889  0.00  0.00    +0.000 C 
BRANCH  20  22
ATOM     21  N   UNL     1       5.508   3.747  18.612  0.00  0.00    +0.000 N 
ATOM     22  C   UNL     1       4.312   3.364  18.075  0.00  0.00    +0.000 C 
ATOM     23  O   UNL     1       3.885   3.887  17.048  0.00  0.00    +0.000 OA
ATOM     24  H   UNL     1       6.078   4.388  18.074  0.00  0.00    +0.000 HD
ATOM     25  H   UNL     1       5.954   3.214  19.346  0.00  0.00    +0.000 HD
ENDBRANCH  20  22
BRANCH  20  26
ATOM     26  N   UNL     1       3.830   0.962  18.530  0.00  0.00    +0.000 NA
ATOM     27  H   UNL     1       4.835   0.836  18.464  0.00  0.00    +0.000 HD
ATOM     28  H   UNL     1       3.395   0.709  17.645  0.00  0.00    +0.000 HD
ENDBRANCH  20  26
ENDBRANCH  19  20
ENDBRANCH  18  19
ENDBRANCH   1  18
TORSDOF 8
ENDMDL
MODEL 7
REMARK VINA RESULT:      -7.2      1.900      2.303
REMARK  Name = 
REMARK  8 active torsions:
REMARK  status: ('A' for Active; 'I' for Inactive)
REMARK    1  A    between atoms: C_2  and  C_4
REMARK    2  A    between atoms: C_4  and  N_5
REMARK    3  A    between atoms: C_4  and  C_6
REMARK    4  A    between atoms: C_6  and  C_7
REMARK    5  A    between atoms: C_7  and  C_8
REMARK    6  A    between atoms: N_10  and  C_11
REMARK    7  A    between atoms: C_14  and  O_15
REMARK    8  A    between atoms: O_15  and  C_16
REMARK                            x       y       z     vdW  Elec       q    Type
REMARK                         _______ _______ _______ _____ _____    ______ ____
ROOT
ATOM      1  C   UNL     1       7.955   8.033  17.956  0.00  0.00    +0.000 C 
ATOM      2  O   UNL     1       8.493   7.421  18.876  0.00  0.00    +0.000 OA
ATOM      3  N   UNL     1       6.878   7.605  17.208  0.00  0.00    +0.000 N 
ATOM      4  H   UNL     1       6.658   8.130  16.364  0.00  0.00    +0.000 HD
ENDROOT
BRANCH   3   5
ATOM      5  C   UNL     1       6.192   6.380  17.385  0.00  0.00    +0.000 A 
ATOM      6  C   UNL     1       5.277   5.863  16.469  0.00  0.00    +0.000 A 
ATOM      7  C   UNL     1       4.595   4.682  16.752  0.00  0.00    +0.000 A 
ATOM      8  C   UNL     1       4.876   4.032  17.939  0.00  0.00    +0.000 A 
ATOM      9  N   UNL     1       5.766   4.487  18.850  0.00  0.00    +0.000 NA
ATOM     10  C   UNL     1       6.411   5.639  18.544  0.00  0.00    +0.000 A 
BRANCH   8  11
ATOM     11  O   UNL     1       4.156   2.872  18.190  0.00  0.00    +0.000 OA
BRANCH  11  12
ATOM     12  C   UNL     1       3.209   2.908  19.186  0.00  0.00    +0.000 A 
ATOM     13  C   UNL     1       1.897   3.172  18.787  0.00  0.00    +0.000 A 
ATOM     14  C   UNL     1       0.871   3.193  19.732  0.00  0.00    +0.000 A 
ATOM     15  C   UNL     1       1.157   2.939  21.076  0.00  0.00    +0.000 A 
ATOM     16  C   UNL     1       2.460   2.651  21.470  0.00  0.00    +0.000 A 
ATOM     17  C   UNL     1       3.482   2.617  20.526  0.00  0.00    +0.000 A 
ENDBRANCH  11  12
ENDBRANCH   8  11
ENDBRANCH   3   5
BRANCH   1  18
ATOM     18  C   UNL     1       8.523   9.363  17.510  0.00  0.00    +0.000 C 
BRANCH  18  19
ATOM     19  C   UNL     1       8.660  10.323  18.696  0.00  0.00    +0.000 C 
BRANCH  19  20
ATOM     20  C   UNL     1      10.098  10.794  18.953  0.00  0.00    +0.000 C 
BRANCH  20  22
ATOM     21  N   UNL     1      11.824  11.654  17.401  0.00  0.00    +0.000 N 
ATOM     22  C   UNL     1      10.542  11.780  17.854  0.00  0.00    +0.000 C 
ATOM     23  O   UNL     1       9.824  12.701  17.471  0.00  0.00    +0.000 OA
ATOM     24  H   UNL     1      12.120  12.275  16.658  0.00  0.00    +0.000 HD
ATOM     25  H   UNL     1      12.364  10.816  17.566  0.00  0.00    +0.000 HD
ENDBRANCH  20  22
BRANCH  20  26
ATOM     26  N   UNL     1      10.179  11.412  20.292  0.00  0.00    +0.000 NA
ATOM     27  H   UNL     1      10.860  10.939  20.878  0.00  0.00    +0.000 HD
ATOM     28  H   UNL     1       9.266  11.392  20.744  0.00  0.00    +0.000 HD
ENDBRANCH  20  26
ENDBRANCH  19  20
ENDBRANCH  18  19
ENDBRANCH   1  18
TORSDOF 8
ENDMDL
MODEL 8
REMARK VINA RESULT:      -7.2      6.031      9.279
REMARK  Name = 
REMARK  8 active torsions:
REMARK  status: ('A' for Active; 'I' for Inactive)
REMARK    1  A    between atoms: C_2  and  C_4
REMARK    2  A    between atoms: C_4  and  N_5
REMARK    3  A    between atoms: C_4  and  C_6
REMARK    4  A    between atoms: C_6  and  C_7
REMARK    5  A    between atoms: C_7  and  C_8
REMARK    6  A    between atoms: N_10  and  C_11
REMARK    7  A    between atoms: C_14  and  O_15
REMARK    8  A    between atoms: O_15  and  C_16
REMARK                            x       y       z     vdW  Elec       q    Type
REMARK                         _______ _______ _______ _____ _____    ______ ____
ROOT
ATOM      1  C   UNL     1       1.949   4.872  20.571  0.00  0.00    +0.000 C 
ATOM      2  O   UNL     1       0.745   4.711  20.379  0.00  0.00    +0.000 OA
ATOM      3  N   UNL     1       2.654   6.047  20.407  0.00  0.00    +0.000 N 
ATOM      4  H   UNL     1       3.670   5.986  20.423  0.00  0.00    +0.000 HD
ENDROOT
BRANCH   3   5
ATOM      5  C   UNL     1       2.102   7.284  20.001  0.00  0.00    +0.000 A 
ATOM      6  C   UNL     1       1.353   8.113  20.836  0.00  0.00    +0.000 A 
ATOM      7  C   UNL     1       0.788   9.283  20.335  0.00  0.00    +0.000 A 
ATOM      8  C   UNL     1       1.018   9.608  19.012  0.00  0.00    +0.000 A 
ATOM      9  N   UNL     1       1.749   8.844  18.170  0.00  0.00    +0.000 NA
ATOM     10  C   UNL     1       2.284   7.711  18.687  0.00  0.00    +0.000 A 
BRANCH   8  11
ATOM     11  O   UNL     1       0.417  10.771  18.550  0.00  0.00    +0.000 OA
BRANCH  11  12
ATOM     12  C   UNL     1      -0.935  10.738  18.300  0.00  0.00    +0.000 A 
ATOM     13  C   UNL     1      -1.712  11.698  18.952  0.00  0.00    +0.000 A 
ATOM     14  C   UNL     1      -3.087  11.753  18.726  0.00  0.00    +0.000 A 
ATOM     15  C   UNL     1      -3.684  10.853  17.839  0.00  0.00    +0.000 A 
ATOM     16  C   UNL     1      -2.906   9.913  17.169  0.00  0.00    +0.000 A 
ATOM     17  C   UNL     1      -1.532   9.866  17.385  0.00  0.00    +0.000 A 
ENDBRANCH  11  12
ENDBRANCH   8  11
ENDBRANCH   3   5
BRANCH   1  18
ATOM     18  C   UNL     1       2.808   3.689  20.963  0.00  0.00    +0.000 C 
BRANCH  18  19
ATOM     19  C   UNL     1       2.512   2.481  20.068  0.00  0.00    +0.000 C 
BRANCH  19  20
ATOM     20  C   UNL     1       3.650   2.131  19.099  0.00  0.00    +0.000 C 
BRANCH  20  22
ATOM     21  N   UNL     1       2.613   3.309  17.185  0.00  0.00    +0.000 N 
ATOM     22  C   UNL     1       3.725   3.173  17.965  0.00  0.00    +0.000 C 
ATOM     23  O   UNL     1       4.761   3.779  17.700  0.00  0.00    +0.000 OA
ATOM     24  H   UNL     1       2.637   4.011  16.456  0.00  0.00    +0.000 HD
ATOM     25  H   UNL     1       1.712   2.962  17.483  0.00  0.00    +0.000 HD
ENDBRANCH  20  22
BRANCH  20  26
ATOM     26  N   UNL     1       4.922   2.055  19.844  0.00  0.00    +0.000 NA
ATOM     27  H   UNL     1       5.628   2.660  19.436  0.00  0.00    +0.000 HD
ATOM     28  H   UNL     1       5.263   1.095  19.861  0.00  0.00    +0.000 HD
ENDBRANCH  20  26
ENDBRANCH  19  20
ENDBRANCH  18  19
ENDBRANCH   1  18
TORSDOF 8
ENDMDL
MODEL 9
REMARK VINA RESULT:      -7.2      1.090      1.684
REMARK  Name = 
REMARK  8 active torsions:
REMARK  status: ('A' for Active; 'I' for Inactive)
REMARK    1  A    between atoms: C_2  and  C_4
REMARK    2  A    between atoms: C_4  and  N_5
REMARK    3  A    between atoms: C_4  and  C_6
REMARK    4  A    between atoms: C_6  and  C_7
REMARK    5  A    between atoms: C_7  and  C_8
REMARK    6  A    between atoms: N_10  and  C_11
REMARK    7  A    between atoms: C_14  and  O_15
REMARK    8  A    between atoms: O_15  and  C_16
REMARK                            x       y       z     vdW  Elec       q    Type
REMARK                         _______ _______ _______ _____ _____    ______ ____
ROOT
ATOM      1  C   UNL     1       8.218   8.747  18.268  0.00  0.00    +0.000 C 
ATOM      2  O   UNL     1       7.353   9.253  17.557  0.00  0.00    +0.000 OA
ATOM      3  N   UNL     1       8.293   7.423  18.648  0.00  0.00    +0.000 N 
ATOM      4  H   UNL     1       8.954   7.186  19.386  0.00  0.00    +0.000 HD
ENDROOT
BRANCH   3   5
ATOM      5  C   UNL     1       7.384   6.408  18.267  0.00  0.00    +0.000 A 
ATOM      6  C   UNL     1       6.718   5.581  19.171  0.00  0.00    +0.000 A 
ATOM      7  C   UNL     1       5.891   4.560  18.707  0.00  0.00    +0.000 A 
ATOM      8  C   UNL     1       5.729   4.418  17.342  0.00  0.00    +0.000 A 
ATOM      9  N   UNL     1       6.342   5.205  16.429  0.00  0.00    +0.000 NA
ATOM     10  C   UNL     1       7.140   6.187  16.913  0.00  0.00    +0.000 A 
BRANCH   8  11
ATOM     11  O   UNL     1       4.915   3.374  16.925  0.00  0.00    +0.000 OA
BRANCH  11  12
ATOM     12  C   UNL     1       3.704   3.213  17.556  0.00  0.00    +0.000 A 
ATOM     13  C   UNL     1       2.754   4.215  17.345  0.00  0.00    +0.000 A 
ATOM     14  C   UNL     1       1.489   4.111  17.923  0.00  0.00    +0.000 A 
ATOM     15  C   UNL     1       1.170   2.997  18.704  0.00  0.00    +0.000 A 
ATOM     16  C   UNL     1       2.107   1.986  18.894  0.00  0.00    +0.000 A 
ATOM     17  C   UNL     1       3.366   2.084  18.308  0.00  0.00    +0.000 A 
ENDBRANCH  11  12
ENDBRANCH   8  11
ENDBRANCH   3   5
BRANCH   1  18
ATOM     18  C   UNL     1       9.296   9.621  18.871  0.00  0.00    +0.000 C 
BRANCH  18  19
ATOM     19  C   UNL     1       9.336  10.989  18.183  0.00  0.00    +0.000 C 
BRANCH  19  20
ATOM     20  C   UNL     1      10.093  12.064  18.976  0.00  0.00    +0.000 C 
BRANCH  20  22
ATOM     21  N   UNL     1      12.049  11.830  17.479  0.00  0.00    +0.000 N 
ATOM     22  C   UNL     1      11.196  12.694  18.103  0.00  0.00    +0.000 C 
ATOM     23  O   UNL     1      11.375  13.909  18.048  0.00  0.00    +0.000 OA
ATOM     24  H   UNL     1      12.760  12.227  16.877  0.00  0.00    +0.000 HD
ATOM     25  H   UNL     1      11.823  10.851  17.366  0.00  0.00    +0.000 HD
ENDBRANCH  20  22
BRANCH  20  26
ATOM     26  N   UNL     1       9.138  13.084  19.453  0.00  0.00    +0.000 NA
ATOM     27  H   UNL     1       9.374  13.406  20.386  0.00  0.00    +0.000 HD
ATOM     28  H   UNL     1       8.191  12.707  19.451  0.00  0.00    +0.000 HD
ENDBRANCH  20  26
ENDBRANCH  19  20
ENDBRANCH  18  19
ENDBRANCH   1  18
TORSDOF 8
ENDMDL
