MODEL 1
REMARK VINA RESULT:      -7.1      0.000      0.000
REMARK  Name = 
REMARK  5 active torsions:
REMARK  status: ('A' for Active; 'I' for Inactive)
REMARK    1  A    between atoms: C_1  and  C_2
REMARK    2  A    between atoms: C_2  and  C_3
REMARK    3  A    between atoms: C_3  and  C_4
REMARK    4  A    between atoms: C_4  and  N_5
REMARK    5  A    between atoms: N_10  and  C_11
REMARK                            x       y       z     vdW  Elec       q    Type
REMARK                         _______ _______ _______ _____ _____    ______ ____
ROOT
ATOM      1  N   UNL     1       5.971   4.353  15.406  0.00  0.00    +0.000 N 
ATOM      2  C   UNL     1       7.328   4.785  15.687  0.00  0.00    +0.000 C 
ATOM      3  C   UNL     1       7.242   5.234  17.141  0.00  0.00    +0.000 C 
ATOM      4  C   UNL     1       6.156   4.350  17.741  0.00  0.00    +0.000 C 
ATOM      5  C   UNL     1       5.248   4.087  16.550  0.00  0.00    +0.000 C 
ATOM      6  N   UNL     1       4.018   3.661  16.588  0.00  0.00    +0.000 NA
ENDROOT
BRANCH   6   7
ATOM      7  C   UNL     1       3.320   3.421  17.785  0.00  0.00    +0.000 A 
ATOM      8  C   UNL     1       2.999   2.146  18.263  0.00  0.00    +0.000 A 
ATOM      9  C   UNL     1       2.387   1.967  19.505  0.00  0.00    +0.000 A 
ATOM     10  C   UNL     1       1.985   3.072  20.249  0.00  0.00    +0.000 A 
ATOM     11 CL   UNL     1       1.229   2.778  21.773  0.00  0.00    +0.000 Cl
ATOM     12  C   UNL     1       2.194   4.356  19.739  0.00  0.00    +0.000 A 
ATOM     13 CL   UNL     1       1.645   5.771  20.566  0.00  0.00    +0.000 Cl
ATOM     14  C   UNL     1       2.868   4.525  18.519  0.00  0.00    +0.000 A 
ENDBRANCH   6   7
BRANCH   1  15
ATOM     15  C   UNL     1       5.452   4.382  14.051  0.00  0.00    +0.000 C 
BRANCH  15  16
ATOM     16  C   UNL     1       6.478   3.850  13.044  0.00  0.00    +0.000 C 
BRANCH  16  18
ATOM     17  C   UNL     1       4.411   3.387  11.675  0.00  0.00    +0.000 C 
ATOM     18  C   UNL     1       5.839   2.961  11.976  0.00  0.00    +0.000 C 
ENDBRANCH  16  18
ENDBRANCH  15  16
ENDBRANCH   1  15
TORSDOF 4
ENDMDL
MODEL 2
REMARK VINA RESULT:      -6.8      3.261      5.532
REMARK  Name = 
REMARK  5 active torsions:
REMARK  status: ('A' for Active; 'I' for Inactive)
REMARK    1  A    between atoms: C_1  and  C_2
REMARK    2  A    between atoms: C_2  and  C_3
REMARK    3  A    between atoms: C_3  and  C_4
REMARK    4  A    between atoms: C_4  and  N_5
REMARK    5  A    between atoms: N_10  and  C_11
REMARK                            x       y       z     vdW  Elec       q    Type
REMARK                         _______ _______ _______ _____ _____    ______ ____
ROOT
ATOM      1  N   UNL     1       3.854   4.252  18.110  0.00  0.00    +0.000 N 
ATOM      2  C   UNL     1       3.160   3.075  17.620  0.00  0.00    +0.000 C 
ATOM      3  C   UNL     1       1.707   3.375  17.963  0.00  0.00    +0.000 C 
ATOM      4  C   UNL     1       1.612   4.894  17.891  0.00  0.00    +0.000 C 
ATOM      5  C   UNL     1       3.015   5.332  18.285  0.00  0.00    +0.000 C 
ATOM      6  N   UNL     1       3.375   6.516  18.688  0.00  0.00    +0.000 NA
ENDROOT
BRANCH   6   7
ATOM      7  C   UNL     1       2.473   7.580  18.866  0.00  0.00    +0.000 A 
ATOM      8  C   UNL     1       2.121   8.485  17.859  0.00  0.00    +0.000 A 
ATOM      9  C   UNL     1       1.149   9.465  18.068  0.00  0.00    +0.000 A 
ATOM     10  C   UNL     1       0.584   9.627  19.329  0.00  0.00    +0.000 A 
ATOM     11 CL   UNL     1      -0.608  10.862  19.519  0.00  0.00    +0.000 Cl
ATOM     12  C   UNL     1       1.003   8.807  20.380  0.00  0.00    +0.000 A 
ATOM     13 CL   UNL     1       0.410   9.007  21.992  0.00  0.00    +0.000 Cl
ATOM     14  C   UNL     1       1.934   7.783  20.142  0.00  0.00    +0.000 A 
ENDBRANCH   6   7
BRANCH   1  15
ATOM     15  C   UNL     1       5.247   4.176  18.508  0.00  0.00    +0.000 C 
BRANCH  15  16
ATOM     16  C   UNL     1       6.186   4.483  17.335  0.00  0.00    +0.000 C 
BRANCH  16  18
ATOM     17  C   UNL     1       7.730   5.759  18.867  0.00  0.00    +0.000 C 
ATOM     18  C   UNL     1       7.631   4.694  17.786  0.00  0.00    +0.000 C 
ENDBRANCH  16  18
ENDBRANCH  15  16
ENDBRANCH   1  15
TORSDOF 4
ENDMDL
MODEL 3
REMARK VINA RESULT:      -6.6      3.192      5.152
REMARK  Name = 
REMARK  5 active torsions:
REMARK  status: ('A' for Active; 'I' for Inactive)
REMARK    1  A    between atoms: C_1  and  C_2
REMARK    2  A    between atoms: C_2  and  C_3
REMARK    3  A    between atoms: C_3  and  C_4
REMARK    4  A    between atoms: C_4  and  N_5
REMARK    5  A    between atoms: N_10  and  C_11
REMARK                            x       y       z     vdW  Elec       q    Type
REMARK                         _______ _______ _______ _____ _____    ______ ____
ROOT
ATOM      1  N   UNL     1       3.876   4.091  18.167  0.00  0.00    +0.000 N 
ATOM      2  C   UNL     1       3.155   2.929  17.678  0.00  0.00    +0.000 C 
ATOM      3  C   UNL     1       1.704   3.285  17.979  0.00  0.00    +0.000 C 
ATOM      4  C   UNL     1       1.664   4.805  17.879  0.00  0.00    +0.000 C 
ATOM      5  C   UNL     1       3.070   5.201  18.302  0.00  0.00    +0.000 C 
ATOM      6  N   UNL     1       3.461   6.379  18.696  0.00  0.00    +0.000 NA
ENDROOT
BRANCH   6   7
ATOM      7  C   UNL     1       2.591   7.476  18.832  0.00  0.00    +0.000 A 
ATOM      8  C   UNL     1       2.332   8.401  17.815  0.00  0.00    +0.000 A 
ATOM      9  C   UNL     1       1.388   9.417  17.979  0.00  0.00    +0.000 A 
ATOM     10  C   UNL     1       0.759   9.592  19.208  0.00  0.00    +0.000 A 
ATOM     11 CL   UNL     1      -0.393  10.871  19.342  0.00  0.00    +0.000 Cl
ATOM     12  C   UNL     1       1.086   8.748  20.273  0.00  0.00    +0.000 A 
ATOM     13 CL   UNL     1       0.411   8.959  21.850  0.00  0.00    +0.000 Cl
ATOM     14  C   UNL     1       1.989   7.691  20.078  0.00  0.00    +0.000 A 
ENDBRANCH   6   7
BRANCH   1  15
ATOM     15  C   UNL     1       5.255   3.974  18.603  0.00  0.00    +0.000 C 
BRANCH  15  16
ATOM     16  C   UNL     1       6.208   4.719  17.661  0.00  0.00    +0.000 C 
BRANCH  16  18
ATOM     17  C   UNL     1       5.548   5.325  15.304  0.00  0.00    +0.000 C 
ATOM     18  C   UNL     1       6.092   4.237  16.215  0.00  0.00    +0.000 C 
ENDBRANCH  16  18
ENDBRANCH  15  16
ENDBRANCH   1  15
TORSDOF 4
ENDMDL
MODEL 4
REMARK VINA RESULT:      -6.6      4.735      7.778
REMARK  Name = 
REMARK  5 active torsions:
REMARK  status: ('A' for Active; 'I' for Inactive)
REMARK    1  A    between atoms: C_1  and  C_2
REMARK    2  A    between atoms: C_2  and  C_3
REMARK    3  A    between atoms: C_3  and  C_4
REMARK    4  A    between atoms: C_4  and  N_5
REMARK    5  A    between atoms: N_10  and  C_11
REMARK                            x       y       z     vdW  Elec       q    Type
REMARK                         _______ _______ _______ _____ _____    ______ ____
ROOT
ATOM      1  N   UNL     1       1.407   8.414  19.881  0.00  0.00    +0.000 N 
ATOM      2  C   UNL     1       0.912   9.639  19.280  0.00  0.00    +0.000 C 
ATOM      3  C   UNL     1       1.856   9.838  18.101  0.00  0.00    +0.000 C 
ATOM      4  C   UNL     1       2.253   8.423  17.697  0.00  0.00    +0.000 C 
ATOM      5  C   UNL     1       2.185   7.672  19.018  0.00  0.00    +0.000 C 
ATOM      6  N   UNL     1       2.733   6.523  19.288  0.00  0.00    +0.000 NA
ENDROOT
BRANCH   6   7
ATOM      7  C   UNL     1       3.533   5.814  18.373  0.00  0.00    +0.000 A 
ATOM      8  C   UNL     1       3.132   4.639  17.728  0.00  0.00    +0.000 A 
ATOM      9  C   UNL     1       3.933   4.031  16.760  0.00  0.00    +0.000 A 
ATOM     10  C   UNL     1       5.204   4.530  16.494  0.00  0.00    +0.000 A 
ATOM     11 CL   UNL     1       6.143   3.726  15.288  0.00  0.00    +0.000 Cl
ATOM     12  C   UNL     1       5.670   5.637  17.207  0.00  0.00    +0.000 A 
ATOM     13 CL   UNL     1       7.269   6.259  16.992  0.00  0.00    +0.000 Cl
ATOM     14  C   UNL     1       4.831   6.279  18.133  0.00  0.00    +0.000 A 
ENDBRANCH   6   7
BRANCH   1  15
ATOM     15  C   UNL     1       1.202   8.149  21.293  0.00  0.00    +0.000 C 
BRANCH  15  16
ATOM     16  C   UNL     1       1.203   9.443  22.115  0.00  0.00    +0.000 C 
BRANCH  16  18
ATOM     17  C   UNL     1      -0.912  10.537  22.947  0.00  0.00    +0.000 C 
ATOM     18  C   UNL     1       0.119   9.448  23.194  0.00  0.00    +0.000 C 
ENDBRANCH  16  18
ENDBRANCH  15  16
ENDBRANCH   1  15
TORSDOF 4
ENDMDL
MODEL 5
REMARK VINA RESULT:      -6.6      2.478      3.098
REMARK  Name = 
REMARK  5 active torsions:
REMARK  status: ('A' for Active; 'I' for Inactive)
REMARK    1  A    between atoms: C_1  and  C_2
REMARK    2  A    between atoms: C_2  and  C_3
REMARK    3  A    between atoms: C_3  and  C_4
REMARK    4  A    between atoms: C_4  and  N_5
REMARK    5  A    between atoms: N_10  and  C_11
REMARK                            x       y       z     vdW  Elec       q    Type
REMARK                         _______ _______ _______ _____ _____    ______ ____
ROOT
ATOM      1  N   UNL     1       6.279   5.088  16.389  0.00  0.00    +0.000 N 
ATOM      2  C   UNL     1       7.518   4.612  16.977  0.00  0.00    +0.000 C 
ATOM      3  C   UNL     1       7.535   5.309  18.331  0.00  0.00    +0.000 C 
ATOM      4  C   UNL     1       6.062   5.463  18.690  0.00  0.00    +0.000 C 
ATOM      5  C   UNL     1       5.401   5.588  17.326  0.00  0.00    +0.000 C 
ATOM      6  N   UNL     1       4.212   6.055  17.079  0.00  0.00    +0.000 NA
ENDROOT
BRANCH   6   7
ATOM      7  C   UNL     1       3.361   6.570  18.073  0.00  0.00    +0.000 A 
ATOM      8  C   UNL     1       2.936   5.847  19.193  0.00  0.00    +0.000 A 
ATOM      9  C   UNL     1       2.167   6.441  20.195  0.00  0.00    +0.000 A 
ATOM     10  C   UNL     1       1.716   7.749  20.043  0.00  0.00    +0.000 A 
ATOM     11 CL   UNL     1       0.764   8.420  21.318  0.00  0.00    +0.000 Cl
ATOM     12  C   UNL     1       2.034   8.455  18.879  0.00  0.00    +0.000 A 
ATOM     13 CL   UNL     1       1.439  10.050  18.583  0.00  0.00    +0.000 Cl
ATOM     14  C   UNL     1       2.862   7.868  17.908  0.00  0.00    +0.000 A 
ENDBRANCH   6   7
BRANCH   1  15
ATOM     15  C   UNL     1       6.122   5.150  14.947  0.00  0.00    +0.000 C 
BRANCH  15  16
ATOM     16  C   UNL     1       5.977   3.752  14.335  0.00  0.00    +0.000 C 
BRANCH  16  18
ATOM     17  C   UNL     1       5.179   3.253  11.996  0.00  0.00    +0.000 C 
ATOM     18  C   UNL     1       6.343   3.726  12.851  0.00  0.00    +0.000 C 
ENDBRANCH  16  18
ENDBRANCH  15  16
ENDBRANCH   1  15
TORSDOF 4
ENDMDL
MODEL 6
REMARK VINA RESULT:      -6.4      4.801      7.951
REMARK  Name = 
REMARK  5 active torsions:
REMARK  status: ('A' for Active; 'I' for Inactive)
REMARK    1  A    between atoms: C_1  and  C_2
REMARK    2  A    between atoms: C_2  and  C_3
REMARK    3  A    between atoms: C_3  and  C_4
REMARK    4  A    between atoms: C_4  and  N_5
REMARK    5  A    between atoms: N_10  and  C_11
REMARK                            x       y       z     vdW  Elec       q    Type
REMARK                         _______ _______ _______ _____ _____    ______ ____
ROOT
ATOM      1  N   UNL     1       1.292   8.783  20.056  0.00  0.00    +0.000 N 
ATOM      2  C   UNL     1       0.730   9.973  19.443  0.00  0.00    +0.000 C 
ATOM      3  C   UNL     1       1.573  10.131  18.184  0.00  0.00    +0.000 C 
ATOM      4  C   UNL     1       1.959   8.704  17.812  0.00  0.00    +0.000 C 
ATOM      5  C   UNL     1       2.010   8.013  19.166  0.00  0.00    +0.000 C 
ATOM      6  N   UNL     1       2.596   6.884  19.441  0.00  0.00    +0.000 NA
ENDROOT
BRANCH   6   7
ATOM      7  C   UNL     1       3.331   6.144  18.497  0.00  0.00    +0.000 A 
ATOM      8  C   UNL     1       4.202   6.714  17.561  0.00  0.00    +0.000 A 
ATOM      9  C   UNL     1       4.976   5.922  16.711  0.00  0.00    +0.000 A 
ATOM     10  C   UNL     1       4.813   4.540  16.707  0.00  0.00    +0.000 A 
ATOM     11 CL   UNL     1       5.799   3.622  15.627  0.00  0.00    +0.000 Cl
ATOM     12  C   UNL     1       3.867   3.957  17.555  0.00  0.00    +0.000 A 
ATOM     13 CL   UNL     1       3.549   2.258  17.543  0.00  0.00    +0.000 Cl
ATOM     14  C   UNL     1       3.141   4.758  18.450  0.00  0.00    +0.000 A 
ENDBRANCH   6   7
BRANCH   1  15
ATOM     15  C   UNL     1       1.205   8.580  21.490  0.00  0.00    +0.000 C 
BRANCH  15  16
ATOM     16  C   UNL     1      -0.219   8.812  22.007  0.00  0.00    +0.000 C 
BRANCH  16  18
ATOM     17  C   UNL     1      -1.170  10.904  23.045  0.00  0.00    +0.000 C 
ATOM     18  C   UNL     1      -0.251   9.710  23.244  0.00  0.00    +0.000 C 
ENDBRANCH  16  18
ENDBRANCH  15  16
ENDBRANCH   1  15
TORSDOF 4
ENDMDL
MODEL 7
REMARK VINA RESULT:      -6.4      2.532      3.216
REMARK  Name = 
REMARK  5 active torsions:
REMARK  status: ('A' for Active; 'I' for Inactive)
REMARK    1  A    between atoms: C_1  and  C_2
REMARK    2  A    between atoms: C_2  and  C_3
REMARK    3  A    between atoms: C_3  and  C_4
REMARK    4  A    between atoms: C_4  and  N_5
REMARK    5  A    between atoms: N_10  and  C_11
REMARK                            x       y       z     vdW  Elec       q    Type
REMARK                         _______ _______ _______ _____ _____    ______ ____
ROOT
ATOM      1  N   UNL     1       6.091   4.403  16.888  0.00  0.00    +0.000 N 
ATOM      2  C   UNL     1       7.493   4.518  17.242  0.00  0.00    +0.000 C 
ATOM      3  C   UNL     1       7.529   5.807  18.054  0.00  0.00    +0.000 C 
ATOM      4  C   UNL     1       6.155   5.873  18.710  0.00  0.00    +0.000 C 
ATOM      5  C   UNL     1       5.271   5.160  17.698  0.00  0.00    +0.000 C 
ATOM      6  N   UNL     1       3.974   5.223  17.619  0.00  0.00    +0.000 NA
ENDROOT
BRANCH   6   7
ATOM      7  C   UNL     1       3.185   6.026  18.462  0.00  0.00    +0.000 A 
ATOM      8  C   UNL     1       2.648   5.593  19.680  0.00  0.00    +0.000 A 
ATOM      9  C   UNL     1       1.951   6.464  20.519  0.00  0.00    +0.000 A 
ATOM     10  C   UNL     1       1.685   7.765  20.105  0.00  0.00    +0.000 A 
ATOM     11 CL   UNL     1       0.814   8.788  21.190  0.00  0.00    +0.000 Cl
ATOM     12  C   UNL     1       2.115   8.187  18.844  0.00  0.00    +0.000 A 
ATOM     13 CL   UNL     1       1.746   9.759  18.227  0.00  0.00    +0.000 Cl
ATOM     14  C   UNL     1       2.870   7.322  18.036  0.00  0.00    +0.000 A 
ENDBRANCH   6   7
BRANCH   1  15
ATOM     15  C   UNL     1       5.687   3.683  15.694  0.00  0.00    +0.000 C 
BRANCH  15  16
ATOM     16  C   UNL     1       5.708   4.587  14.457  0.00  0.00    +0.000 C 
BRANCH  16  18
ATOM     17  C   UNL     1       7.641   5.035  12.900  0.00  0.00    +0.000 C 
ATOM     18  C   UNL     1       6.593   4.027  13.342  0.00  0.00    +0.000 C 
ENDBRANCH  16  18
ENDBRANCH  15  16
ENDBRANCH   1  15
TORSDOF 4
ENDMDL
MODEL 8
REMARK VINA RESULT:      -6.4      1.463      1.713
REMARK  Name = 
REMARK  5 active torsions:
REMARK  status: ('A' for Active; 'I' for Inactive)
REMARK    1  A    between atoms: C_1  and  C_2
REMARK    2  A    between atoms: C_2  and  C_3
REMARK    3  A    between atoms: C_3  and  C_4
REMARK    4  A    between atoms: C_4  and  N_5
REMARK    5  A    between atoms: N_10  and  C_11
REMARK                            x       y       z     vdW  Elec       q    Type
REMARK                         _______ _______ _______ _____ _____    ______ ____
ROOT
ATOM      1  N   UNL     1       5.843   4.744  15.503  0.00  0.00    +0.000 N 
ATOM      2  C   UNL     1       6.066   6.166  15.318  0.00  0.00    +0.000 C 
ATOM      3  C   UNL     1       4.974   6.791  16.177  0.00  0.00    +0.000 C 
ATOM      4  C   UNL     1       4.763   5.785  17.302  0.00  0.00    +0.000 C 
ATOM      5  C   UNL     1       5.099   4.463  16.629  0.00  0.00    +0.000 C 
ATOM      6  N   UNL     1       4.774   3.273  17.046  0.00  0.00    +0.000 NA
ENDROOT
BRANCH   6   7
ATOM      7  C   UNL     1       3.998   3.043  18.196  0.00  0.00    +0.000 A 
ATOM      8  C   UNL     1       4.520   2.962  19.492  0.00  0.00    +0.000 A 
ATOM      9  C   UNL     1       3.689   2.824  20.604  0.00  0.00    +0.000 A 
ATOM     10  C   UNL     1       2.318   2.656  20.433  0.00  0.00    +0.000 A 
ATOM     11 CL   UNL     1       1.350   2.486  21.852  0.00  0.00    +0.000 Cl
ATOM     12  C   UNL     1       1.787   2.621  19.141  0.00  0.00    +0.000 A 
ATOM     13 CL   UNL     1       0.108   2.330  18.848  0.00  0.00    +0.000 Cl
ATOM     14  C   UNL     1       2.624   2.824  18.033  0.00  0.00    +0.000 A 
ENDBRANCH   6   7
BRANCH   1  15
ATOM     15  C   UNL     1       6.247   3.794  14.483  0.00  0.00    +0.000 C 
BRANCH  15  16
ATOM     16  C   UNL     1       5.791   4.237  13.088  0.00  0.00    +0.000 C 
BRANCH  16  18
ATOM     17  C   UNL     1       4.328   3.119  11.365  0.00  0.00    +0.000 C 
ATOM     18  C   UNL     1       5.645   3.061  12.123  0.00  0.00    +0.000 C 
ENDBRANCH  16  18
ENDBRANCH  15  16
ENDBRANCH   1  15
TORSDOF 4
ENDMDL
MODEL 9
REMARK VINA RESULT:      -6.3      3.432      6.638
REMARK  Name = 
REMARK  5 active torsions:
REMARK  status: ('A' for Active; 'I' for Inactive)
REMARK    1  A    between atoms: C_1  and  C_2
REMARK    2  A    between atoms: C_2  and  C_3
REMARK    3  A    between atoms: C_3  and  C_4
REMARK    4  A    between atoms: C_4  and  N_5
REMARK    5  A    between atoms: N_10  and  C_11
REMARK                            x       y       z     vdW  Elec       q    Type
REMARK                         _______ _______ _______ _____ _____    ______ ____
ROOT
ATOM      1  N   UNL     1       2.782   5.121  19.558  0.00  0.00    +0.000 N 
ATOM      2  C   UNL     1       1.951   6.281  19.822  0.00  0.00    +0.000 C 
ATOM      3  C   UNL     1       2.679   7.391  19.074  0.00  0.00    +0.000 C 
ATOM      4  C   UNL     1       3.341   6.679  17.901  0.00  0.00    +0.000 C 
ATOM      5  C   UNL     1       3.603   5.290  18.464  0.00  0.00    +0.000 C 
ATOM      6  N   UNL     1       4.430   4.403  17.990  0.00  0.00    +0.000 NA
ENDROOT
BRANCH   6   7
ATOM      7  C   UNL     1       5.258   4.634  16.878  0.00  0.00    +0.000 A 
ATOM      8  C   UNL     1       6.451   5.364  16.927  0.00  0.00    +0.000 A 
ATOM      9  C   UNL     1       7.280   5.481  15.809  0.00  0.00    +0.000 A 
ATOM     10  C   UNL     1       6.875   4.957  14.585  0.00  0.00    +0.000 A 
ATOM     11 CL   UNL     1       7.946   5.143  13.243  0.00  0.00    +0.000 Cl
ATOM     12  C   UNL     1       5.635   4.322  14.486  0.00  0.00    +0.000 A 
ATOM     13 CL   UNL     1       5.029   3.724  12.981  0.00  0.00    +0.000 Cl
ATOM     14  C   UNL     1       4.839   4.154  15.631  0.00  0.00    +0.000 A 
ENDBRANCH   6   7
BRANCH   1  15
ATOM     15  C   UNL     1       2.811   4.006  20.487  0.00  0.00    +0.000 C 
BRANCH  15  16
ATOM     16  C   UNL     1       1.405   3.458  20.752  0.00  0.00    +0.000 C 
BRANCH  16  18
ATOM     17  C   UNL     1       1.802   1.921  18.792  0.00  0.00    +0.000 C 
ATOM     18  C   UNL     1       0.793   2.800  19.515  0.00  0.00    +0.000 C 
ENDBRANCH  16  18
ENDBRANCH  15  16
ENDBRANCH   1  15
TORSDOF 4
ENDMDL
