MODEL 1
REMARK VINA RESULT:      -8.0      0.000      0.000
REMARK  Name = 
REMARK  11 active torsions:
REMARK  status: ('A' for Active; 'I' for Inactive)
REMARK    1  A    between atoms: C_1  and  C_2
REMARK    2  A    between atoms: C_7  and  N_8
REMARK    3  A    between atoms: C_10  and  C_11
REMARK    4  A    between atoms: C_11  and  N_12
REMARK    5  A    between atoms: N_15  and  C_16
REMARK    6  A    between atoms: C_16  and  C_17
REMARK    7  A    between atoms: C_16  and  C_21
REMARK    8  A    between atoms: C_17  and  C_18
REMARK    9  A    between atoms: C_18  and  C_19
REMARK   10  A    between atoms: C_18  and  C_20
REMARK   11  A    between atoms: N_23  and  O_24
REMARK                            x       y       z     vdW  Elec       q    Type
REMARK                         _______ _______ _______ _____ _____    ______ ____
ROOT
ATOM      1  N   UNL     1       8.233   7.719  18.391  0.00  0.00    +0.000 N 
ATOM      2  C   UNL     1       8.459   9.069  18.299  0.00  0.00    +0.000 C 
ATOM      3  O   UNL     1       7.998   9.789  17.429  0.00  0.00    +0.000 OA
ATOM      4  N   UNL     1       9.221   9.519  19.336  0.00  0.00    +0.000 N 
ATOM      5  H   UNL     1       8.180   7.381  19.339  0.00  0.00    +0.000 HD
ATOM      6  H   UNL     1       9.858   8.863  19.777  0.00  0.00    +0.000 HD
ENDROOT
BRANCH   1   7
ATOM      7  C   UNL     1       7.301   7.129  17.458  0.00  0.00    +0.000 C 
BRANCH   7  10
ATOM      8  N   UNL     1       4.822   4.886  18.931  0.00  0.00    +0.000 N 
ATOM      9  C   UNL     1       5.153   5.734  17.895  0.00  0.00    +0.000 A 
ATOM     10  C   UNL     1       6.443   6.146  18.157  0.00  0.00    +0.000 A 
ATOM     11  N   UNL     1       6.885   5.509  19.283  0.00  0.00    +0.000 NA
ATOM     12  N   UNL     1       5.894   4.767  19.754  0.00  0.00    +0.000 NA
BRANCH   8  19
ATOM     13  C   UNL     1       2.368   6.275  20.019  0.00  0.00    +0.000 C 
ATOM     14  C   UNL     1       2.462   4.804  19.706  0.00  0.00    +0.000 A 
ATOM     15  C   UNL     1       1.317   4.018  19.941  0.00  0.00    +0.000 A 
ATOM     16  C   UNL     1       1.287   2.664  19.611  0.00  0.00    +0.000 A 
ATOM     17  C   UNL     1       2.399   2.069  19.028  0.00  0.00    +0.000 A 
ATOM     18  C   UNL     1       3.549   2.823  18.789  0.00  0.00    +0.000 A 
ATOM     19  C   UNL     1       3.603   4.184  19.144  0.00  0.00    +0.000 A 
ENDBRANCH   8  19
ENDBRANCH   7  10
ENDBRANCH   1   7
BRANCH   4  20
ATOM     20  C   UNL     1       9.453  10.935  19.588  0.00  0.00    +0.000 C 
BRANCH  20  21
ATOM     21  C   UNL     1      10.825  11.326  19.012  0.00  0.00    +0.000 C 
ATOM     22  O   UNL     1      11.835  11.451  19.709  0.00  0.00    +0.000 OA
ATOM     23  N   UNL     1      10.862  11.517  17.653  0.00  0.00    +0.000 N 
ATOM     24  H   UNL     1      10.048  11.602  17.054  0.00  0.00    +0.000 HD
BRANCH  23  25
ATOM     25  O   UNL     1      12.094  11.955  17.114  0.00  0.00    +0.000 OA
ATOM     26  H   UNL     1      12.091  11.551  16.219  0.00  0.00    +0.000 HD
ENDBRANCH  23  25
ENDBRANCH  20  21
BRANCH  20  27
ATOM     27  C   UNL     1       9.323  11.280  21.089  0.00  0.00    +0.000 C 
BRANCH  27  28
ATOM     28  C   UNL     1       9.329  12.786  21.445  0.00  0.00    +0.000 C 
ATOM     29  C   UNL     1       8.503  13.578  20.423  0.00  0.00    +0.000 C 
ATOM     30  C   UNL     1       8.786  13.095  22.843  0.00  0.00    +0.000 C 
ENDBRANCH  27  28
ENDBRANCH  20  27
ENDBRANCH   4  20
TORSDOF 8
ENDMDL
MODEL 2
REMARK VINA RESULT:      -7.5      3.101      9.868
REMARK  Name = 
REMARK  11 active torsions:
REMARK  status: ('A' for Active; 'I' for Inactive)
REMARK    1  A    between atoms: C_1  and  C_2
REMARK    2  A    between atoms: C_7  and  N_8
REMARK    3  A    between atoms: C_10  and  C_11
REMARK    4  A    between atoms: C_11  and  N_12
REMARK    5  A    between atoms: N_15  and  C_16
REMARK    6  A    between atoms: C_16  and  C_17
REMARK    7  A    between atoms: C_16  and  C_21
REMARK    8  A    between atoms: C_17  and  C_18
REMARK    9  A    between atoms: C_18  and  C_19
REMARK   10  A    between atoms: C_18  and  C_20
REMARK   11  A    between atoms: N_23  and  O_24
REMARK                            x       y       z     vdW  Elec       q    Type
REMARK                         _______ _______ _______ _____ _____    ______ ____
ROOT
ATOM      1  N   UNL     1       8.019   8.558  17.639  0.00  0.00    +0.000 N 
ATOM      2  C   UNL     1       7.651   7.236  17.640  0.00  0.00    +0.000 C 
ATOM      3  O   UNL     1       7.912   6.447  18.533  0.00  0.00    +0.000 OA
ATOM      4  N   UNL     1       6.907   6.923  16.541  0.00  0.00    +0.000 N 
ATOM      5  H   UNL     1       7.342   9.165  17.205  0.00  0.00    +0.000 HD
ATOM      6  H   UNL     1       7.047   7.475  15.701  0.00  0.00    +0.000 HD
ENDROOT
BRANCH   1   7
ATOM      7  C   UNL     1       8.665   9.077  18.822  0.00  0.00    +0.000 C 
BRANCH   7  10
ATOM      8  N   UNL     1       9.826  12.538  18.713  0.00  0.00    +0.000 N 
ATOM      9  C   UNL     1      10.004  11.268  19.218  0.00  0.00    +0.000 A 
ATOM     10  C   UNL     1       9.035  10.494  18.613  0.00  0.00    +0.000 A 
ATOM     11  N   UNL     1       8.344  11.274  17.727  0.00  0.00    +0.000 NA
ATOM     12  N   UNL     1       8.816  12.509  17.808  0.00  0.00    +0.000 NA
BRANCH   8  19
ATOM     13  C   UNL     1      11.947  13.581  16.830  0.00  0.00    +0.000 C 
ATOM     14  C   UNL     1      11.601  14.189  18.165  0.00  0.00    +0.000 A 
ATOM     15  C   UNL     1      12.325  15.330  18.563  0.00  0.00    +0.000 A 
ATOM     16  C   UNL     1      12.022  16.003  19.745  0.00  0.00    +0.000 A 
ATOM     17  C   UNL     1      10.981  15.557  20.550  0.00  0.00    +0.000 A 
ATOM     18  C   UNL     1      10.252  14.425  20.183  0.00  0.00    +0.000 A 
ATOM     19  C   UNL     1      10.565  13.718  19.006  0.00  0.00    +0.000 A 
ENDBRANCH   8  19
ENDBRANCH   7  10
ENDBRANCH   1   7
BRANCH   4  20
ATOM     20  C   UNL     1       6.230   5.643  16.384  0.00  0.00    +0.000 C 
BRANCH  20  21
ATOM     21  C   UNL     1       6.730   4.969  15.095  0.00  0.00    +0.000 C 
ATOM     22  O   UNL     1       7.719   5.362  14.471  0.00  0.00    +0.000 OA
ATOM     23  N   UNL     1       6.007   3.877  14.682  0.00  0.00    +0.000 N 
ATOM     24  H   UNL     1       5.096   3.610  15.040  0.00  0.00    +0.000 HD
BRANCH  23  25
ATOM     25  O   UNL     1       6.400   3.292  13.456  0.00  0.00    +0.000 OA
ATOM     26  H   UNL     1       6.549   2.353  13.706  0.00  0.00    +0.000 HD
ENDBRANCH  23  25
ENDBRANCH  20  21
BRANCH  20  27
ATOM     27  C   UNL     1       4.694   5.800  16.412  0.00  0.00    +0.000 C 
BRANCH  27  28
ATOM     28  C   UNL     1       4.070   6.162  17.781  0.00  0.00    +0.000 C 
ATOM     29  C   UNL     1       3.450   7.565  17.729  0.00  0.00    +0.000 C 
ATOM     30  C   UNL     1       2.993   5.180  18.252  0.00  0.00    +0.000 C 
ENDBRANCH  27  28
ENDBRANCH  20  27
ENDBRANCH   4  20
TORSDOF 8
ENDMDL
MODEL 3
REMARK VINA RESULT:      -7.5      2.991      9.670
REMARK  Name = 
REMARK  11 active torsions:
REMARK  status: ('A' for Active; 'I' for Inactive)
REMARK    1  A    between atoms: C_1  and  C_2
REMARK    2  A    between atoms: C_7  and  N_8
REMARK    3  A    between atoms: C_10  and  C_11
REMARK    4  A    between atoms: C_11  and  N_12
REMARK    5  A    between atoms: N_15  and  C_16
REMARK    6  A    between atoms: C_16  and  C_17
REMARK    7  A    between atoms: C_16  and  C_21
REMARK    8  A    between atoms: C_17  and  C_18
REMARK    9  A    between atoms: C_18  and  C_19
REMARK   10  A    between atoms: C_18  and  C_20
REMARK   11  A    between atoms: N_23  and  O_24
REMARK                            x       y       z     vdW  Elec       q    Type
REMARK                         _______ _______ _______ _____ _____    ______ ____
ROOT
ATOM      1  N   UNL     1       8.242   9.220  17.924  0.00  0.00    +0.000 N 
ATOM      2  C   UNL     1       7.887   7.897  17.991  0.00  0.00    +0.000 C 
ATOM      3  O   UNL     1       8.327   7.103  18.807  0.00  0.00    +0.000 OA
ATOM      4  N   UNL     1       6.937   7.587  17.063  0.00  0.00    +0.000 N 
ATOM      5  H   UNL     1       7.489   9.827  17.641  0.00  0.00    +0.000 HD
ATOM      6  H   UNL     1       6.902   8.144  16.216  0.00  0.00    +0.000 HD
ENDROOT
BRANCH   1   7
ATOM      7  C   UNL     1       9.113   9.735  18.956  0.00  0.00    +0.000 C 
BRANCH   7  10
ATOM      8  N   UNL     1       9.720  13.298  18.426  0.00  0.00    +0.000 N 
ATOM      9  C   UNL     1       9.121  12.322  19.195  0.00  0.00    +0.000 A 
ATOM     10  C   UNL     1       9.509  11.124  18.632  0.00  0.00    +0.000 A 
ATOM     11  N   UNL     1      10.366  11.384  17.599  0.00  0.00    +0.000 NA
ATOM     12  N   UNL     1      10.472  12.698  17.470  0.00  0.00    +0.000 NA
BRANCH   8  19
ATOM     13  C   UNL     1       7.240  14.844  17.659  0.00  0.00    +0.000 C 
ATOM     14  C   UNL     1       8.518  15.458  18.171  0.00  0.00    +0.000 A 
ATOM     15  C   UNL     1       8.557  16.860  18.298  0.00  0.00    +0.000 A 
ATOM     16  C   UNL     1       9.668  17.508  18.834  0.00  0.00    +0.000 A 
ATOM     17  C   UNL     1      10.762  16.767  19.265  0.00  0.00    +0.000 A 
ATOM     18  C   UNL     1      10.753  15.376  19.144  0.00  0.00    +0.000 A 
ATOM     19  C   UNL     1       9.648  14.710  18.578  0.00  0.00    +0.000 A 
ENDBRANCH   8  19
ENDBRANCH   7  10
ENDBRANCH   1   7
BRANCH   4  20
ATOM     20  C   UNL     1       6.247   6.304  17.038  0.00  0.00    +0.000 C 
BRANCH  20  21
ATOM     21  C   UNL     1       6.932   5.389  16.009  0.00  0.00    +0.000 C 
ATOM     22  O   UNL     1       7.828   4.595  16.307  0.00  0.00    +0.000 OA
ATOM     23  N   UNL     1       6.470   5.500  14.720  0.00  0.00    +0.000 N 
ATOM     24  H   UNL     1       5.870   6.243  14.377  0.00  0.00    +0.000 HD
BRANCH  23  25
ATOM     25  O   UNL     1       7.140   4.727  13.744  0.00  0.00    +0.000 OA
ATOM     26  H   UNL     1       6.828   3.816  13.942  0.00  0.00    +0.000 HD
ENDBRANCH  23  25
ENDBRANCH  20  21
BRANCH  20  27
ATOM     27  C   UNL     1       4.736   6.471  16.767  0.00  0.00    +0.000 C 
BRANCH  27  28
ATOM     28  C   UNL     1       3.784   5.972  17.881  0.00  0.00    +0.000 C 
ATOM     29  C   UNL     1       4.592   5.447  19.076  0.00  0.00    +0.000 C 
ATOM     30  C   UNL     1       2.813   7.040  18.392  0.00  0.00    +0.000 C 
ENDBRANCH  27  28
ENDBRANCH  20  27
ENDBRANCH   4  20
TORSDOF 8
ENDMDL
MODEL 4
REMARK VINA RESULT:      -7.4      1.011      1.168
REMARK  Name = 
REMARK  11 active torsions:
REMARK  status: ('A' for Active; 'I' for Inactive)
REMARK    1  A    between atoms: C_1  and  C_2
REMARK    2  A    between atoms: C_7  and  N_8
REMARK    3  A    between atoms: C_10  and  C_11
REMARK    4  A    between atoms: C_11  and  N_12
REMARK    5  A    between atoms: N_15  and  C_16
REMARK    6  A    between atoms: C_16  and  C_17
REMARK    7  A    between atoms: C_16  and  C_21
REMARK    8  A    between atoms: C_17  and  C_18
REMARK    9  A    between atoms: C_18  and  C_19
REMARK   10  A    between atoms: C_18  and  C_20
REMARK   11  A    between atoms: N_23  and  O_24
REMARK                            x       y       z     vdW  Elec       q    Type
REMARK                         _______ _______ _______ _____ _____    ______ ____
ROOT
ATOM      1  N   UNL     1       8.439   8.073  18.334  0.00  0.00    +0.000 N 
ATOM      2  C   UNL     1       8.560   9.437  18.417  0.00  0.00    +0.000 C 
ATOM      3  O   UNL     1       8.106  10.222  17.600  0.00  0.00    +0.000 OA
ATOM      4  N   UNL     1       9.204   9.814  19.558  0.00  0.00    +0.000 N 
ATOM      5  H   UNL     1       8.345   7.620  19.229  0.00  0.00    +0.000 HD
ATOM      6  H   UNL     1       9.858   9.158  19.971  0.00  0.00    +0.000 HD
ENDROOT
BRANCH   1   7
ATOM      7  C   UNL     1       7.631   7.534  17.265  0.00  0.00    +0.000 C 
BRANCH   7  10
ATOM      8  N   UNL     1       5.113   5.080  18.258  0.00  0.00    +0.000 N 
ATOM      9  C   UNL     1       5.550   5.978  17.307  0.00  0.00    +0.000 A 
ATOM     10  C   UNL     1       6.743   6.473  17.792  0.00  0.00    +0.000 A 
ATOM     11  N   UNL     1       7.034   5.838  18.967  0.00  0.00    +0.000 NA
ATOM     12  N   UNL     1       6.037   5.014  19.250  0.00  0.00    +0.000 NA
BRANCH   8  19
ATOM     13  C   UNL     1       2.367   6.335  18.366  0.00  0.00    +0.000 C 
ATOM     14  C   UNL     1       2.641   4.853  18.356  0.00  0.00    +0.000 A 
ATOM     15  C   UNL     1       1.529   3.990  18.403  0.00  0.00    +0.000 A 
ATOM     16  C   UNL     1       1.682   2.607  18.323  0.00  0.00    +0.000 A 
ATOM     17  C   UNL     1       2.951   2.057  18.182  0.00  0.00    +0.000 A 
ATOM     18  C   UNL     1       4.071   2.890  18.140  0.00  0.00    +0.000 A 
ATOM     19  C   UNL     1       3.933   4.287  18.249  0.00  0.00    +0.000 A 
ENDBRANCH   8  19
ENDBRANCH   7  10
ENDBRANCH   1   7
BRANCH   4  20
ATOM     20  C   UNL     1       9.299  11.202  19.989  0.00  0.00    +0.000 C 
BRANCH  20  21
ATOM     21  C   UNL     1      10.492  11.864  19.278  0.00  0.00    +0.000 C 
ATOM     22  O   UNL     1      10.875  13.009  19.534  0.00  0.00    +0.000 OA
ATOM     23  N   UNL     1      11.124  11.088  18.338  0.00  0.00    +0.000 N 
ATOM     24  H   UNL     1      10.761  10.220  17.958  0.00  0.00    +0.000 HD
BRANCH  23  25
ATOM     25  O   UNL     1      12.171  11.706  17.616  0.00  0.00    +0.000 OA
ATOM     26  H   UNL     1      12.804  10.966  17.482  0.00  0.00    +0.000 HD
ENDBRANCH  23  25
ENDBRANCH  20  21
BRANCH  20  27
ATOM     27  C   UNL     1       9.388  11.320  21.527  0.00  0.00    +0.000 C 
BRANCH  27  28
ATOM     28  C   UNL     1       8.386  12.293  22.195  0.00  0.00    +0.000 C 
ATOM     29  C   UNL     1       7.852  11.692  23.502  0.00  0.00    +0.000 C 
ATOM     30  C   UNL     1       8.974  13.672  22.506  0.00  0.00    +0.000 C 
ENDBRANCH  27  28
ENDBRANCH  20  27
ENDBRANCH   4  20
TORSDOF 8
ENDMDL
MODEL 5
REMARK VINA RESULT:      -7.4      5.403      9.302
REMARK  Name = 
REMARK  11 active torsions:
REMARK  status: ('A' for Active; 'I' for Inactive)
REMARK    1  A    between atoms: C_1  and  C_2
REMARK    2  A    between atoms: C_7  and  N_8
REMARK    3  A    between atoms: C_10  and  C_11
REMARK    4  A    between atoms: C_11  and  N_12
REMARK    5  A    between atoms: N_15  and  C_16
REMARK    6  A    between atoms: C_16  and  C_17
REMARK    7  A    between atoms: C_16  and  C_21
REMARK    8  A    between atoms: C_17  and  C_18
REMARK    9  A    between atoms: C_18  and  C_19
REMARK   10  A    between atoms: C_18  and  C_20
REMARK   11  A    between atoms: N_23  and  O_24
REMARK                            x       y       z     vdW  Elec       q    Type
REMARK                         _______ _______ _______ _____ _____    ______ ____
ROOT
ATOM      1  N   UNL     1       2.332   7.405  20.433  0.00  0.00    +0.000 N 
ATOM      2  C   UNL     1       2.691   6.089  20.288  0.00  0.00    +0.000 C 
ATOM      3  O   UNL     1       2.088   5.149  20.779  0.00  0.00    +0.000 OA
ATOM      4  N   UNL     1       3.780   5.955  19.478  0.00  0.00    +0.000 N 
ATOM      5  H   UNL     1       2.522   7.968  19.619  0.00  0.00    +0.000 HD
ATOM      6  H   UNL     1       4.430   6.732  19.424  0.00  0.00    +0.000 HD
ENDROOT
BRANCH   1   7
ATOM      7  C   UNL     1       1.096   7.692  21.124  0.00  0.00    +0.000 C 
BRANCH   7  10
ATOM      8  N   UNL     1       0.738  11.312  20.798  0.00  0.00    +0.000 N 
ATOM      9  C   UNL     1       0.917  10.100  20.166  0.00  0.00    +0.000 A 
ATOM     10  C   UNL     1       0.872   9.154  21.169  0.00  0.00    +0.000 A 
ATOM     11  N   UNL     1       0.611   9.785  22.353  0.00  0.00    +0.000 NA
ATOM     12  N   UNL     1       0.550  11.088  22.123  0.00  0.00    +0.000 NA
BRANCH   8  19
ATOM     13  C   UNL     1      -1.807  12.440  19.623  0.00  0.00    +0.000 C 
ATOM     14  C   UNL     1      -0.469  13.135  19.616  0.00  0.00    +0.000 A 
ATOM     15  C   UNL     1      -0.404  14.406  19.013  0.00  0.00    +0.000 A 
ATOM     16  C   UNL     1       0.772  15.154  19.028  0.00  0.00    +0.000 A 
ATOM     17  C   UNL     1       1.906  14.651  19.655  0.00  0.00    +0.000 A 
ATOM     18  C   UNL     1       1.870  13.391  20.254  0.00  0.00    +0.000 A 
ATOM     19  C   UNL     1       0.697  12.612  20.222  0.00  0.00    +0.000 A 
ENDBRANCH   8  19
ENDBRANCH   7  10
ENDBRANCH   1   7
BRANCH   4  20
ATOM     20  C   UNL     1       4.256   4.662  19.004  0.00  0.00    +0.000 C 
BRANCH  20  21
ATOM     21  C   UNL     1       5.794   4.686  18.951  0.00  0.00    +0.000 C 
ATOM     22  O   UNL     1       6.484   5.312  19.760  0.00  0.00    +0.000 OA
ATOM     23  N   UNL     1       6.361   3.945  17.944  0.00  0.00    +0.000 N 
ATOM     24  H   UNL     1       5.861   3.556  17.153  0.00  0.00    +0.000 HD
BRANCH  23  25
ATOM     25  O   UNL     1       7.769   4.018  17.829  0.00  0.00    +0.000 OA
ATOM     26  H   UNL     1       7.903   4.040  16.856  0.00  0.00    +0.000 HD
ENDBRANCH  23  25
ENDBRANCH  20  21
BRANCH  20  27
ATOM     27  C   UNL     1       3.625   4.280  17.647  0.00  0.00    +0.000 C 
BRANCH  27  28
ATOM     28  C   UNL     1       2.743   3.008  17.639  0.00  0.00    +0.000 C 
ATOM     29  C   UNL     1       3.401   1.899  18.470  0.00  0.00    +0.000 C 
ATOM     30  C   UNL     1       1.326   3.232  18.175  0.00  0.00    +0.000 C 
ENDBRANCH  27  28
ENDBRANCH  20  27
ENDBRANCH   4  20
TORSDOF 8
ENDMDL
MODEL 6
REMARK VINA RESULT:      -7.3      2.250      2.956
REMARK  Name = 
REMARK  11 active torsions:
REMARK  status: ('A' for Active; 'I' for Inactive)
REMARK    1  A    between atoms: C_1  and  C_2
REMARK    2  A    between atoms: C_7  and  N_8
REMARK    3  A    between atoms: C_10  and  C_11
REMARK    4  A    between atoms: C_11  and  N_12
REMARK    5  A    between atoms: N_15  and  C_16
REMARK    6  A    between atoms: C_16  and  C_17
REMARK    7  A    between atoms: C_16  and  C_21
REMARK    8  A    between atoms: C_17  and  C_18
REMARK    9  A    between atoms: C_18  and  C_19
REMARK   10  A    between atoms: C_18  and  C_20
REMARK   11  A    between atoms: N_23  and  O_24
REMARK                            x       y       z     vdW  Elec       q    Type
REMARK                         _______ _______ _______ _____ _____    ______ ____
ROOT
ATOM      1  N   UNL     1       7.866   8.928  17.738  0.00  0.00    +0.000 N 
ATOM      2  C   UNL     1       8.706   9.732  18.466  0.00  0.00    +0.000 C 
ATOM      3  O   UNL     1       9.477   9.331  19.322  0.00  0.00    +0.000 OA
ATOM      4  N   UNL     1       8.612  11.036  18.076  0.00  0.00    +0.000 N 
ATOM      5  H   UNL     1       7.728   9.242  16.790  0.00  0.00    +0.000 HD
ATOM      6  H   UNL     1       7.736  11.347  17.669  0.00  0.00    +0.000 HD
ENDROOT
BRANCH   1   7
ATOM      7  C   UNL     1       7.978   7.499  17.920  0.00  0.00    +0.000 C 
BRANCH   7  10
ATOM      8  N   UNL     1       4.899   5.613  17.366  0.00  0.00    +0.000 N 
ATOM      9  C   UNL     1       5.870   6.019  18.258  0.00  0.00    +0.000 A 
ATOM     10  C   UNL     1       6.709   6.842  17.535  0.00  0.00    +0.000 A 
ATOM     11  N   UNL     1       6.212   6.969  16.268  0.00  0.00    +0.000 NA
ATOM     12  N   UNL     1       5.131   6.210  16.170  0.00  0.00    +0.000 NA
BRANCH   8  19
ATOM     13  C   UNL     1       2.252   6.691  18.348  0.00  0.00    +0.000 C 
ATOM     14  C   UNL     1       2.559   5.234  18.112  0.00  0.00    +0.000 A 
ATOM     15  C   UNL     1       1.532   4.307  18.372  0.00  0.00    +0.000 A 
ATOM     16  C   UNL     1       1.700   2.948  18.112  0.00  0.00    +0.000 A 
ATOM     17  C   UNL     1       2.896   2.488  17.575  0.00  0.00    +0.000 A 
ATOM     18  C   UNL     1       3.934   3.385  17.313  0.00  0.00    +0.000 A 
ATOM     19  C   UNL     1       3.788   4.757  17.599  0.00  0.00    +0.000 A 
ENDBRANCH   8  19
ENDBRANCH   7  10
ENDBRANCH   1   7
BRANCH   4  20
ATOM     20  C   UNL     1       9.524  12.068  18.550  0.00  0.00    +0.000 C 
BRANCH  20  21
ATOM     21  C   UNL     1       9.186  12.399  20.014  0.00  0.00    +0.000 C 
ATOM     22  O   UNL     1       8.351  13.248  20.336  0.00  0.00    +0.000 OA
ATOM     23  N   UNL     1       9.869  11.670  20.956  0.00  0.00    +0.000 N 
ATOM     24  H   UNL     1      10.682  11.092  20.771  0.00  0.00    +0.000 HD
BRANCH  23  25
ATOM     25  O   UNL     1       9.633  12.014  22.308  0.00  0.00    +0.000 OA
ATOM     26  H   UNL     1      10.347  11.530  22.779  0.00  0.00    +0.000 HD
ENDBRANCH  23  25
ENDBRANCH  20  21
BRANCH  20  27
ATOM     27  C   UNL     1       9.498  13.317  17.642  0.00  0.00    +0.000 C 
BRANCH  27  28
ATOM     28  C   UNL     1      10.874  13.933  17.289  0.00  0.00    +0.000 C 
ATOM     29  C   UNL     1      11.368  14.823  18.437  0.00  0.00    +0.000 C 
ATOM     30  C   UNL     1      11.958  12.895  16.986  0.00  0.00    +0.000 C 
ENDBRANCH  27  28
ENDBRANCH  20  27
ENDBRANCH   4  20
TORSDOF 8
ENDMDL
MODEL 7
REMARK VINA RESULT:      -7.3      5.515     10.057
REMARK  Name = 
REMARK  11 active torsions:
REMARK  status: ('A' for Active; 'I' for Inactive)
REMARK    1  A    between atoms: C_1  and  C_2
REMARK    2  A    between atoms: C_7  and  N_8
REMARK    3  A    between atoms: C_10  and  C_11
REMARK    4  A    between atoms: C_11  and  N_12
REMARK    5  A    between atoms: N_15  and  C_16
REMARK    6  A    between atoms: C_16  and  C_17
REMARK    7  A    between atoms: C_16  and  C_21
REMARK    8  A    between atoms: C_17  and  C_18
REMARK    9  A    between atoms: C_18  and  C_19
REMARK   10  A    between atoms: C_18  and  C_20
REMARK   11  A    between atoms: N_23  and  O_24
REMARK                            x       y       z     vdW  Elec       q    Type
REMARK                         _______ _______ _______ _____ _____    ______ ____
ROOT
ATOM      1  N   UNL     1       1.469   8.938  19.306  0.00  0.00    +0.000 N 
ATOM      2  C   UNL     1       1.821   7.716  19.823  0.00  0.00    +0.000 C 
ATOM      3  O   UNL     1       1.505   7.318  20.931  0.00  0.00    +0.000 OA
ATOM      4  N   UNL     1       2.525   6.976  18.919  0.00  0.00    +0.000 N 
ATOM      5  H   UNL     1       1.303   8.924  18.312  0.00  0.00    +0.000 HD
ATOM      6  H   UNL     1       3.060   7.472  18.214  0.00  0.00    +0.000 HD
ENDROOT
BRANCH   1   7
ATOM      7  C   UNL     1       0.575   9.764  20.084  0.00  0.00    +0.000 C 
BRANCH   7  10
ATOM      8  N   UNL     1       1.813  13.164  19.580  0.00  0.00    +0.000 N 
ATOM      9  C   UNL     1       1.283  12.023  19.014  0.00  0.00    +0.000 A 
ATOM     10  C   UNL     1       1.046  11.167  20.070  0.00  0.00    +0.000 A 
ATOM     11  N   UNL     1       1.369  11.809  21.233  0.00  0.00    +0.000 NA
ATOM     12  N   UNL     1       1.848  13.005  20.926  0.00  0.00    +0.000 NA
BRANCH   8  19
ATOM     13  C   UNL     1       0.065  15.629  19.537  0.00  0.00    +0.000 C 
ATOM     14  C   UNL     1       1.403  15.505  18.853  0.00  0.00    +0.000 A 
ATOM     15  C   UNL     1       1.869  16.625  18.138  0.00  0.00    +0.000 A 
ATOM     16  C   UNL     1       3.127  16.628  17.538  0.00  0.00    +0.000 A 
ATOM     17  C   UNL     1       3.951  15.514  17.649  0.00  0.00    +0.000 A 
ATOM     18  C   UNL     1       3.510  14.387  18.346  0.00  0.00    +0.000 A 
ATOM     19  C   UNL     1       2.230  14.360  18.933  0.00  0.00    +0.000 A 
ENDBRANCH   8  19
ENDBRANCH   7  10
ENDBRANCH   1   7
BRANCH   4  20
ATOM     20  C   UNL     1       2.858   5.575  19.136  0.00  0.00    +0.000 C 
BRANCH  20  21
ATOM     21  C   UNL     1       4.325   5.343  18.736  0.00  0.00    +0.000 C 
ATOM     22  O   UNL     1       4.979   6.157  18.080  0.00  0.00    +0.000 OA
ATOM     23  N   UNL     1       4.877   4.164  19.174  0.00  0.00    +0.000 N 
ATOM     24  H   UNL     1       4.356   3.383  19.559  0.00  0.00    +0.000 HD
BRANCH  23  25
ATOM     25  O   UNL     1       6.198   3.894  18.749  0.00  0.00    +0.000 OA
ATOM     26  H   UNL     1       6.101   3.833  17.773  0.00  0.00    +0.000 HD
ENDBRANCH  23  25
ENDBRANCH  20  21
BRANCH  20  27
ATOM     27  C   UNL     1       1.887   4.632  18.392  0.00  0.00    +0.000 C 
BRANCH  27  28
ATOM     28  C   UNL     1       1.135   3.599  19.265  0.00  0.00    +0.000 C 
ATOM     29  C   UNL     1       1.610   2.177  18.935  0.00  0.00    +0.000 C 
ATOM     30  C   UNL     1       1.301   3.822  20.771  0.00  0.00    +0.000 C 
ENDBRANCH  27  28
ENDBRANCH  20  27
ENDBRANCH   4  20
TORSDOF 8
ENDMDL
MODEL 8
REMARK VINA RESULT:      -7.2      1.235      1.911
REMARK  Name = 
REMARK  11 active torsions:
REMARK  status: ('A' for Active; 'I' for Inactive)
REMARK    1  A    between atoms: C_1  and  C_2
REMARK    2  A    between atoms: C_7  and  N_8
REMARK    3  A    between atoms: C_10  and  C_11
REMARK    4  A    between atoms: C_11  and  N_12
REMARK    5  A    between atoms: N_15  and  C_16
REMARK    6  A    between atoms: C_16  and  C_17
REMARK    7  A    between atoms: C_16  and  C_21
REMARK    8  A    between atoms: C_17  and  C_18
REMARK    9  A    between atoms: C_18  and  C_19
REMARK   10  A    between atoms: C_18  and  C_20
REMARK   11  A    between atoms: N_23  and  O_24
REMARK                            x       y       z     vdW  Elec       q    Type
REMARK                         _______ _______ _______ _____ _____    ______ ____
ROOT
ATOM      1  N   UNL     1       8.200   7.342  18.261  0.00  0.00    +0.000 N 
ATOM      2  C   UNL     1       8.308   8.705  18.151  0.00  0.00    +0.000 C 
ATOM      3  O   UNL     1       7.904   9.356  17.202  0.00  0.00    +0.000 OA
ATOM      4  N   UNL     1       8.876   9.252  19.263  0.00  0.00    +0.000 N 
ATOM      5  H   UNL     1       8.050   7.023  19.205  0.00  0.00    +0.000 HD
ATOM      6  H   UNL     1       9.506   8.673  19.808  0.00  0.00    +0.000 HD
ENDROOT
BRANCH   1   7
ATOM      7  C   UNL     1       7.464   6.641  17.234  0.00  0.00    +0.000 C 
BRANCH   7  10
ATOM      8  N   UNL     1       4.161   5.645  18.434  0.00  0.00    +0.000 N 
ATOM      9  C   UNL     1       5.517   5.395  18.420  0.00  0.00    +0.000 A 
ATOM     10  C   UNL     1       6.069   6.418  17.677  0.00  0.00    +0.000 A 
ATOM     11  N   UNL     1       5.074   7.283  17.317  0.00  0.00    +0.000 NA
ATOM     12  N   UNL     1       3.924   6.799  17.762  0.00  0.00    +0.000 NA
BRANCH   8  19
ATOM     13  C   UNL     1       2.866   3.281  17.068  0.00  0.00    +0.000 C 
ATOM     14  C   UNL     1       2.473   3.821  18.419  0.00  0.00    +0.000 A 
ATOM     15  C   UNL     1       1.420   3.172  19.093  0.00  0.00    +0.000 A 
ATOM     16  C   UNL     1       1.039   3.554  20.378  0.00  0.00    +0.000 A 
ATOM     17  C   UNL     1       1.710   4.587  21.022  0.00  0.00    +0.000 A 
ATOM     18  C   UNL     1       2.753   5.251  20.375  0.00  0.00    +0.000 A 
ATOM     19  C   UNL     1       3.130   4.894  19.065  0.00  0.00    +0.000 A 
ENDBRANCH   8  19
ENDBRANCH   7  10
ENDBRANCH   1   7
BRANCH   4  20
ATOM     20  C   UNL     1       8.937  10.689  19.492  0.00  0.00    +0.000 C 
BRANCH  20  21
ATOM     21  C   UNL     1       9.919  11.314  18.487  0.00  0.00    +0.000 C 
ATOM     22  O   UNL     1       9.559  12.041  17.558  0.00  0.00    +0.000 OA
ATOM     23  N   UNL     1      11.245  11.020  18.696  0.00  0.00    +0.000 N 
ATOM     24  H   UNL     1      11.591  10.300  19.321  0.00  0.00    +0.000 HD
BRANCH  23  25
ATOM     25  O   UNL     1      12.156  11.517  17.736  0.00  0.00    +0.000 OA
ATOM     26  H   UNL     1      12.740  10.743  17.575  0.00  0.00    +0.000 HD
ENDBRANCH  23  25
ENDBRANCH  20  21
BRANCH  20  27
ATOM     27  C   UNL     1       9.299  11.022  20.956  0.00  0.00    +0.000 C 
BRANCH  27  28
ATOM     28  C   UNL     1       8.828  12.401  21.479  0.00  0.00    +0.000 C 
ATOM     29  C   UNL     1       8.295  12.273  22.912  0.00  0.00    +0.000 C 
ATOM     30  C   UNL     1       9.919  13.475  21.467  0.00  0.00    +0.000 C 
ENDBRANCH  27  28
ENDBRANCH  20  27
ENDBRANCH   4  20
TORSDOF 8
ENDMDL
MODEL 9
REMARK VINA RESULT:      -7.2      2.969      9.887
REMARK  Name = 
REMARK  11 active torsions:
REMARK  status: ('A' for Active; 'I' for Inactive)
REMARK    1  A    between atoms: C_1  and  C_2
REMARK    2  A    between atoms: C_7  and  N_8
REMARK    3  A    between atoms: C_10  and  C_11
REMARK    4  A    between atoms: C_11  and  N_12
REMARK    5  A    between atoms: N_15  and  C_16
REMARK    6  A    between atoms: C_16  and  C_17
REMARK    7  A    between atoms: C_16  and  C_21
REMARK    8  A    between atoms: C_17  and  C_18
REMARK    9  A    between atoms: C_18  and  C_19
REMARK   10  A    between atoms: C_18  and  C_20
REMARK   11  A    between atoms: N_23  and  O_24
REMARK                            x       y       z     vdW  Elec       q    Type
REMARK                         _______ _______ _______ _____ _____    ______ ____
ROOT
ATOM      1  N   UNL     1       8.277   9.437  17.995  0.00  0.00    +0.000 N 
ATOM      2  C   UNL     1       7.959   8.107  18.104  0.00  0.00    +0.000 C 
ATOM      3  O   UNL     1       8.473   7.336  18.898  0.00  0.00    +0.000 OA
ATOM      4  N   UNL     1       6.954   7.761  17.249  0.00  0.00    +0.000 N 
ATOM      5  H   UNL     1       7.491  10.022  17.756  0.00  0.00    +0.000 HD
ATOM      6  H   UNL     1       6.847   8.305  16.399  0.00  0.00    +0.000 HD
ENDROOT
BRANCH   1   7
ATOM      7  C   UNL     1       9.204   9.987  18.956  0.00  0.00    +0.000 C 
BRANCH   7  10
ATOM      8  N   UNL     1       9.702  13.537  18.250  0.00  0.00    +0.000 N 
ATOM      9  C   UNL     1       9.099  12.582  19.042  0.00  0.00    +0.000 A 
ATOM     10  C   UNL     1       9.564  11.371  18.573  0.00  0.00    +0.000 A 
ATOM     11  N   UNL     1      10.466  11.607  17.573  0.00  0.00    +0.000 NA
ATOM     12  N   UNL     1      10.528  12.915  17.373  0.00  0.00    +0.000 NA
BRANCH   8  19
ATOM     13  C   UNL     1      12.102  15.338  18.610  0.00  0.00    +0.000 C 
ATOM     14  C   UNL     1      10.671  15.807  18.539  0.00  0.00    +0.000 A 
ATOM     15  C   UNL     1      10.438  17.191  18.651  0.00  0.00    +0.000 A 
ATOM     16  C   UNL     1       9.156  17.723  18.521  0.00  0.00    +0.000 A 
ATOM     17  C   UNL     1       8.080  16.882  18.265  0.00  0.00    +0.000 A 
ATOM     18  C   UNL     1       8.281  15.505  18.156  0.00  0.00    +0.000 A 
ATOM     19  C   UNL     1       9.567  14.951  18.314  0.00  0.00    +0.000 A 
ENDBRANCH   8  19
ENDBRANCH   7  10
ENDBRANCH   1   7
BRANCH   4  20
ATOM     20  C   UNL     1       6.295   6.463  17.290  0.00  0.00    +0.000 C 
BRANCH  20  21
ATOM     21  C   UNL     1       7.098   5.469  16.434  0.00  0.00    +0.000 C 
ATOM     22  O   UNL     1       7.746   4.537  16.917  0.00  0.00    +0.000 OA
ATOM     23  N   UNL     1       7.038   5.674  15.077  0.00  0.00    +0.000 N 
ATOM     24  H   UNL     1       6.675   6.509  14.629  0.00  0.00    +0.000 HD
BRANCH  23  25
ATOM     25  O   UNL     1       7.833   4.821  14.277  0.00  0.00    +0.000 OA
ATOM     26  H   UNL     1       7.371   3.958  14.361  0.00  0.00    +0.000 HD
ENDBRANCH  23  25
ENDBRANCH  20  21
BRANCH  20  27
ATOM     27  C   UNL     1       4.816   6.557  16.855  0.00  0.00    +0.000 C 
BRANCH  27  28
ATOM     28  C   UNL     1       3.766   6.154  17.919  0.00  0.00    +0.000 C 
ATOM     29  C   UNL     1       2.692   7.243  18.045  0.00  0.00    +0.000 C 
ATOM     30  C   UNL     1       3.068   4.822  17.629  0.00  0.00    +0.000 C 
ENDBRANCH  27  28
ENDBRANCH  20  27
ENDBRANCH   4  20
TORSDOF 8
ENDMDL
