MODEL 1
REMARK VINA RESULT:      -7.6      0.000      0.000
REMARK  Name = 
REMARK  7 active torsions:
REMARK  status: ('A' for Active; 'I' for Inactive)
REMARK    1  A    between atoms: C_1  and  C_2
REMARK    2  A    between atoms: C_2  and  C_3
REMARK    3  A    between atoms: C_3  and  C_4
REMARK    4  A    between atoms: C_4  and  C_5
REMARK    5  A    between atoms: N_7  and  C_8
REMARK    6  A    between atoms: C_10  and  C_11
REMARK    7  A    between atoms: C_22  and  C_23
REMARK                            x       y       z     vdW  Elec       q    Type
REMARK                         _______ _______ _______ _____ _____    ______ ____
ROOT
ATOM      1  C   UNL     1       3.675   5.023  18.966  0.00  0.00    +0.000 A 
ATOM      2  C   UNL     1       3.176   6.255  19.416  0.00  0.00    +0.000 A 
ATOM      3  C   UNL     1       2.015   6.324  20.199  0.00  0.00    +0.000 A 
ATOM      4  C   UNL     1       1.390   5.130  20.575  0.00  0.00    +0.000 A 
ATOM      5  C   UNL     1       1.909   3.899  20.176  0.00  0.00    +0.000 A 
ATOM      6  C   UNL     1       3.060   3.824  19.378  0.00  0.00    +0.000 A 
ATOM      7  C   UNL     1       3.610   2.462  19.063  0.00  0.00    +0.000 C 
ENDROOT
BRANCH   3   8
ATOM      8  C   UNL     1       1.462   7.623  20.572  0.00  0.00    +0.000 A 
ATOM      9  N   UNL     1       1.442   8.752  19.883  0.00  0.00    +0.000 NA
ATOM     10  C   UNL     1       0.754   9.607  20.698  0.00  0.00    +0.000 A 
ATOM     11  N   UNL     1       0.446  10.896  20.438  0.00  0.00    +0.000 NA
ATOM     12  C   UNL     1      -0.250  11.501  21.432  0.00  0.00    +0.000 A 
ATOM     13  C   UNL     1      -0.638  10.908  22.636  0.00  0.00    +0.000 A 
ATOM     14  C   UNL     1      -0.310   9.577  22.890  0.00  0.00    +0.000 A 
ATOM     15  C   UNL     1       0.393   8.966  21.871  0.00  0.00    +0.000 A 
ATOM     16  O   UNL     1       0.848   7.686  21.802  0.00  0.00    +0.000 OA
ENDBRANCH   3   8
BRANCH   1  19
ATOM     17  C   UNL     1       6.106   5.035  18.662  0.00  0.00    +0.000 C 
ATOM     18  O   UNL     1       6.399   4.931  19.849  0.00  0.00    +0.000 OA
ATOM     19  N   UNL     1       4.820   5.060  18.143  0.00  0.00    +0.000 N 
ATOM     20  H   UNL     1       4.732   4.610  17.239  0.00  0.00    +0.000 HD
BRANCH  17  21
ATOM     21  C   UNL     1       7.186   5.104  17.596  0.00  0.00    +0.000 C 
BRANCH  21  22
ATOM     22  C   UNL     1       7.420   6.525  17.090  0.00  0.00    +0.000 C 
BRANCH  22  24
ATOM     23  C   UNL     1       7.980   8.898  17.731  0.00  0.00    +0.000 C 
ATOM     24  C   UNL     1       8.001   7.443  18.166  0.00  0.00    +0.000 C 
ENDBRANCH  22  24
ENDBRANCH  21  22
ENDBRANCH  17  21
ENDBRANCH   1  19
TORSDOF 5
ENDMDL
MODEL 2
REMARK VINA RESULT:      -7.6      0.993      1.630
REMARK  Name = 
REMARK  7 active torsions:
REMARK  status: ('A' for Active; 'I' for Inactive)
REMARK    1  A    between atoms: C_1  and  C_2
REMARK    2  A    between atoms: C_2  and  C_3
REMARK    3  A    between atoms: C_3  and  C_4
REMARK    4  A    between atoms: C_4  and  C_5
REMARK    5  A    between atoms: N_7  and  C_8
REMARK    6  A    between atoms: C_10  and  C_11
REMARK    7  A    between atoms: C_22  and  C_23
REMARK                            x       y       z     vdW  Elec       q    Type
REMARK                         _______ _______ _______ _____ _____    ______ ____
ROOT
ATOM      1  C   UNL     1       3.860   5.188  18.962  0.00  0.00    +0.000 A 
ATOM      2  C   UNL     1       3.309   6.410  19.376  0.00  0.00    +0.000 A 
ATOM      3  C   UNL     1       2.155   6.452  20.172  0.00  0.00    +0.000 A 
ATOM      4  C   UNL     1       1.591   5.243  20.595  0.00  0.00    +0.000 A 
ATOM      5  C   UNL     1       2.163   4.024  20.232  0.00  0.00    +0.000 A 
ATOM      6  C   UNL     1       3.307   3.977  19.422  0.00  0.00    +0.000 A 
ATOM      7  C   UNL     1       3.917   2.631  19.145  0.00  0.00    +0.000 C 
ENDROOT
BRANCH   3   8
ATOM      8  C   UNL     1       1.545   7.735  20.507  0.00  0.00    +0.000 A 
ATOM      9  N   UNL     1       1.394   8.811  19.753  0.00  0.00    +0.000 NA
ATOM     10  C   UNL     1       0.715   9.675  20.567  0.00  0.00    +0.000 A 
ATOM     11  N   UNL     1       0.300  10.921  20.254  0.00  0.00    +0.000 NA
ATOM     12  C   UNL     1      -0.356  11.547  21.263  0.00  0.00    +0.000 A 
ATOM     13  C   UNL     1      -0.607  11.013  22.529  0.00  0.00    +0.000 A 
ATOM     14  C   UNL     1      -0.170   9.725  22.838  0.00  0.00    +0.000 A 
ATOM     15  C   UNL     1       0.492   9.093  21.804  0.00  0.00    +0.000 A 
ATOM     16  O   UNL     1       1.026   7.842  21.778  0.00  0.00    +0.000 OA
ENDBRANCH   3   8
BRANCH   1  19
ATOM     17  C   UNL     1       6.282   5.339  18.626  0.00  0.00    +0.000 C 
ATOM     18  O   UNL     1       6.592   5.324  19.813  0.00  0.00    +0.000 OA
ATOM     19  N   UNL     1       4.993   5.250  18.123  0.00  0.00    +0.000 N 
ATOM     20  H   UNL     1       4.927   4.743  17.248  0.00  0.00    +0.000 HD
BRANCH  17  21
ATOM     21  C   UNL     1       7.345   5.415  17.545  0.00  0.00    +0.000 C 
BRANCH  21  22
ATOM     22  C   UNL     1       7.162   4.351  16.466  0.00  0.00    +0.000 C 
BRANCH  22  24
ATOM     23  C   UNL     1       5.746   4.257  14.382  0.00  0.00    +0.000 C 
ATOM     24  C   UNL     1       6.897   4.954  15.085  0.00  0.00    +0.000 C 
ENDBRANCH  22  24
ENDBRANCH  21  22
ENDBRANCH  17  21
ENDBRANCH   1  19
TORSDOF 5
ENDMDL
MODEL 3
REMARK VINA RESULT:      -7.6      2.084      2.607
REMARK  Name = 
REMARK  7 active torsions:
REMARK  status: ('A' for Active; 'I' for Inactive)
REMARK    1  A    between atoms: C_1  and  C_2
REMARK    2  A    between atoms: C_2  and  C_3
REMARK    3  A    between atoms: C_3  and  C_4
REMARK    4  A    between atoms: C_4  and  C_5
REMARK    5  A    between atoms: N_7  and  C_8
REMARK    6  A    between atoms: C_10  and  C_11
REMARK    7  A    between atoms: C_22  and  C_23
REMARK                            x       y       z     vdW  Elec       q    Type
REMARK                         _______ _______ _______ _____ _____    ______ ____
ROOT
ATOM      1  C   UNL     1       3.540   4.538  17.917  0.00  0.00    +0.000 A 
ATOM      2  C   UNL     1       3.150   5.794  18.404  0.00  0.00    +0.000 A 
ATOM      3  C   UNL     1       2.275   5.909  19.493  0.00  0.00    +0.000 A 
ATOM      4  C   UNL     1       1.838   4.739  20.126  0.00  0.00    +0.000 A 
ATOM      5  C   UNL     1       2.263   3.488  19.681  0.00  0.00    +0.000 A 
ATOM      6  C   UNL     1       3.126   3.367  18.581  0.00  0.00    +0.000 A 
ATOM      7  C   UNL     1       3.610   1.992  18.215  0.00  0.00    +0.000 C 
ENDROOT
BRANCH   3   8
ATOM      8  C   UNL     1       1.807   7.225  19.919  0.00  0.00    +0.000 A 
ATOM      9  N   UNL     1       1.818   8.370  19.258  0.00  0.00    +0.000 NA
ATOM     10  C   UNL     1       1.211   9.239  20.120  0.00  0.00    +0.000 A 
ATOM     11  N   UNL     1       0.961  10.549  19.904  0.00  0.00    +0.000 NA
ATOM     12  C   UNL     1       0.339  11.164  20.940  0.00  0.00    +0.000 A 
ATOM     13  C   UNL     1      -0.029  10.561  22.146  0.00  0.00    +0.000 A 
ATOM     14  C   UNL     1       0.238   9.209  22.355  0.00  0.00    +0.000 A 
ATOM     15  C   UNL     1       0.865   8.589  21.293  0.00  0.00    +0.000 A 
ATOM     16  O   UNL     1       1.249   7.289  21.175  0.00  0.00    +0.000 OA
ENDBRANCH   3   8
BRANCH   1  19
ATOM     17  C   UNL     1       5.767   4.511  16.895  0.00  0.00    +0.000 C 
ATOM     18  O   UNL     1       6.405   4.458  17.942  0.00  0.00    +0.000 OA
ATOM     19  N   UNL     1       4.385   4.525  16.786  0.00  0.00    +0.000 N 
ATOM     20  H   UNL     1       4.031   4.036  15.972  0.00  0.00    +0.000 HD
BRANCH  17  21
ATOM     21  C   UNL     1       6.476   4.521  15.552  0.00  0.00    +0.000 C 
BRANCH  21  22
ATOM     22  C   UNL     1       5.529   4.254  14.386  0.00  0.00    +0.000 C 
BRANCH  22  24
ATOM     23  C   UNL     1       5.267   3.299  12.068  0.00  0.00    +0.000 C 
ATOM     24  C   UNL     1       6.245   3.668  13.169  0.00  0.00    +0.000 C 
ENDBRANCH  22  24
ENDBRANCH  21  22
ENDBRANCH  17  21
ENDBRANCH   1  19
TORSDOF 5
ENDMDL
MODEL 4
REMARK VINA RESULT:      -7.6      1.555      2.267
REMARK  Name = 
REMARK  7 active torsions:
REMARK  status: ('A' for Active; 'I' for Inactive)
REMARK    1  A    between atoms: C_1  and  C_2
REMARK    2  A    between atoms: C_2  and  C_3
REMARK    3  A    between atoms: C_3  and  C_4
REMARK    4  A    between atoms: C_4  and  C_5
REMARK    5  A    between atoms: N_7  and  C_8
REMARK    6  A    between atoms: C_10  and  C_11
REMARK    7  A    between atoms: C_22  and  C_23
REMARK                            x       y       z     vdW  Elec       q    Type
REMARK                         _______ _______ _______ _____ _____    ______ ____
ROOT
ATOM      1  C   UNL     1       3.992   4.734  18.978  0.00  0.00    +0.000 A 
ATOM      2  C   UNL     1       3.453   6.013  19.183  0.00  0.00    +0.000 A 
ATOM      3  C   UNL     1       2.369   6.211  20.050  0.00  0.00    +0.000 A 
ATOM      4  C   UNL     1       1.866   5.111  20.755  0.00  0.00    +0.000 A 
ATOM      5  C   UNL     1       2.431   3.846  20.596  0.00  0.00    +0.000 A 
ATOM      6  C   UNL     1       3.504   3.639  19.717  0.00  0.00    +0.000 A 
ATOM      7  C   UNL     1       4.116   2.267  19.665  0.00  0.00    +0.000 C 
ENDROOT
BRANCH   3   8
ATOM      8  C   UNL     1       1.764   7.534  20.173  0.00  0.00    +0.000 A 
ATOM      9  N   UNL     1       1.226   8.112  21.234  0.00  0.00    +0.000 NA
ATOM     10  C   UNL     1       0.878   9.352  20.776  0.00  0.00    +0.000 A 
ATOM     11  N   UNL     1       0.300  10.343  21.490  0.00  0.00    +0.000 NA
ATOM     12  C   UNL     1       0.073  11.470  20.771  0.00  0.00    +0.000 A 
ATOM     13  C   UNL     1       0.376  11.653  19.420  0.00  0.00    +0.000 A 
ATOM     14  C   UNL     1       0.969  10.620  18.696  0.00  0.00    +0.000 A 
ATOM     15  C   UNL     1       1.203   9.477  19.436  0.00  0.00    +0.000 A 
ATOM     16  O   UNL     1       1.772   8.309  19.036  0.00  0.00    +0.000 OA
ENDBRANCH   3   8
BRANCH   1  19
ATOM     17  C   UNL     1       6.375   4.809  18.414  0.00  0.00    +0.000 C 
ATOM     18  O   UNL     1       6.784   5.024  19.550  0.00  0.00    +0.000 OA
ATOM     19  N   UNL     1       5.049   4.628  18.049  0.00  0.00    +0.000 N 
ATOM     20  H   UNL     1       4.917   3.962  17.297  0.00  0.00    +0.000 HD
BRANCH  17  21
ATOM     21  C   UNL     1       7.342   4.670  17.252  0.00  0.00    +0.000 C 
BRANCH  21  22
ATOM     22  C   UNL     1       6.916   5.485  16.034  0.00  0.00    +0.000 C 
BRANCH  22  24
ATOM     23  C   UNL     1       5.721   4.152  14.258  0.00  0.00    +0.000 C 
ATOM     24  C   UNL     1       7.056   4.703  14.726  0.00  0.00    +0.000 C 
ENDBRANCH  22  24
ENDBRANCH  21  22
ENDBRANCH  17  21
ENDBRANCH   1  19
TORSDOF 5
ENDMDL
MODEL 5
REMARK VINA RESULT:      -7.5      4.475      5.819
REMARK  Name = 
REMARK  7 active torsions:
REMARK  status: ('A' for Active; 'I' for Inactive)
REMARK    1  A    between atoms: C_1  and  C_2
REMARK    2  A    between atoms: C_2  and  C_3
REMARK    3  A    between atoms: C_3  and  C_4
REMARK    4  A    between atoms: C_4  and  C_5
REMARK    5  A    between atoms: N_7  and  C_8
REMARK    6  A    between atoms: C_10  and  C_11
REMARK    7  A    between atoms: C_22  and  C_23
REMARK                            x       y       z     vdW  Elec       q    Type
REMARK                         _______ _______ _______ _____ _____    ______ ____
ROOT
ATOM      1  C   UNL     1       6.500   5.962  16.447  0.00  0.00    +0.000 A 
ATOM      2  C   UNL     1       5.754   5.444  17.517  0.00  0.00    +0.000 A 
ATOM      3  C   UNL     1       5.135   4.189  17.427  0.00  0.00    +0.000 A 
ATOM      4  C   UNL     1       5.322   3.433  16.265  0.00  0.00    +0.000 A 
ATOM      5  C   UNL     1       6.105   3.918  15.218  0.00  0.00    +0.000 A 
ATOM      6  C   UNL     1       6.713   5.180  15.296  0.00  0.00    +0.000 A 
ATOM      7  C   UNL     1       7.613   5.597  14.167  0.00  0.00    +0.000 C 
ENDROOT
BRANCH   3   8
ATOM      8  C   UNL     1       4.284   3.714  18.515  0.00  0.00    +0.000 A 
ATOM      9  N   UNL     1       4.624   3.086  19.628  0.00  0.00    +0.000 NA
ATOM     10  C   UNL     1       3.434   2.943  20.287  0.00  0.00    +0.000 A 
ATOM     11  N   UNL     1       3.244   2.372  21.495  0.00  0.00    +0.000 NA
ATOM     12  C   UNL     1       1.951   2.376  21.902  0.00  0.00    +0.000 A 
ATOM     13  C   UNL     1       0.870   2.897  21.186  0.00  0.00    +0.000 A 
ATOM     14  C   UNL     1       1.082   3.481  19.939  0.00  0.00    +0.000 A 
ATOM     15  C   UNL     1       2.403   3.479  19.534  0.00  0.00    +0.000 A 
ATOM     16  O   UNL     1       2.940   3.977  18.387  0.00  0.00    +0.000 OA
ENDBRANCH   3   8
BRANCH   1  19
ATOM     17  C   UNL     1       7.770   7.611  17.741  0.00  0.00    +0.000 C 
ATOM     18  O   UNL     1       8.062   6.868  18.672  0.00  0.00    +0.000 OA
ATOM     19  N   UNL     1       7.043   7.253  16.614  0.00  0.00    +0.000 N 
ATOM     20  H   UNL     1       7.340   7.724  15.767  0.00  0.00    +0.000 HD
BRANCH  17  21
ATOM     21  C   UNL     1       8.240   9.054  17.719  0.00  0.00    +0.000 C 
BRANCH  21  22
ATOM     22  C   UNL     1       8.984   9.448  18.992  0.00  0.00    +0.000 C 
BRANCH  22  24
ATOM     23  C   UNL     1       9.816  11.403  20.349  0.00  0.00    +0.000 C 
ATOM     24  C   UNL     1       9.483  10.893  18.958  0.00  0.00    +0.000 C 
ENDBRANCH  22  24
ENDBRANCH  21  22
ENDBRANCH  17  21
ENDBRANCH   1  19
TORSDOF 5
ENDMDL
MODEL 6
REMARK VINA RESULT:      -7.3      2.121      2.788
REMARK  Name = 
REMARK  7 active torsions:
REMARK  status: ('A' for Active; 'I' for Inactive)
REMARK    1  A    between atoms: C_1  and  C_2
REMARK    2  A    between atoms: C_2  and  C_3
REMARK    3  A    between atoms: C_3  and  C_4
REMARK    4  A    between atoms: C_4  and  C_5
REMARK    5  A    between atoms: N_7  and  C_8
REMARK    6  A    between atoms: C_10  and  C_11
REMARK    7  A    between atoms: C_22  and  C_23
REMARK                            x       y       z     vdW  Elec       q    Type
REMARK                         _______ _______ _______ _____ _____    ______ ____
ROOT
ATOM      1  C   UNL     1       3.402   5.302  18.254  0.00  0.00    +0.000 A 
ATOM      2  C   UNL     1       2.912   6.544  18.683  0.00  0.00    +0.000 A 
ATOM      3  C   UNL     1       2.193   6.665  19.881  0.00  0.00    +0.000 A 
ATOM      4  C   UNL     1       2.019   5.525  20.673  0.00  0.00    +0.000 A 
ATOM      5  C   UNL     1       2.548   4.296  20.280  0.00  0.00    +0.000 A 
ATOM      6  C   UNL     1       3.254   4.167  19.074  0.00  0.00    +0.000 A 
ATOM      7  C   UNL     1       3.870   2.832  18.760  0.00  0.00    +0.000 C 
ENDROOT
BRANCH   3   8
ATOM      8  C   UNL     1       1.609   7.950  20.257  0.00  0.00    +0.000 A 
ATOM      9  N   UNL     1       1.280   8.398  21.456  0.00  0.00    +0.000 NA
ATOM     10  C   UNL     1       0.838   9.668  21.208  0.00  0.00    +0.000 A 
ATOM     11  N   UNL     1       0.399  10.562  22.120  0.00  0.00    +0.000 NA
ATOM     12  C   UNL     1       0.027  11.750  21.583  0.00  0.00    +0.000 A 
ATOM     13  C   UNL     1       0.063  12.081  20.226  0.00  0.00    +0.000 A 
ATOM     14  C   UNL     1       0.517  11.146  19.297  0.00  0.00    +0.000 A 
ATOM     15  C   UNL     1       0.900   9.941  19.852  0.00  0.00    +0.000 A 
ATOM     16  O   UNL     1       1.393   8.837  19.228  0.00  0.00    +0.000 OA
ENDBRANCH   3   8
BRANCH   1  19
ATOM     17  C   UNL     1       5.430   5.525  16.897  0.00  0.00    +0.000 C 
ATOM     18  O   UNL     1       6.201   5.744  17.826  0.00  0.00    +0.000 OA
ATOM     19  N   UNL     1       4.071   5.274  17.012  0.00  0.00    +0.000 N 
ATOM     20  H   UNL     1       3.716   4.613  16.330  0.00  0.00    +0.000 HD
BRANCH  17  21
ATOM     21  C   UNL     1       5.934   5.463  15.466  0.00  0.00    +0.000 C 
BRANCH  21  22
ATOM     22  C   UNL     1       5.732   4.090  14.832  0.00  0.00    +0.000 C 
BRANCH  22  24
ATOM     23  C   UNL     1       5.504   3.366  12.427  0.00  0.00    +0.000 C 
ATOM     24  C   UNL     1       6.428   3.960  13.476  0.00  0.00    +0.000 C 
ENDBRANCH  22  24
ENDBRANCH  21  22
ENDBRANCH  17  21
ENDBRANCH   1  19
TORSDOF 5
ENDMDL
MODEL 7
REMARK VINA RESULT:      -7.3      2.817      4.531
REMARK  Name = 
REMARK  7 active torsions:
REMARK  status: ('A' for Active; 'I' for Inactive)
REMARK    1  A    between atoms: C_1  and  C_2
REMARK    2  A    between atoms: C_2  and  C_3
REMARK    3  A    between atoms: C_3  and  C_4
REMARK    4  A    between atoms: C_4  and  C_5
REMARK    5  A    between atoms: N_7  and  C_8
REMARK    6  A    between atoms: C_10  and  C_11
REMARK    7  A    between atoms: C_22  and  C_23
REMARK                            x       y       z     vdW  Elec       q    Type
REMARK                         _______ _______ _______ _____ _____    ______ ____
ROOT
ATOM      1  C   UNL     1       2.239   6.954  19.936  0.00  0.00    +0.000 A 
ATOM      2  C   UNL     1       1.447   7.923  20.570  0.00  0.00    +0.000 A 
ATOM      3  C   UNL     1       1.090   9.110  19.912  0.00  0.00    +0.000 A 
ATOM      4  C   UNL     1       1.495   9.286  18.584  0.00  0.00    +0.000 A 
ATOM      5  C   UNL     1       2.238   8.304  17.930  0.00  0.00    +0.000 A 
ATOM      6  C   UNL     1       2.611   7.123  18.589  0.00  0.00    +0.000 A 
ATOM      7  C   UNL     1       3.335   6.073  17.793  0.00  0.00    +0.000 C 
ENDROOT
BRANCH   3   8
ATOM      8  C   UNL     1       0.348  10.146  20.626  0.00  0.00    +0.000 A 
ATOM      9  N   UNL     1       0.563  10.648  21.830  0.00  0.00    +0.000 NA
ATOM     10  C   UNL     1      -0.399  11.612  21.947  0.00  0.00    +0.000 A 
ATOM     11  N   UNL     1      -0.595  12.434  23.000  0.00  0.00    +0.000 NA
ATOM     12  C   UNL     1      -1.626  13.298  22.834  0.00  0.00    +0.000 A 
ATOM     13  C   UNL     1      -2.451  13.378  21.709  0.00  0.00    +0.000 A 
ATOM     14  C   UNL     1      -2.239  12.521  20.631  0.00  0.00    +0.000 A 
ATOM     15  C   UNL     1      -1.182  11.648  20.805  0.00  0.00    +0.000 A 
ATOM     16  O   UNL     1      -0.711  10.704  19.947  0.00  0.00    +0.000 OA
ENDBRANCH   3   8
BRANCH   1  19
ATOM     17  C   UNL     1       1.773   4.694  20.761  0.00  0.00    +0.000 C 
ATOM     18  O   UNL     1       0.719   4.535  20.153  0.00  0.00    +0.000 OA
ATOM     19  N   UNL     1       2.585   5.817  20.696  0.00  0.00    +0.000 N 
ATOM     20  H   UNL     1       3.576   5.612  20.764  0.00  0.00    +0.000 HD
BRANCH  17  21
ATOM     21  C   UNL     1       2.331   3.600  21.653  0.00  0.00    +0.000 C 
BRANCH  21  22
ATOM     22  C   UNL     1       2.615   2.309  20.890  0.00  0.00    +0.000 C 
BRANCH  22  24
ATOM     23  C   UNL     1       3.358   1.775  18.541  0.00  0.00    +0.000 C 
ATOM     24  C   UNL     1       3.714   2.477  19.839  0.00  0.00    +0.000 C 
ENDBRANCH  22  24
ENDBRANCH  21  22
ENDBRANCH  17  21
ENDBRANCH   1  19
TORSDOF 5
ENDMDL
MODEL 8
REMARK VINA RESULT:      -7.3      1.095      1.530
REMARK  Name = 
REMARK  7 active torsions:
REMARK  status: ('A' for Active; 'I' for Inactive)
REMARK    1  A    between atoms: C_1  and  C_2
REMARK    2  A    between atoms: C_2  and  C_3
REMARK    3  A    between atoms: C_3  and  C_4
REMARK    4  A    between atoms: C_4  and  C_5
REMARK    5  A    between atoms: N_7  and  C_8
REMARK    6  A    between atoms: C_10  and  C_11
REMARK    7  A    between atoms: C_22  and  C_23
REMARK                            x       y       z     vdW  Elec       q    Type
REMARK                         _______ _______ _______ _____ _____    ______ ____
ROOT
ATOM      1  C   UNL     1       3.601   4.878  18.936  0.00  0.00    +0.000 A 
ATOM      2  C   UNL     1       3.181   6.185  19.224  0.00  0.00    +0.000 A 
ATOM      3  C   UNL     1       2.123   6.427  20.112  0.00  0.00    +0.000 A 
ATOM      4  C   UNL     1       1.526   5.336  20.753  0.00  0.00    +0.000 A 
ATOM      5  C   UNL     1       1.973   4.037  20.513  0.00  0.00    +0.000 A 
ATOM      6  C   UNL     1       3.020   3.788  19.613  0.00  0.00    +0.000 A 
ATOM      7  C   UNL     1       3.505   2.373  19.472  0.00  0.00    +0.000 C 
ENDROOT
BRANCH   3   8
ATOM      8  C   UNL     1       1.640   7.789  20.320  0.00  0.00    +0.000 A 
ATOM      9  N   UNL     1       1.302   8.393  21.447  0.00  0.00    +0.000 NA
ATOM     10  C   UNL     1       0.984   9.660  21.044  0.00  0.00    +0.000 A 
ATOM     11  N   UNL     1       0.588  10.682  21.833  0.00  0.00    +0.000 NA
ATOM     12  C   UNL     1       0.345  11.831  21.155  0.00  0.00    +0.000 A 
ATOM     13  C   UNL     1       0.467  12.006  19.774  0.00  0.00    +0.000 A 
ATOM     14  C   UNL     1       0.874  10.941  18.973  0.00  0.00    +0.000 A 
ATOM     15  C   UNL     1       1.126   9.776  19.672  0.00  0.00    +0.000 A 
ATOM     16  O   UNL     1       1.545   8.574  19.194  0.00  0.00    +0.000 OA
ENDBRANCH   3   8
BRANCH   1  19
ATOM     17  C   UNL     1       5.980   4.783  18.353  0.00  0.00    +0.000 C 
ATOM     18  O   UNL     1       6.412   4.901  19.496  0.00  0.00    +0.000 OA
ATOM     19  N   UNL     1       4.641   4.735  17.993  0.00  0.00    +0.000 N 
ATOM     20  H   UNL     1       4.448   4.124  17.208  0.00  0.00    +0.000 HD
BRANCH  17  21
ATOM     21  C   UNL     1       6.925   4.628  17.176  0.00  0.00    +0.000 C 
BRANCH  21  22
ATOM     22  C   UNL     1       7.301   5.965  16.544  0.00  0.00    +0.000 C 
BRANCH  22  24
ATOM     23  C   UNL     1       7.847   8.139  17.699  0.00  0.00    +0.000 C 
ATOM     24  C   UNL     1       6.749   7.159  17.324  0.00  0.00    +0.000 C 
ENDBRANCH  22  24
ENDBRANCH  21  22
ENDBRANCH  17  21
ENDBRANCH   1  19
TORSDOF 5
ENDMDL
MODEL 9
REMARK VINA RESULT:      -7.2      2.140      2.586
REMARK  Name = 
REMARK  7 active torsions:
REMARK  status: ('A' for Active; 'I' for Inactive)
REMARK    1  A    between atoms: C_1  and  C_2
REMARK    2  A    between atoms: C_2  and  C_3
REMARK    3  A    between atoms: C_3  and  C_4
REMARK    4  A    between atoms: C_4  and  C_5
REMARK    5  A    between atoms: N_7  and  C_8
REMARK    6  A    between atoms: C_10  and  C_11
REMARK    7  A    between atoms: C_22  and  C_23
REMARK                            x       y       z     vdW  Elec       q    Type
REMARK                         _______ _______ _______ _____ _____    ______ ____
ROOT
ATOM      1  C   UNL     1       4.105   4.678  18.971  0.00  0.00    +0.000 A 
ATOM      2  C   UNL     1       3.559   5.964  19.105  0.00  0.00    +0.000 A 
ATOM      3  C   UNL     1       2.479   6.205  19.967  0.00  0.00    +0.000 A 
ATOM      4  C   UNL     1       1.988   5.145  20.737  0.00  0.00    +0.000 A 
ATOM      5  C   UNL     1       2.560   3.877  20.649  0.00  0.00    +0.000 A 
ATOM      6  C   UNL     1       3.629   3.626  19.776  0.00  0.00    +0.000 A 
ATOM      7  C   UNL     1       4.249   2.257  19.800  0.00  0.00    +0.000 C 
ENDROOT
BRANCH   3   8
ATOM      8  C   UNL     1       1.865   7.530  20.016  0.00  0.00    +0.000 A 
ATOM      9  N   UNL     1       1.822   8.465  19.082  0.00  0.00    +0.000 NA
ATOM     10  C   UNL     1       1.079   9.456  19.661  0.00  0.00    +0.000 A 
ATOM     11  N   UNL     1       0.729  10.634  19.102  0.00  0.00    +0.000 NA
ATOM     12  C   UNL     1      -0.018  11.422  19.914  0.00  0.00    +0.000 A 
ATOM     13  C   UNL     1      -0.417  11.108  21.216  0.00  0.00    +0.000 A 
ATOM     14  C   UNL     1      -0.046   9.889  21.780  0.00  0.00    +0.000 A 
ATOM     15  C   UNL     1       0.709   9.090  20.944  0.00  0.00    +0.000 A 
ATOM     16  O   UNL     1       1.215   7.850  21.185  0.00  0.00    +0.000 OA
ENDBRANCH   3   8
BRANCH   1  19
ATOM     17  C   UNL     1       4.938   4.111  16.738  0.00  0.00    +0.000 C 
ATOM     18  O   UNL     1       3.844   3.882  16.231  0.00  0.00    +0.000 OA
ATOM     19  N   UNL     1       5.157   4.526  18.043  0.00  0.00    +0.000 N 
ATOM     20  H   UNL     1       5.938   5.164  18.146  0.00  0.00    +0.000 HD
BRANCH  17  21
ATOM     21  C   UNL     1       6.213   3.995  15.922  0.00  0.00    +0.000 C 
BRANCH  21  22
ATOM     22  C   UNL     1       6.111   4.694  14.569  0.00  0.00    +0.000 C 
BRANCH  22  24
ATOM     23  C   UNL     1       6.951   4.028  12.288  0.00  0.00    +0.000 C 
ATOM     24  C   UNL     1       5.977   3.708  13.407  0.00  0.00    +0.000 C 
ENDBRANCH  22  24
ENDBRANCH  21  22
ENDBRANCH  17  21
ENDBRANCH   1  19
TORSDOF 5
ENDMDL
