MODEL 1
REMARK VINA RESULT:      -7.8      0.000      0.000
REMARK  Name = 
REMARK  5 active torsions:
REMARK  status: ('A' for Active; 'I' for Inactive)
REMARK    1  A    between atoms: C_1  and  N_2
REMARK    2  A    between atoms: N_7  and  C_8
REMARK    3  A    between atoms: C_11  and  S_12
REMARK    4  A    between atoms: S_12  and  N_15
REMARK    5  A    between atoms: N_18  and  C_19
REMARK                            x       y       z     vdW  Elec       q    Type
REMARK                         _______ _______ _______ _____ _____    ______ ____
ROOT
ATOM      1  S   UNL     1       0.357  10.034  19.665  0.00  0.00    +0.000 S 
ATOM      2  O   UNL     1      -0.721   9.244  20.229  0.00  0.00    +0.000 OA
ATOM      3  O   UNL     1       0.991  11.074  20.454  0.00  0.00    +0.000 OA
ENDROOT
BRANCH   1  14
ATOM      4  C   UNL     1       4.823   6.172  16.267  0.00  0.00    +0.000 C 
ATOM      5  N   UNL     1       4.186   5.928  17.553  0.00  0.00    +0.000 N 
ATOM      6  C   UNL     1       4.244   4.634  18.062  0.00  0.00    +0.000 A 
ATOM      7  O   UNL     1       4.855   3.717  17.519  0.00  0.00    +0.000 OA
ATOM      8  C   UNL     1       3.466   4.335  19.349  0.00  0.00    +0.000 A 
ATOM      9  O   UNL     1       3.526   3.198  19.813  0.00  0.00    +0.000 OA
ATOM     10  N   UNL     1       2.708   5.363  19.912  0.00  0.00    +0.000 N 
ATOM     11  C   UNL     1       1.879   5.023  21.057  0.00  0.00    +0.000 C 
ATOM     12  C   UNL     1       2.643   6.661  19.325  0.00  0.00    +0.000 A 
ATOM     13  C   UNL     1       1.803   7.669  19.856  0.00  0.00    +0.000 A 
ATOM     14  C   UNL     1       1.654   8.902  19.197  0.00  0.00    +0.000 A 
ATOM     15  C   UNL     1       2.357   9.146  18.025  0.00  0.00    +0.000 A 
ATOM     16  C   UNL     1       3.251   8.193  17.543  0.00  0.00    +0.000 A 
ATOM     17  C   UNL     1       3.381   6.934  18.155  0.00  0.00    +0.000 A 
ENDBRANCH   1  14
BRANCH   1  18
ATOM     18  N   UNL     1      -0.188  10.749  18.220  0.00  0.00    +0.000 NA
ATOM     19  C   UNL     1      -1.317  10.093  17.492  0.00  0.00    +0.000 C 
ATOM     20  C   UNL     1      -2.702  10.289  18.160  0.00  0.00    +0.000 C 
ATOM     21  N   UNL     1      -2.981  11.690  18.571  0.00  0.00    +0.000 N 
ATOM     22  C   UNL     1      -1.830  12.427  19.148  0.00  0.00    +0.000 C 
ATOM     23  C   UNL     1      -0.526  12.208  18.357  0.00  0.00    +0.000 C 
BRANCH  21  24
ATOM     24  C   UNL     1      -4.259  11.959  19.129  0.00  0.00    +0.000 A 
ATOM     25  C   UNL     1      -4.384  12.427  20.454  0.00  0.00    +0.000 A 
ATOM     26  C   UNL     1      -5.630  12.601  21.083  0.00  0.00    +0.000 A 
ATOM     27  C   UNL     1      -6.807  12.313  20.406  0.00  0.00    +0.000 A 
ATOM     28  C   UNL     1      -6.734  11.877  19.091  0.00  0.00    +0.000 A 
ATOM     29  C   UNL     1      -5.490  11.709  18.472  0.00  0.00    +0.000 A 
ATOM     30  F   UNL     1      -5.531  11.303  17.193  0.00  0.00    +0.000 F 
ENDBRANCH  21  24
ENDBRANCH   1  18
TORSDOF 3
ENDMDL
MODEL 2
REMARK VINA RESULT:      -7.5      0.857      1.209
REMARK  Name = 
REMARK  5 active torsions:
REMARK  status: ('A' for Active; 'I' for Inactive)
REMARK    1  A    between atoms: C_1  and  N_2
REMARK    2  A    between atoms: N_7  and  C_8
REMARK    3  A    between atoms: C_11  and  S_12
REMARK    4  A    between atoms: S_12  and  N_15
REMARK    5  A    between atoms: N_18  and  C_19
REMARK                            x       y       z     vdW  Elec       q    Type
REMARK                         _______ _______ _______ _____ _____    ______ ____
ROOT
ATOM      1  S   UNL     1       0.321   9.966  19.749  0.00  0.00    +0.000 S 
ATOM      2  O   UNL     1      -0.792   9.169  20.229  0.00  0.00    +0.000 OA
ATOM      3  O   UNL     1       0.941  10.951  20.615  0.00  0.00    +0.000 OA
ENDROOT
BRANCH   1  14
ATOM      4  C   UNL     1       4.777   6.115  16.325  0.00  0.00    +0.000 C 
ATOM      5  N   UNL     1       4.140   5.864  17.610  0.00  0.00    +0.000 N 
ATOM      6  C   UNL     1       4.195   4.567  18.111  0.00  0.00    +0.000 A 
ATOM      7  O   UNL     1       4.804   3.652  17.562  0.00  0.00    +0.000 OA
ATOM      8  C   UNL     1       3.418   4.261  19.396  0.00  0.00    +0.000 A 
ATOM      9  O   UNL     1       3.475   3.122  19.853  0.00  0.00    +0.000 OA
ATOM     10  N   UNL     1       2.662   5.288  19.966  0.00  0.00    +0.000 N 
ATOM     11  C   UNL     1       1.833   4.943  21.110  0.00  0.00    +0.000 C 
ATOM     12  C   UNL     1       2.600   6.590  19.387  0.00  0.00    +0.000 A 
ATOM     13  C   UNL     1       1.762   7.596  19.925  0.00  0.00    +0.000 A 
ATOM     14  C   UNL     1       1.615   8.833  19.274  0.00  0.00    +0.000 A 
ATOM     15  C   UNL     1       2.318   9.083  18.102  0.00  0.00    +0.000 A 
ATOM     16  C   UNL     1       3.210   8.131  17.614  0.00  0.00    +0.000 A 
ATOM     17  C   UNL     1       3.338   6.868  18.219  0.00  0.00    +0.000 A 
ENDBRANCH   1  14
BRANCH   1  18
ATOM     18  N   UNL     1      -0.153  10.764  18.323  0.00  0.00    +0.000 NA
ATOM     19  C   UNL     1      -1.130  10.077  17.423  0.00  0.00    +0.000 C 
ATOM     20  C   UNL     1      -2.587  10.073  17.954  0.00  0.00    +0.000 C 
ATOM     21  N   UNL     1      -3.051  11.392  18.455  0.00  0.00    +0.000 N 
ATOM     22  C   UNL     1      -2.046  12.177  19.215  0.00  0.00    +0.000 C 
ATOM     23  C   UNL     1      -0.656  12.163  18.552  0.00  0.00    +0.000 C 
BRANCH  21  24
ATOM     24  C   UNL     1      -4.399  11.480  18.895  0.00  0.00    +0.000 A 
ATOM     25  C   UNL     1      -5.420  10.756  18.244  0.00  0.00    +0.000 A 
ATOM     26  C   UNL     1      -6.779  10.898  18.575  0.00  0.00    +0.000 A 
ATOM     27  C   UNL     1      -7.173  11.773  19.577  0.00  0.00    +0.000 A 
ATOM     28  C   UNL     1      -6.201  12.485  20.266  0.00  0.00    +0.000 A 
ATOM     29  C   UNL     1      -4.850  12.337  19.931  0.00  0.00    +0.000 A 
ATOM     30  F   UNL     1      -3.989  13.055  20.670  0.00  0.00    +0.000 F 
ENDBRANCH  21  24
ENDBRANCH   1  18
TORSDOF 3
ENDMDL
MODEL 3
REMARK VINA RESULT:      -7.5      2.499      2.757
REMARK  Name = 
REMARK  5 active torsions:
REMARK  status: ('A' for Active; 'I' for Inactive)
REMARK    1  A    between atoms: C_1  and  N_2
REMARK    2  A    between atoms: N_7  and  C_8
REMARK    3  A    between atoms: C_11  and  S_12
REMARK    4  A    between atoms: S_12  and  N_15
REMARK    5  A    between atoms: N_18  and  C_19
REMARK                            x       y       z     vdW  Elec       q    Type
REMARK                         _______ _______ _______ _____ _____    ______ ____
ROOT
ATOM      1  S   UNL     1       0.825   8.929  21.045  0.00  0.00    +0.000 S 
ATOM      2  O   UNL     1      -0.489   8.331  21.180  0.00  0.00    +0.000 OA
ATOM      3  O   UNL     1       1.549   9.377  22.221  0.00  0.00    +0.000 OA
ENDROOT
BRANCH   1  14
ATOM      4  C   UNL     1       4.285   5.168  16.539  0.00  0.00    +0.000 C 
ATOM      5  N   UNL     1       3.728   4.781  17.828  0.00  0.00    +0.000 N 
ATOM      6  C   UNL     1       3.614   3.420  18.094  0.00  0.00    +0.000 A 
ATOM      7  O   UNL     1       4.017   2.543  17.334  0.00  0.00    +0.000 OA
ATOM      8  C   UNL     1       2.911   2.999  19.389  0.00  0.00    +0.000 A 
ATOM      9  O   UNL     1       2.821   1.799  19.639  0.00  0.00    +0.000 OA
ATOM     10  N   UNL     1       2.384   4.002  20.206  0.00  0.00    +0.000 N 
ATOM     11  C   UNL     1       1.611   3.577  21.362  0.00  0.00    +0.000 C 
ATOM     12  C   UNL     1       2.485   5.383  19.865  0.00  0.00    +0.000 A 
ATOM     13  C   UNL     1       1.871   6.384  20.656  0.00  0.00    +0.000 A 
ATOM     14  C   UNL     1       1.872   7.728  20.243  0.00  0.00    +0.000 A 
ATOM     15  C   UNL     1       2.503   8.084  19.058  0.00  0.00    +0.000 A 
ATOM     16  C   UNL     1       3.183   7.119  18.318  0.00  0.00    +0.000 A 
ATOM     17  C   UNL     1       3.155   5.761  18.684  0.00  0.00    +0.000 A 
ENDBRANCH   1  14
BRANCH   1  18
ATOM     18  N   UNL     1       0.717  10.249  19.976  0.00  0.00    +0.000 NA
ATOM     19  C   UNL     1      -0.556  10.437  19.216  0.00  0.00    +0.000 C 
ATOM     20  C   UNL     1      -1.731  10.979  20.070  0.00  0.00    +0.000 C 
ATOM     21  N   UNL     1      -1.367  12.132  20.934  0.00  0.00    +0.000 N 
ATOM     22  C   UNL     1      -0.031  12.053  21.575  0.00  0.00    +0.000 C 
ATOM     23  C   UNL     1       1.066  11.569  20.608  0.00  0.00    +0.000 C 
BRANCH  21  24
ATOM     24  C   UNL     1      -2.409  12.726  21.695  0.00  0.00    +0.000 A 
ATOM     25  C   UNL     1      -3.067  13.886  21.236  0.00  0.00    +0.000 A 
ATOM     26  C   UNL     1      -4.026  14.569  22.006  0.00  0.00    +0.000 A 
ATOM     27  C   UNL     1      -4.367  14.113  23.272  0.00  0.00    +0.000 A 
ATOM     28  C   UNL     1      -3.767  12.959  23.753  0.00  0.00    +0.000 A 
ATOM     29  C   UNL     1      -2.815  12.285  22.979  0.00  0.00    +0.000 A 
ATOM     30  F   UNL     1      -2.310  11.168  23.528  0.00  0.00    +0.000 F 
ENDBRANCH  21  24
ENDBRANCH   1  18
TORSDOF 3
ENDMDL
MODEL 4
REMARK VINA RESULT:      -7.4      4.443     10.094
REMARK  Name = 
REMARK  5 active torsions:
REMARK  status: ('A' for Active; 'I' for Inactive)
REMARK    1  A    between atoms: C_1  and  N_2
REMARK    2  A    between atoms: N_7  and  C_8
REMARK    3  A    between atoms: C_11  and  S_12
REMARK    4  A    between atoms: S_12  and  N_15
REMARK    5  A    between atoms: N_18  and  C_19
REMARK                            x       y       z     vdW  Elec       q    Type
REMARK                         _______ _______ _______ _____ _____    ______ ____
ROOT
ATOM      1  S   UNL     1       3.877   5.084  18.513  0.00  0.00    +0.000 S 
ATOM      2  O   UNL     1       3.993   3.926  19.379  0.00  0.00    +0.000 OA
ATOM      3  O   UNL     1       3.229   4.967  17.219  0.00  0.00    +0.000 OA
ENDROOT
BRANCH   1  14
ATOM      4  C   UNL     1      -0.643   8.496  22.300  0.00  0.00    +0.000 C 
ATOM      5  N   UNL     1       0.167   8.967  21.185  0.00  0.00    +0.000 N 
ATOM      6  C   UNL     1      -0.193  10.176  20.598  0.00  0.00    +0.000 A 
ATOM      7  O   UNL     1      -1.104  10.888  21.011  0.00  0.00    +0.000 OA
ATOM      8  C   UNL     1       0.569  10.618  19.343  0.00  0.00    +0.000 A 
ATOM      9  O   UNL     1       0.268  11.692  18.828  0.00  0.00    +0.000 OA
ATOM     10  N   UNL     1       1.548   9.761  18.834  0.00  0.00    +0.000 N 
ATOM     11  C   UNL     1       2.167  10.139  17.574  0.00  0.00    +0.000 C 
ATOM     12  C   UNL     1       1.846   8.509  19.445  0.00  0.00    +0.000 A 
ATOM     13  C   UNL     1       2.778   7.611  18.870  0.00  0.00    +0.000 A 
ATOM     14  C   UNL     1       2.971   6.329  19.414  0.00  0.00    +0.000 A 
ATOM     15  C   UNL     1       2.260   5.945  20.543  0.00  0.00    +0.000 A 
ATOM     16  C   UNL     1       1.405   6.853  21.165  0.00  0.00    +0.000 A 
ATOM     17  C   UNL     1       1.158   8.122  20.613  0.00  0.00    +0.000 A 
ENDBRANCH   1  14
BRANCH   1  18
ATOM     18  N   UNL     1       5.430   5.729  18.251  0.00  0.00    +0.000 NA
ATOM     19  C   UNL     1       6.553   4.776  17.991  0.00  0.00    +0.000 C 
ATOM     20  C   UNL     1       6.532   4.143  16.576  0.00  0.00    +0.000 C 
ATOM     21  N   UNL     1       6.303   5.120  15.481  0.00  0.00    +0.000 N 
ATOM     22  C   UNL     1       5.309   6.183  15.771  0.00  0.00    +0.000 C 
ATOM     23  C   UNL     1       5.475   6.783  17.180  0.00  0.00    +0.000 C 
BRANCH  21  24
ATOM     24  C   UNL     1       6.338   4.622  14.151  0.00  0.00    +0.000 A 
ATOM     25  C   UNL     1       5.331   3.754  13.678  0.00  0.00    +0.000 A 
ATOM     26  C   UNL     1       5.385   3.151  12.409  0.00  0.00    +0.000 A 
ATOM     27  C   UNL     1       6.453   3.395  11.557  0.00  0.00    +0.000 A 
ATOM     28  C   UNL     1       7.452   4.265  11.967  0.00  0.00    +0.000 A 
ATOM     29  C   UNL     1       7.391   4.863  13.232  0.00  0.00    +0.000 A 
ATOM     30  F   UNL     1       8.397   5.703  13.524  0.00  0.00    +0.000 F 
ENDBRANCH  21  24
ENDBRANCH   1  18
TORSDOF 3
ENDMDL
MODEL 5
REMARK VINA RESULT:      -7.4      2.403      2.931
REMARK  Name = 
REMARK  5 active torsions:
REMARK  status: ('A' for Active; 'I' for Inactive)
REMARK    1  A    between atoms: C_1  and  N_2
REMARK    2  A    between atoms: N_7  and  C_8
REMARK    3  A    between atoms: C_11  and  S_12
REMARK    4  A    between atoms: S_12  and  N_15
REMARK    5  A    between atoms: N_18  and  C_19
REMARK                            x       y       z     vdW  Elec       q    Type
REMARK                         _______ _______ _______ _____ _____    ______ ____
ROOT
ATOM      1  S   UNL     1       0.066   8.984  20.751  0.00  0.00    +0.000 S 
ATOM      2  O   UNL     1      -0.566   9.770  19.708  0.00  0.00    +0.000 OA
ATOM      3  O   UNL     1      -0.696   7.982  21.474  0.00  0.00    +0.000 OA
ENDROOT
BRANCH   1  14
ATOM      4  C   UNL     1       4.612   6.325  16.429  0.00  0.00    +0.000 C 
ATOM      5  N   UNL     1       4.143   5.807  17.707  0.00  0.00    +0.000 N 
ATOM      6  C   UNL     1       4.413   4.472  17.995  0.00  0.00    +0.000 A 
ATOM      7  O   UNL     1       5.075   3.740  17.266  0.00  0.00    +0.000 OA
ATOM      8  C   UNL     1       3.813   3.881  19.276  0.00  0.00    +0.000 A 
ATOM      9  O   UNL     1       4.060   2.708  19.546  0.00  0.00    +0.000 OA
ATOM     10  N   UNL     1       2.993   4.700  20.056  0.00  0.00    +0.000 N 
ATOM     11  C   UNL     1       2.333   4.082  21.195  0.00  0.00    +0.000 C 
ATOM     12  C   UNL     1       2.708   6.048  19.692  0.00  0.00    +0.000 A 
ATOM     13  C   UNL     1       1.807   6.840  20.443  0.00  0.00    +0.000 A 
ATOM     14  C   UNL     1       1.439   8.124  20.005  0.00  0.00    +0.000 A 
ATOM     15  C   UNL     1       1.984   8.634  18.833  0.00  0.00    +0.000 A 
ATOM     16  C   UNL     1       2.937   7.896  18.134  0.00  0.00    +0.000 A 
ATOM     17  C   UNL     1       3.284   6.591  18.525  0.00  0.00    +0.000 A 
ENDBRANCH   1  14
BRANCH   1  18
ATOM     18  N   UNL     1       0.741  10.042  21.900  0.00  0.00    +0.000 NA
ATOM     19  C   UNL     1       0.944  11.471  21.507  0.00  0.00    +0.000 C 
ATOM     20  C   UNL     1      -0.361  12.304  21.445  0.00  0.00    +0.000 C 
ATOM     21  N   UNL     1      -1.250  12.121  22.623  0.00  0.00    +0.000 N 
ATOM     22  C   UNL     1      -1.345  10.735  23.143  0.00  0.00    +0.000 C 
ATOM     23  C   UNL     1       0.025  10.035  23.223  0.00  0.00    +0.000 C 
BRANCH  21  24
ATOM     24  C   UNL     1      -2.434  12.905  22.667  0.00  0.00    +0.000 A 
ATOM     25  C   UNL     1      -2.722  13.715  23.787  0.00  0.00    +0.000 A 
ATOM     26  C   UNL     1      -3.932  14.419  23.922  0.00  0.00    +0.000 A 
ATOM     27  C   UNL     1      -4.906  14.342  22.936  0.00  0.00    +0.000 A 
ATOM     28  C   UNL     1      -4.655  13.582  21.803  0.00  0.00    +0.000 A 
ATOM     29  C   UNL     1      -3.447  12.885  21.676  0.00  0.00    +0.000 A 
ATOM     30  F   UNL     1      -3.295  12.196  20.533  0.00  0.00    +0.000 F 
ENDBRANCH  21  24
ENDBRANCH   1  18
TORSDOF 3
ENDMDL
MODEL 6
REMARK VINA RESULT:      -7.4      2.661      3.223
REMARK  Name = 
REMARK  5 active torsions:
REMARK  status: ('A' for Active; 'I' for Inactive)
REMARK    1  A    between atoms: C_1  and  N_2
REMARK    2  A    between atoms: N_7  and  C_8
REMARK    3  A    between atoms: C_11  and  S_12
REMARK    4  A    between atoms: S_12  and  N_15
REMARK    5  A    between atoms: N_18  and  C_19
REMARK                            x       y       z     vdW  Elec       q    Type
REMARK                         _______ _______ _______ _____ _____    ______ ____
ROOT
ATOM      1  S   UNL     1      -0.053   9.135  20.723  0.00  0.00    +0.000 S 
ATOM      2  O   UNL     1      -0.760   9.809  19.650  0.00  0.00    +0.000 OA
ATOM      3  O   UNL     1      -0.735   8.148  21.541  0.00  0.00    +0.000 OA
ENDROOT
BRANCH   1  14
ATOM      4  C   UNL     1       4.569   6.532  16.448  0.00  0.00    +0.000 C 
ATOM      5  N   UNL     1       4.108   6.018  17.731  0.00  0.00    +0.000 N 
ATOM      6  C   UNL     1       4.407   4.694  18.035  0.00  0.00    +0.000 A 
ATOM      7  O   UNL     1       5.089   3.968  17.316  0.00  0.00    +0.000 OA
ATOM      8  C   UNL     1       3.816   4.103  19.320  0.00  0.00    +0.000 A 
ATOM      9  O   UNL     1       4.089   2.939  19.604  0.00  0.00    +0.000 OA
ATOM     10  N   UNL     1       2.975   4.912  20.088  0.00  0.00    +0.000 N 
ATOM     11  C   UNL     1       2.325   4.292  21.232  0.00  0.00    +0.000 C 
ATOM     12  C   UNL     1       2.660   6.249  19.707  0.00  0.00    +0.000 A 
ATOM     13  C   UNL     1       1.738   7.029  20.446  0.00  0.00    +0.000 A 
ATOM     14  C   UNL     1       1.343   8.298  19.992  0.00  0.00    +0.000 A 
ATOM     15  C   UNL     1       1.880   8.808  18.817  0.00  0.00    +0.000 A 
ATOM     16  C   UNL     1       2.853   8.084  18.130  0.00  0.00    +0.000 A 
ATOM     17  C   UNL     1       3.228   6.792  18.537  0.00  0.00    +0.000 A 
ENDBRANCH   1  14
BRANCH   1  18
ATOM     18  N   UNL     1       0.597  10.308  21.771  0.00  0.00    +0.000 NA
ATOM     19  C   UNL     1       0.655  11.724  21.293  0.00  0.00    +0.000 C 
ATOM     20  C   UNL     1      -0.718  12.443  21.273  0.00  0.00    +0.000 C 
ATOM     21  N   UNL     1      -1.517  12.255  22.512  0.00  0.00    +0.000 N 
ATOM     22  C   UNL     1      -1.462  10.897  23.107  0.00  0.00    +0.000 C 
ATOM     23  C   UNL     1      -0.036  10.317  23.135  0.00  0.00    +0.000 C 
BRANCH  21  24
ATOM     24  C   UNL     1      -2.758  12.941  22.592  0.00  0.00    +0.000 A 
ATOM     25  C   UNL     1      -3.749  12.759  21.603  0.00  0.00    +0.000 A 
ATOM     26  C   UNL     1      -4.945  13.498  21.584  0.00  0.00    +0.000 A 
ATOM     27  C   UNL     1      -5.200  14.452  22.559  0.00  0.00    +0.000 A 
ATOM     28  C   UNL     1      -4.268  14.645  23.568  0.00  0.00    +0.000 A 
ATOM     29  C   UNL     1      -3.081  13.903  23.582  0.00  0.00    +0.000 A 
ATOM     30  F   UNL     1      -2.256  14.151  24.612  0.00  0.00    +0.000 F 
ENDBRANCH  21  24
ENDBRANCH   1  18
TORSDOF 3
ENDMDL
MODEL 7
REMARK VINA RESULT:      -7.4      1.510      2.759
REMARK  Name = 
REMARK  5 active torsions:
REMARK  status: ('A' for Active; 'I' for Inactive)
REMARK    1  A    between atoms: C_1  and  N_2
REMARK    2  A    between atoms: N_7  and  C_8
REMARK    3  A    between atoms: C_11  and  S_12
REMARK    4  A    between atoms: S_12  and  N_15
REMARK    5  A    between atoms: N_18  and  C_19
REMARK                            x       y       z     vdW  Elec       q    Type
REMARK                         _______ _______ _______ _____ _____    ______ ____
ROOT
ATOM      1  S   UNL     1       0.908   9.313  20.817  0.00  0.00    +0.000 S 
ATOM      2  O   UNL     1      -0.530   9.284  21.007  0.00  0.00    +0.000 OA
ATOM      3  O   UNL     1       1.780   9.726  21.901  0.00  0.00    +0.000 OA
ENDROOT
BRANCH   1  14
ATOM      4  C   UNL     1       2.924   2.805  20.841  0.00  0.00    +0.000 C 
ATOM      5  N   UNL     1       3.201   3.852  19.867  0.00  0.00    +0.000 N 
ATOM      6  C   UNL     1       4.230   3.625  18.959  0.00  0.00    +0.000 A 
ATOM      7  O   UNL     1       4.862   2.574  18.895  0.00  0.00    +0.000 OA
ATOM      8  C   UNL     1       4.618   4.770  18.016  0.00  0.00    +0.000 A 
ATOM      9  O   UNL     1       5.515   4.572  17.199  0.00  0.00    +0.000 OA
ATOM     10  N   UNL     1       3.949   5.988  18.152  0.00  0.00    +0.000 N 
ATOM     11  C   UNL     1       4.420   7.096  17.336  0.00  0.00    +0.000 C 
ATOM     12  C   UNL     1       2.933   6.185  19.132  0.00  0.00    +0.000 A 
ATOM     13  C   UNL     1       2.324   7.450  19.319  0.00  0.00    +0.000 A 
ATOM     14  C   UNL     1       1.415   7.662  20.370  0.00  0.00    +0.000 A 
ATOM     15  C   UNL     1       1.089   6.615  21.221  0.00  0.00    +0.000 A 
ATOM     16  C   UNL     1       1.617   5.346  20.992  0.00  0.00    +0.000 A 
ATOM     17  C   UNL     1       2.566   5.120  19.979  0.00  0.00    +0.000 A 
ENDBRANCH   1  14
BRANCH   1  18
ATOM     18  N   UNL     1       1.262  10.295  19.472  0.00  0.00    +0.000 NA
ATOM     19  C   UNL     1       0.793   9.841  18.127  0.00  0.00    +0.000 C 
ATOM     20  C   UNL     1      -0.731  10.005  17.898  0.00  0.00    +0.000 C 
ATOM     21  N   UNL     1      -1.265  11.329  18.308  0.00  0.00    +0.000 N 
ATOM     22  C   UNL     1      -0.695  11.887  19.560  0.00  0.00    +0.000 C 
ATOM     23  C   UNL     1       0.834  11.727  19.640  0.00  0.00    +0.000 C 
BRANCH  21  24
ATOM     24  C   UNL     1      -2.643  11.576  18.065  0.00  0.00    +0.000 A 
ATOM     25  C   UNL     1      -3.506  11.949  19.118  0.00  0.00    +0.000 A 
ATOM     26  C   UNL     1      -4.893  12.095  18.944  0.00  0.00    +0.000 A 
ATOM     27  C   UNL     1      -5.475  11.875  17.704  0.00  0.00    +0.000 A 
ATOM     28  C   UNL     1      -4.663  11.536  16.632  0.00  0.00    +0.000 A 
ATOM     29  C   UNL     1      -3.281  11.394  16.813  0.00  0.00    +0.000 A 
ATOM     30  F   UNL     1      -2.583  11.083  15.709  0.00  0.00    +0.000 F 
ENDBRANCH  21  24
ENDBRANCH   1  18
TORSDOF 3
ENDMDL
MODEL 8
REMARK VINA RESULT:      -7.4      2.467      3.006
REMARK  Name = 
REMARK  5 active torsions:
REMARK  status: ('A' for Active; 'I' for Inactive)
REMARK    1  A    between atoms: C_1  and  N_2
REMARK    2  A    between atoms: N_7  and  C_8
REMARK    3  A    between atoms: C_11  and  S_12
REMARK    4  A    between atoms: S_12  and  N_15
REMARK    5  A    between atoms: N_18  and  C_19
REMARK                            x       y       z     vdW  Elec       q    Type
REMARK                         _______ _______ _______ _____ _____    ______ ____
ROOT
ATOM      1  S   UNL     1       0.079   9.751  19.439  0.00  0.00    +0.000 S 
ATOM      2  O   UNL     1      -0.754   9.820  18.254  0.00  0.00    +0.000 OA
ATOM      3  O   UNL     1      -0.452   9.205  20.675  0.00  0.00    +0.000 OA
ENDROOT
BRANCH   1  14
ATOM      4  C   UNL     1       5.029   6.344  16.231  0.00  0.00    +0.000 C 
ATOM      5  N   UNL     1       4.391   6.056  17.508  0.00  0.00    +0.000 N 
ATOM      6  C   UNL     1       4.579   4.787  18.046  0.00  0.00    +0.000 A 
ATOM      7  O   UNL     1       5.301   3.933  17.539  0.00  0.00    +0.000 OA
ATOM      8  C   UNL     1       3.808   4.428  19.322  0.00  0.00    +0.000 A 
ATOM      9  O   UNL     1       3.981   3.315  19.812  0.00  0.00    +0.000 OA
ATOM     10  N   UNL     1       2.926   5.377  19.844  0.00  0.00    +0.000 N 
ATOM     11  C   UNL     1       2.112   4.970  20.978  0.00  0.00    +0.000 C 
ATOM     12  C   UNL     1       2.733   6.648  19.227  0.00  0.00    +0.000 A 
ATOM     13  C   UNL     1       1.773   7.566  19.716  0.00  0.00    +0.000 A 
ATOM     14  C   UNL     1       1.504   8.761  19.027  0.00  0.00    +0.000 A 
ATOM     15  C   UNL     1       2.205   9.059  17.865  0.00  0.00    +0.000 A 
ATOM     16  C   UNL     1       3.212   8.202  17.425  0.00  0.00    +0.000 A 
ATOM     17  C   UNL     1       3.465   6.978  18.069  0.00  0.00    +0.000 A 
ENDBRANCH   1  14
BRANCH   1  18
ATOM     18  N   UNL     1       0.671  11.310  19.781  0.00  0.00    +0.000 NA
ATOM     19  C   UNL     1      -0.117  12.484  19.296  0.00  0.00    +0.000 C 
ATOM     20  C   UNL     1      -1.413  12.755  20.101  0.00  0.00    +0.000 C 
ATOM     21  N   UNL     1      -1.228  12.720  21.575  0.00  0.00    +0.000 N 
ATOM     22  C   UNL     1      -0.315  11.664  22.078  0.00  0.00    +0.000 C 
ATOM     23  C   UNL     1       0.969  11.537  21.238  0.00  0.00    +0.000 C 
BRANCH  21  24
ATOM     24  C   UNL     1      -2.359  13.026  22.377  0.00  0.00    +0.000 A 
ATOM     25  C   UNL     1      -3.659  12.675  21.956  0.00  0.00    +0.000 A 
ATOM     26  C   UNL     1      -4.813  13.054  22.664  0.00  0.00    +0.000 A 
ATOM     27  C   UNL     1      -4.712  13.803  23.828  0.00  0.00    +0.000 A 
ATOM     28  C   UNL     1      -3.453  14.146  24.297  0.00  0.00    +0.000 A 
ATOM     29  C   UNL     1      -2.308  13.763  23.588  0.00  0.00    +0.000 A 
ATOM     30  F   UNL     1      -1.138  14.128  24.136  0.00  0.00    +0.000 F 
ENDBRANCH  21  24
ENDBRANCH   1  18
TORSDOF 3
ENDMDL
MODEL 9
REMARK VINA RESULT:      -7.4      1.645      1.831
REMARK  Name = 
REMARK  5 active torsions:
REMARK  status: ('A' for Active; 'I' for Inactive)
REMARK    1  A    between atoms: C_1  and  N_2
REMARK    2  A    between atoms: N_7  and  C_8
REMARK    3  A    between atoms: C_11  and  S_12
REMARK    4  A    between atoms: S_12  and  N_15
REMARK    5  A    between atoms: N_18  and  C_19
REMARK                            x       y       z     vdW  Elec       q    Type
REMARK                         _______ _______ _______ _____ _____    ______ ____
ROOT
ATOM      1  S   UNL     1       0.890   8.996  20.906  0.00  0.00    +0.000 S 
ATOM      2  O   UNL     1      -0.456   8.460  20.966  0.00  0.00    +0.000 OA
ATOM      3  O   UNL     1       1.572   9.397  22.123  0.00  0.00    +0.000 OA
ENDROOT
BRANCH   1  14
ATOM      4  C   UNL     1       4.311   5.062  16.521  0.00  0.00    +0.000 C 
ATOM      5  N   UNL     1       3.736   4.716  17.814  0.00  0.00    +0.000 N 
ATOM      6  C   UNL     1       3.594   3.364  18.111  0.00  0.00    +0.000 A 
ATOM      7  O   UNL     1       3.985   2.462  17.376  0.00  0.00    +0.000 OA
ATOM      8  C   UNL     1       2.872   2.989  19.411  0.00  0.00    +0.000 A 
ATOM      9  O   UNL     1       2.757   1.797  19.688  0.00  0.00    +0.000 OA
ATOM     10  N   UNL     1       2.359   4.021  20.198  0.00  0.00    +0.000 N 
ATOM     11  C   UNL     1       1.568   3.639  21.357  0.00  0.00    +0.000 C 
ATOM     12  C   UNL     1       2.489   5.391  19.825  0.00  0.00    +0.000 A 
ATOM     13  C   UNL     1       1.889   6.423  20.587  0.00  0.00    +0.000 A 
ATOM     14  C   UNL     1       1.920   7.756  20.141  0.00  0.00    +0.000 A 
ATOM     15  C   UNL     1       2.567   8.072  18.954  0.00  0.00    +0.000 A 
ATOM     16  C   UNL     1       3.234   7.076  18.244  0.00  0.00    +0.000 A 
ATOM     17  C   UNL     1       3.176   5.728  18.641  0.00  0.00    +0.000 A 
ENDBRANCH   1  14
BRANCH   1  18
ATOM     18  N   UNL     1       0.899  10.332  19.851  0.00  0.00    +0.000 NA
ATOM     19  C   UNL     1      -0.155  10.400  18.793  0.00  0.00    +0.000 C 
ATOM     20  C   UNL     1      -1.562  10.776  19.323  0.00  0.00    +0.000 C 
ATOM     21  N   UNL     1      -1.567  11.932  20.256  0.00  0.00    +0.000 N 
ATOM     22  C   UNL     1      -0.436  11.983  21.216  0.00  0.00    +0.000 C 
ATOM     23  C   UNL     1       0.918  11.660  20.557  0.00  0.00    +0.000 C 
BRANCH  21  24
ATOM     24  C   UNL     1      -2.830  12.377  20.730  0.00  0.00    +0.000 A 
ATOM     25  C   UNL     1      -3.029  12.661  22.098  0.00  0.00    +0.000 A 
ATOM     26  C   UNL     1      -4.287  12.996  22.628  0.00  0.00    +0.000 A 
ATOM     27  C   UNL     1      -5.403  13.062  21.805  0.00  0.00    +0.000 A 
ATOM     28  C   UNL     1      -5.251  12.820  20.449  0.00  0.00    +0.000 A 
ATOM     29  C   UNL     1      -3.994  12.489  19.928  0.00  0.00    +0.000 A 
ATOM     30  F   UNL     1      -3.950  12.293  18.601  0.00  0.00    +0.000 F 
ENDBRANCH  21  24
ENDBRANCH   1  18
TORSDOF 3
ENDMDL
