MODEL 1
REMARK VINA RESULT:      -8.9      0.000      0.000
REMARK  Name = 
REMARK  4 active torsions:
REMARK  status: ('A' for Active; 'I' for Inactive)
REMARK    1  A    between atoms: C_1  and  C_2
REMARK    2  A    between atoms: C_2  and  C_4
REMARK    3  A    between atoms: C_6  and  C_7
REMARK    4  A    between atoms: N_22  and  C_23
REMARK                            x       y       z     vdW  Elec       q    Type
REMARK                         _______ _______ _______ _____ _____    ______ ____
ROOT
ATOM      1  C   UNL     1       2.495   4.767  18.086  0.00  0.00    +0.000 C 
ATOM      2  C   UNL     1       2.126   6.188  18.526  0.00  0.00    +0.000 A 
ATOM      3  C   UNL     1       2.332   7.269  17.653  0.00  0.00    +0.000 A 
ATOM      4  C   UNL     1       2.139   8.579  18.089  0.00  0.00    +0.000 A 
ATOM      5  C   UNL     1       1.695   8.836  19.393  0.00  0.00    +0.000 A 
ATOM      6  C   UNL     1       1.484  10.143  19.852  0.00  0.00    +0.000 A 
ATOM      7  C   UNL     1       1.009  10.359  21.139  0.00  0.00    +0.000 A 
ATOM      8  C   UNL     1       0.769   9.256  21.933  0.00  0.00    +0.000 A 
ATOM      9  N   UNL     1       0.978   7.982  21.536  0.00  0.00    +0.000 NA
ATOM     10  C   UNL     1       1.437   7.770  20.279  0.00  0.00    +0.000 A 
ATOM     11  C   UNL     1       1.682   6.463  19.830  0.00  0.00    +0.000 A 
ATOM     12  N   UNL     1       1.306   5.398  20.712  0.00  0.00    +0.000 N 
ATOM     13  S   UNL     1       2.172   3.991  20.616  0.00  0.00    +0.000 S 
ATOM     14  O   UNL     1       3.561   4.262  20.887  0.00  0.00    +0.000 OA
ATOM     15  O   UNL     1       1.450   2.981  21.356  0.00  0.00    +0.000 OA
ATOM     16  N   UNL     1       1.981   3.710  18.984  0.00  0.00    +0.000 NA
ATOM     17  C   UNL     1       2.118   2.320  18.544  0.00  0.00    +0.000 C 
ATOM     18  H   UNL     1       1.186   5.729  21.673  0.00  0.00    +0.000 HD
ENDROOT
BRANCH   1  21
ATOM     19  C   UNL     1       6.360   5.106  18.167  0.00  0.00    +0.000 A 
ATOM     20  C   UNL     1       5.010   5.127  18.552  0.00  0.00    +0.000 A 
ATOM     21  C   UNL     1       3.988   4.633  17.713  0.00  0.00    +0.000 A 
ATOM     22  C   UNL     1       4.371   4.054  16.491  0.00  0.00    +0.000 A 
ATOM     23  C   UNL     1       5.720   3.952  16.139  0.00  0.00    +0.000 A 
ATOM     24  C   UNL     1       6.703   4.485  16.970  0.00  0.00    +0.000 A 
ATOM     25  F   UNL     1       7.976   4.396  16.562  0.00  0.00    +0.000 F 
BRANCH  19  27
ATOM     26  C   UNL     1       8.027   7.063  18.503  0.00  0.00    +0.000 C 
ATOM     27  C   UNL     1       7.345   5.827  19.024  0.00  0.00    +0.000 C 
ATOM     28  O   UNL     1       7.549   5.436  20.172  0.00  0.00    +0.000 OA
ENDBRANCH  19  27
ENDBRANCH   1  21
TORSDOF 2
ENDMDL
MODEL 2
REMARK VINA RESULT:      -8.7      3.027      6.464
REMARK  Name = 
REMARK  4 active torsions:
REMARK  status: ('A' for Active; 'I' for Inactive)
REMARK    1  A    between atoms: C_1  and  C_2
REMARK    2  A    between atoms: C_2  and  C_4
REMARK    3  A    between atoms: C_6  and  C_7
REMARK    4  A    between atoms: N_22  and  C_23
REMARK                            x       y       z     vdW  Elec       q    Type
REMARK                         _______ _______ _______ _____ _____    ______ ____
ROOT
ATOM      1  C   UNL     1       3.283   5.557  19.328  0.00  0.00    +0.000 C 
ATOM      2  C   UNL     1       4.352   5.504  18.232  0.00  0.00    +0.000 A 
ATOM      3  C   UNL     1       5.380   6.461  18.209  0.00  0.00    +0.000 A 
ATOM      4  C   UNL     1       6.274   6.515  17.140  0.00  0.00    +0.000 A 
ATOM      5  C   UNL     1       6.186   5.588  16.092  0.00  0.00    +0.000 A 
ATOM      6  C   UNL     1       7.078   5.616  15.012  0.00  0.00    +0.000 A 
ATOM      7  C   UNL     1       6.985   4.659  14.010  0.00  0.00    +0.000 A 
ATOM      8  C   UNL     1       5.991   3.707  14.115  0.00  0.00    +0.000 A 
ATOM      9  N   UNL     1       5.100   3.658  15.128  0.00  0.00    +0.000 NA
ATOM     10  C   UNL     1       5.193   4.588  16.110  0.00  0.00    +0.000 A 
ATOM     11  C   UNL     1       4.278   4.583  17.174  0.00  0.00    +0.000 A 
ATOM     12  N   UNL     1       3.352   3.490  17.222  0.00  0.00    +0.000 N 
ATOM     13  S   UNL     1       1.881   3.772  17.927  0.00  0.00    +0.000 S 
ATOM     14  O   UNL     1       1.208   4.836  17.227  0.00  0.00    +0.000 OA
ATOM     15  O   UNL     1       1.243   2.492  18.134  0.00  0.00    +0.000 OA
ATOM     16  N   UNL     1       2.431   4.348  19.392  0.00  0.00    +0.000 NA
ATOM     17  C   UNL     1       1.512   4.225  20.525  0.00  0.00    +0.000 C 
ATOM     18  H   UNL     1       3.277   3.019  16.316  0.00  0.00    +0.000 HD
ENDROOT
BRANCH   1  21
ATOM     19  C   UNL     1       1.018   8.497  20.459  0.00  0.00    +0.000 A 
ATOM     20  C   UNL     1       1.810   7.339  20.480  0.00  0.00    +0.000 A 
ATOM     21  C   UNL     1       2.511   6.895  19.338  0.00  0.00    +0.000 A 
ATOM     22  C   UNL     1       2.444   7.691  18.182  0.00  0.00    +0.000 A 
ATOM     23  C   UNL     1       1.727   8.890  18.180  0.00  0.00    +0.000 A 
ATOM     24  C   UNL     1       1.012   9.282  19.310  0.00  0.00    +0.000 A 
ATOM     25  F   UNL     1       0.309  10.420  19.237  0.00  0.00    +0.000 F 
BRANCH  19  27
ATOM     26  C   UNL     1       0.479   9.940  22.545  0.00  0.00    +0.000 C 
ATOM     27  C   UNL     1       0.157   8.779  21.644  0.00  0.00    +0.000 C 
ATOM     28  O   UNL     1      -0.843   8.091  21.843  0.00  0.00    +0.000 OA
ENDBRANCH  19  27
ENDBRANCH   1  21
TORSDOF 2
ENDMDL
MODEL 3
REMARK VINA RESULT:      -8.6      1.041      1.073
REMARK  Name = 
REMARK  4 active torsions:
REMARK  status: ('A' for Active; 'I' for Inactive)
REMARK    1  A    between atoms: C_1  and  C_2
REMARK    2  A    between atoms: C_2  and  C_4
REMARK    3  A    between atoms: C_6  and  C_7
REMARK    4  A    between atoms: N_22  and  C_23
REMARK                            x       y       z     vdW  Elec       q    Type
REMARK                         _______ _______ _______ _____ _____    ______ ____
ROOT
ATOM      1  C   UNL     1       2.686   4.882  17.915  0.00  0.00    +0.000 C 
ATOM      2  C   UNL     1       2.221   6.271  18.365  0.00  0.00    +0.000 A 
ATOM      3  C   UNL     1       2.126   7.316  17.431  0.00  0.00    +0.000 A 
ATOM      4  C   UNL     1       1.846   8.617  17.848  0.00  0.00    +0.000 A 
ATOM      5  C   UNL     1       1.615   8.894  19.203  0.00  0.00    +0.000 A 
ATOM      6  C   UNL     1       1.322  10.191  19.646  0.00  0.00    +0.000 A 
ATOM      7  C   UNL     1       1.062  10.423  20.990  0.00  0.00    +0.000 A 
ATOM      8  C   UNL     1       1.113   9.348  21.854  0.00  0.00    +0.000 A 
ATOM      9  N   UNL     1       1.411   8.088  21.470  0.00  0.00    +0.000 NA
ATOM     10  C   UNL     1       1.660   7.859  20.158  0.00  0.00    +0.000 A 
ATOM     11  C   UNL     1       1.987   6.567  19.719  0.00  0.00    +0.000 A 
ATOM     12  N   UNL     1       1.916   5.518  20.692  0.00  0.00    +0.000 N 
ATOM     13  S   UNL     1       2.926   4.222  20.487  0.00  0.00    +0.000 S 
ATOM     14  O   UNL     1       4.294   4.674  20.486  0.00  0.00    +0.000 OA
ATOM     15  O   UNL     1       2.485   3.178  21.384  0.00  0.00    +0.000 OA
ATOM     16  N   UNL     1       2.483   3.825  18.930  0.00  0.00    +0.000 NA
ATOM     17  C   UNL     1       2.717   2.439  18.521  0.00  0.00    +0.000 C 
ATOM     18  H   UNL     1       1.929   5.888  21.646  0.00  0.00    +0.000 HD
ENDROOT
BRANCH   1  21
ATOM     19  C   UNL     1       6.363   5.846  17.133  0.00  0.00    +0.000 A 
ATOM     20  C   UNL     1       5.119   5.737  17.776  0.00  0.00    +0.000 A 
ATOM     21  C   UNL     1       4.092   4.907  17.276  0.00  0.00    +0.000 A 
ATOM     22  C   UNL     1       4.375   4.133  16.138  0.00  0.00    +0.000 A 
ATOM     23  C   UNL     1       5.639   4.172  15.543  0.00  0.00    +0.000 A 
ATOM     24  C   UNL     1       6.620   5.031  16.035  0.00  0.00    +0.000 A 
ATOM     25  F   UNL     1       7.799   5.056  15.399  0.00  0.00    +0.000 F 
BRANCH  19  27
ATOM     26  C   UNL     1       8.134   6.648  18.847  0.00  0.00    +0.000 C 
ATOM     27  C   UNL     1       7.311   6.892  17.612  0.00  0.00    +0.000 C 
ATOM     28  O   UNL     1       7.451   7.926  16.960  0.00  0.00    +0.000 OA
ENDBRANCH  19  27
ENDBRANCH   1  21
TORSDOF 2
ENDMDL
MODEL 4
REMARK VINA RESULT:      -8.2      1.286      2.024
REMARK  Name = 
REMARK  4 active torsions:
REMARK  status: ('A' for Active; 'I' for Inactive)
REMARK    1  A    between atoms: C_1  and  C_2
REMARK    2  A    between atoms: C_2  and  C_4
REMARK    3  A    between atoms: C_6  and  C_7
REMARK    4  A    between atoms: N_22  and  C_23
REMARK                            x       y       z     vdW  Elec       q    Type
REMARK                         _______ _______ _______ _____ _____    ______ ____
ROOT
ATOM      1  C   UNL     1       2.632   5.113  17.996  0.00  0.00    +0.000 C 
ATOM      2  C   UNL     1       2.191   6.492  18.496  0.00  0.00    +0.000 A 
ATOM      3  C   UNL     1       2.495   7.640  17.746  0.00  0.00    +0.000 A 
ATOM      4  C   UNL     1       2.230   8.911  18.256  0.00  0.00    +0.000 A 
ATOM      5  C   UNL     1       1.617   9.060  19.508  0.00  0.00    +0.000 A 
ATOM      6  C   UNL     1       1.331  10.326  20.038  0.00  0.00    +0.000 A 
ATOM      7  C   UNL     1       0.690  10.436  21.265  0.00  0.00    +0.000 A 
ATOM      8  C   UNL     1       0.362   9.272  21.931  0.00  0.00    +0.000 A 
ATOM      9  N   UNL     1       0.638   8.035  21.464  0.00  0.00    +0.000 NA
ATOM     10  C   UNL     1       1.259   7.926  20.264  0.00  0.00    +0.000 A 
ATOM     11  C   UNL     1       1.577   6.660  19.749  0.00  0.00    +0.000 A 
ATOM     12  N   UNL     1       1.103   5.526  20.486  0.00  0.00    +0.000 N 
ATOM     13  S   UNL     1       1.993   4.134  20.393  0.00  0.00    +0.000 S 
ATOM     14  O   UNL     1       3.330   4.385  20.863  0.00  0.00    +0.000 OA
ATOM     15  O   UNL     1       1.193   3.066  20.948  0.00  0.00    +0.000 OA
ATOM     16  N   UNL     1       2.019   3.985  18.732  0.00  0.00    +0.000 NA
ATOM     17  C   UNL     1       2.230   2.636  18.204  0.00  0.00    +0.000 C 
ATOM     18  H   UNL     1       0.855   5.779  21.446  0.00  0.00    +0.000 HD
ENDROOT
BRANCH   1  21
ATOM     19  C   UNL     1       6.138   4.841  16.354  0.00  0.00    +0.000 A 
ATOM     20  C   UNL     1       4.760   5.043  16.533  0.00  0.00    +0.000 A 
ATOM     21  C   UNL     1       4.162   5.012  17.812  0.00  0.00    +0.000 A 
ATOM     22  C   UNL     1       5.007   4.833  18.921  0.00  0.00    +0.000 A 
ATOM     23  C   UNL     1       6.389   4.717  18.757  0.00  0.00    +0.000 A 
ATOM     24  C   UNL     1       6.946   4.712  17.479  0.00  0.00    +0.000 A 
ATOM     25  F   UNL     1       8.272   4.556  17.381  0.00  0.00    +0.000 F 
BRANCH  19  27
ATOM     26  C   UNL     1       5.928   3.795  13.991  0.00  0.00    +0.000 C 
ATOM     27  C   UNL     1       6.649   4.691  14.961  0.00  0.00    +0.000 C 
ATOM     28  O   UNL     1       7.626   5.346  14.601  0.00  0.00    +0.000 OA
ENDBRANCH  19  27
ENDBRANCH   1  21
TORSDOF 2
ENDMDL
MODEL 5
REMARK VINA RESULT:      -8.1      3.058      6.194
REMARK  Name = 
REMARK  4 active torsions:
REMARK  status: ('A' for Active; 'I' for Inactive)
REMARK    1  A    between atoms: C_1  and  C_2
REMARK    2  A    between atoms: C_2  and  C_4
REMARK    3  A    between atoms: C_6  and  C_7
REMARK    4  A    between atoms: N_22  and  C_23
REMARK                            x       y       z     vdW  Elec       q    Type
REMARK                         _______ _______ _______ _____ _____    ______ ____
ROOT
ATOM      1  C   UNL     1       3.050   4.914  19.845  0.00  0.00    +0.000 C 
ATOM      2  C   UNL     1       4.199   5.001  18.835  0.00  0.00    +0.000 A 
ATOM      3  C   UNL     1       5.241   5.922  19.036  0.00  0.00    +0.000 A 
ATOM      4  C   UNL     1       6.215   6.116  18.057  0.00  0.00    +0.000 A 
ATOM      5  C   UNL     1       6.193   5.363  16.874  0.00  0.00    +0.000 A 
ATOM      6  C   UNL     1       7.166   5.532  15.880  0.00  0.00    +0.000 A 
ATOM      7  C   UNL     1       7.134   4.743  14.737  0.00  0.00    +0.000 A 
ATOM      8  C   UNL     1       6.120   3.814  14.620  0.00  0.00    +0.000 A 
ATOM      9  N   UNL     1       5.153   3.634  15.546  0.00  0.00    +0.000 NA
ATOM     10  C   UNL     1       5.186   4.399  16.664  0.00  0.00    +0.000 A 
ATOM     11  C   UNL     1       4.192   4.256  17.644  0.00  0.00    +0.000 A 
ATOM     12  N   UNL     1       3.248   3.195  17.454  0.00  0.00    +0.000 N 
ATOM     13  S   UNL     1       1.732   3.405  18.085  0.00  0.00    +0.000 S 
ATOM     14  O   UNL     1       1.131   4.581  17.511  0.00  0.00    +0.000 OA
ATOM     15  O   UNL     1       1.060   2.126  18.043  0.00  0.00    +0.000 OA
ATOM     16  N   UNL     1       2.178   3.733  19.657  0.00  0.00    +0.000 NA
ATOM     17  C   UNL     1       1.173   3.463  20.687  0.00  0.00    +0.000 C 
ATOM     18  H   UNL     1       3.236   2.871  16.483  0.00  0.00    +0.000 HD
ENDROOT
BRANCH   1  21
ATOM     19  C   UNL     1       1.723   8.498  19.175  0.00  0.00    +0.000 A 
ATOM     20  C   UNL     1       2.308   7.236  18.990  0.00  0.00    +0.000 A 
ATOM     21  C   UNL     1       2.302   6.255  20.006  0.00  0.00    +0.000 A 
ATOM     22  C   UNL     1       1.628   6.560  21.201  0.00  0.00    +0.000 A 
ATOM     23  C   UNL     1       0.970   7.782  21.360  0.00  0.00    +0.000 A 
ATOM     24  C   UNL     1       1.029   8.746  20.355  0.00  0.00    +0.000 A 
ATOM     25  F   UNL     1       0.414   9.915  20.579  0.00  0.00    +0.000 F 
BRANCH  19  27
ATOM     26  C   UNL     1       1.672  10.983  18.436  0.00  0.00    +0.000 C 
ATOM     27  C   UNL     1       1.952   9.537  18.129  0.00  0.00    +0.000 C 
ATOM     28  O   UNL     1       2.421   9.207  17.041  0.00  0.00    +0.000 OA
ENDBRANCH  19  27
ENDBRANCH   1  21
TORSDOF 2
ENDMDL
MODEL 6
REMARK VINA RESULT:      -7.6      4.787      8.130
REMARK  Name = 
REMARK  4 active torsions:
REMARK  status: ('A' for Active; 'I' for Inactive)
REMARK    1  A    between atoms: C_1  and  C_2
REMARK    2  A    between atoms: C_2  and  C_4
REMARK    3  A    between atoms: C_6  and  C_7
REMARK    4  A    between atoms: N_22  and  C_23
REMARK                            x       y       z     vdW  Elec       q    Type
REMARK                         _______ _______ _______ _____ _____    ______ ____
ROOT
ATOM      1  C   UNL     1       0.790  10.454  19.676  0.00  0.00    +0.000 C 
ATOM      2  C   UNL     1       1.498   9.174  19.221  0.00  0.00    +0.000 A 
ATOM      3  C   UNL     1       1.815   8.992  17.864  0.00  0.00    +0.000 A 
ATOM      4  C   UNL     1       2.326   7.775  17.412  0.00  0.00    +0.000 A 
ATOM      5  C   UNL     1       2.571   6.729  18.313  0.00  0.00    +0.000 A 
ATOM      6  C   UNL     1       3.094   5.501  17.885  0.00  0.00    +0.000 A 
ATOM      7  C   UNL     1       3.359   4.500  18.810  0.00  0.00    +0.000 A 
ATOM      8  C   UNL     1       3.082   4.755  20.138  0.00  0.00    +0.000 A 
ATOM      9  N   UNL     1       2.560   5.917  20.588  0.00  0.00    +0.000 NA
ATOM     10  C   UNL     1       2.306   6.898  19.687  0.00  0.00    +0.000 A 
ATOM     11  C   UNL     1       1.750   8.114  20.109  0.00  0.00    +0.000 A 
ATOM     12  N   UNL     1       1.595   8.297  21.522  0.00  0.00    +0.000 N 
ATOM     13  S   UNL     1       0.362   9.278  22.031  0.00  0.00    +0.000 S 
ATOM     14  O   UNL     1      -0.894   8.758  21.555  0.00  0.00    +0.000 OA
ATOM     15  O   UNL     1       0.574   9.554  23.434  0.00  0.00    +0.000 OA
ATOM     16  N   UNL     1       0.762  10.632  21.144  0.00  0.00    +0.000 NA
ATOM     17  C   UNL     1       0.279  11.914  21.662  0.00  0.00    +0.000 C 
ATOM     18  H   UNL     1       1.628   7.404  22.023  0.00  0.00    +0.000 HD
ENDROOT
BRANCH   1  21
ATOM     19  C   UNL     1      -2.822  11.647  18.912  0.00  0.00    +0.000 A 
ATOM     20  C   UNL     1      -1.546  11.540  19.486  0.00  0.00    +0.000 A 
ATOM     21  C   UNL     1      -0.569  10.660  18.971  0.00  0.00    +0.000 A 
ATOM     22  C   UNL     1      -0.893   9.932  17.814  0.00  0.00    +0.000 A 
ATOM     23  C   UNL     1      -2.131  10.098  17.188  0.00  0.00    +0.000 A 
ATOM     24  C   UNL     1      -3.090  10.944  17.742  0.00  0.00    +0.000 A 
ATOM     25  F   UNL     1      -4.274  11.032  17.121  0.00  0.00    +0.000 F 
BRANCH  19  27
ATOM     26  C   UNL     1      -3.429  13.436  20.688  0.00  0.00    +0.000 C 
ATOM     27  C   UNL     1      -3.852  12.446  19.637  0.00  0.00    +0.000 C 
ATOM     28  O   UNL     1      -5.038  12.327  19.330  0.00  0.00    +0.000 OA
ENDBRANCH  19  27
ENDBRANCH   1  21
TORSDOF 2
ENDMDL
MODEL 7
REMARK VINA RESULT:      -7.4      4.753      8.070
REMARK  Name = 
REMARK  4 active torsions:
REMARK  status: ('A' for Active; 'I' for Inactive)
REMARK    1  A    between atoms: C_1  and  C_2
REMARK    2  A    between atoms: C_2  and  C_4
REMARK    3  A    between atoms: C_6  and  C_7
REMARK    4  A    between atoms: N_22  and  C_23
REMARK                            x       y       z     vdW  Elec       q    Type
REMARK                         _______ _______ _______ _____ _____    ______ ____
ROOT
ATOM      1  C   UNL     1       0.541  10.806  20.107  0.00  0.00    +0.000 C 
ATOM      2  C   UNL     1       1.274   9.597  19.516  0.00  0.00    +0.000 A 
ATOM      3  C   UNL     1       1.553   9.550  18.140  0.00  0.00    +0.000 A 
ATOM      4  C   UNL     1       2.087   8.397  17.563  0.00  0.00    +0.000 A 
ATOM      5  C   UNL     1       2.393   7.283  18.357  0.00  0.00    +0.000 A 
ATOM      6  C   UNL     1       2.940   6.117  17.803  0.00  0.00    +0.000 A 
ATOM      7  C   UNL     1       3.265   5.046  18.625  0.00  0.00    +0.000 A 
ATOM      8  C   UNL     1       3.023   5.170  19.978  0.00  0.00    +0.000 A 
ATOM      9  N   UNL     1       2.479   6.268  20.547  0.00  0.00    +0.000 NA
ATOM     10  C   UNL     1       2.166   7.317  19.748  0.00  0.00    +0.000 A 
ATOM     11  C   UNL     1       1.586   8.471  20.296  0.00  0.00    +0.000 A 
ATOM     12  N   UNL     1       1.471   8.519  21.723  0.00  0.00    +0.000 N 
ATOM     13  S   UNL     1       0.225   9.407  22.355  0.00  0.00    +0.000 S 
ATOM     14  O   UNL     1      -1.029   8.891  21.870  0.00  0.00    +0.000 OA
ATOM     15  O   UNL     1       0.473   9.561  23.771  0.00  0.00    +0.000 OA
ATOM     16  N   UNL     1       0.554  10.849  21.586  0.00  0.00    +0.000 NA
ATOM     17  C   UNL     1       0.048  12.061  22.233  0.00  0.00    +0.000 C 
ATOM     18  H   UNL     1       1.548   7.586  22.139  0.00  0.00    +0.000 HD
ENDROOT
BRANCH   1  21
ATOM     19  C   UNL     1      -2.442  10.650  17.629  0.00  0.00    +0.000 A 
ATOM     20  C   UNL     1      -1.229  10.368  18.276  0.00  0.00    +0.000 A 
ATOM     21  C   UNL     1      -0.846  11.029  19.464  0.00  0.00    +0.000 A 
ATOM     22  C   UNL     1      -1.755  11.944  20.021  0.00  0.00    +0.000 A 
ATOM     23  C   UNL     1      -3.000  12.167  19.429  0.00  0.00    +0.000 A 
ATOM     24  C   UNL     1      -3.333  11.529  18.235  0.00  0.00    +0.000 A 
ATOM     25  F   UNL     1      -4.524  11.813  17.691  0.00  0.00    +0.000 F 
BRANCH  19  27
ATOM     26  C   UNL     1      -3.205  10.912  15.165  0.00  0.00    +0.000 C 
ATOM     27  C   UNL     1      -2.672  10.055  16.281  0.00  0.00    +0.000 C 
ATOM     28  O   UNL     1      -2.371   8.880  16.079  0.00  0.00    +0.000 OA
ENDBRANCH  19  27
ENDBRANCH   1  21
TORSDOF 2
ENDMDL
MODEL 8
REMARK VINA RESULT:      -6.8      7.769      9.860
REMARK  Name = 
REMARK  4 active torsions:
REMARK  status: ('A' for Active; 'I' for Inactive)
REMARK    1  A    between atoms: C_1  and  C_2
REMARK    2  A    between atoms: C_2  and  C_4
REMARK    3  A    between atoms: C_6  and  C_7
REMARK    4  A    between atoms: N_22  and  C_23
REMARK                            x       y       z     vdW  Elec       q    Type
REMARK                         _______ _______ _______ _____ _____    ______ ____
ROOT
ATOM      1  C   UNL     1      -1.260  13.077  21.210  0.00  0.00    +0.000 C 
ATOM      2  C   UNL     1      -0.305  13.969  20.410  0.00  0.00    +0.000 A 
ATOM      3  C   UNL     1      -0.770  15.172  19.855  0.00  0.00    +0.000 A 
ATOM      4  C   UNL     1       0.043  15.921  19.004  0.00  0.00    +0.000 A 
ATOM      5  C   UNL     1       1.353  15.505  18.724  0.00  0.00    +0.000 A 
ATOM      6  C   UNL     1       2.192  16.246  17.881  0.00  0.00    +0.000 A 
ATOM      7  C   UNL     1       3.496  15.824  17.655  0.00  0.00    +0.000 A 
ATOM      8  C   UNL     1       3.917  14.664  18.274  0.00  0.00    +0.000 A 
ATOM      9  N   UNL     1       3.133  13.912  19.077  0.00  0.00    +0.000 NA
ATOM     10  C   UNL     1       1.862  14.325  19.303  0.00  0.00    +0.000 A 
ATOM     11  C   UNL     1       1.009  13.567  20.118  0.00  0.00    +0.000 A 
ATOM     12  N   UNL     1       1.588  12.435  20.780  0.00  0.00    +0.000 N 
ATOM     13  S   UNL     1       0.590  11.158  21.115  0.00  0.00    +0.000 S 
ATOM     14  O   UNL     1       0.021  10.657  19.889  0.00  0.00    +0.000 OA
ATOM     15  O   UNL     1       1.291  10.282  22.026  0.00  0.00    +0.000 OA
ATOM     16  N   UNL     1      -0.582  11.993  21.956  0.00  0.00    +0.000 NA
ATOM     17  C   UNL     1      -1.387  11.212  22.898  0.00  0.00    +0.000 C 
ATOM     18  H   UNL     1       2.467  12.150  20.338  0.00  0.00    +0.000 HD
ENDROOT
BRANCH   1  21
ATOM     19  C   UNL     1      -3.441  11.604  18.359  0.00  0.00    +0.000 A 
ATOM     20  C   UNL     1      -2.339  11.918  19.170  0.00  0.00    +0.000 A 
ATOM     21  C   UNL     1      -2.483  12.627  20.382  0.00  0.00    +0.000 A 
ATOM     22  C   UNL     1      -3.786  12.959  20.792  0.00  0.00    +0.000 A 
ATOM     23  C   UNL     1      -4.894  12.575  20.032  0.00  0.00    +0.000 A 
ATOM     24  C   UNL     1      -4.718  11.911  18.820  0.00  0.00    +0.000 A 
ATOM     25  F   UNL     1      -5.814  11.605  18.115  0.00  0.00    +0.000 F 
BRANCH  19  27
ATOM     26  C   UNL     1      -2.168   9.931  16.842  0.00  0.00    +0.000 C 
ATOM     27  C   UNL     1      -3.177  11.035  17.006  0.00  0.00    +0.000 C 
ATOM     28  O   UNL     1      -3.829  11.436  16.043  0.00  0.00    +0.000 OA
ENDBRANCH  19  27
ENDBRANCH   1  21
TORSDOF 2
ENDMDL
MODEL 9
REMARK VINA RESULT:      -6.6      7.653      9.799
REMARK  Name = 
REMARK  4 active torsions:
REMARK  status: ('A' for Active; 'I' for Inactive)
REMARK    1  A    between atoms: C_1  and  C_2
REMARK    2  A    between atoms: C_2  and  C_4
REMARK    3  A    between atoms: C_6  and  C_7
REMARK    4  A    between atoms: N_22  and  C_23
REMARK                            x       y       z     vdW  Elec       q    Type
REMARK                         _______ _______ _______ _____ _____    ______ ____
ROOT
ATOM      1  C   UNL     1       0.190  11.911  20.147  0.00  0.00    +0.000 C 
ATOM      2  C   UNL     1      -0.542  12.479  21.367  0.00  0.00    +0.000 A 
ATOM      3  C   UNL     1      -1.382  11.650  22.130  0.00  0.00    +0.000 A 
ATOM      4  C   UNL     1      -2.166  12.183  23.152  0.00  0.00    +0.000 A 
ATOM      5  C   UNL     1      -2.096  13.548  23.463  0.00  0.00    +0.000 A 
ATOM      6  C   UNL     1      -2.866  14.106  24.492  0.00  0.00    +0.000 A 
ATOM      7  C   UNL     1      -2.745  15.455  24.797  0.00  0.00    +0.000 A 
ATOM      8  C   UNL     1      -1.860  16.210  24.053  0.00  0.00    +0.000 A 
ATOM      9  N   UNL     1      -1.116  15.715  23.040  0.00  0.00    +0.000 NA
ATOM     10  C   UNL     1      -1.229  14.397  22.745  0.00  0.00    +0.000 A 
ATOM     11  C   UNL     1      -0.485  13.845  21.692  0.00  0.00    +0.000 A 
ATOM     12  N   UNL     1       0.467  14.705  21.055  0.00  0.00    +0.000 N 
ATOM     13  S   UNL     1       0.809  14.413  19.462  0.00  0.00    +0.000 S 
ATOM     14  O   UNL     1      -0.400  14.510  18.685  0.00  0.00    +0.000 OA
ATOM     15  O   UNL     1       1.983  15.184  19.118  0.00  0.00    +0.000 OA
ATOM     16  N   UNL     1       1.236  12.808  19.607  0.00  0.00    +0.000 NA
ATOM     17  C   UNL     1       2.115  12.273  18.565  0.00  0.00    +0.000 C 
ATOM     18  H   UNL     1       0.271  15.692  21.247  0.00  0.00    +0.000 HD
ENDROOT
BRANCH   1  21
ATOM     19  C   UNL     1      -2.991  11.285  18.016  0.00  0.00    +0.000 A 
ATOM     20  C   UNL     1      -2.068  11.874  18.894  0.00  0.00    +0.000 A 
ATOM     21  C   UNL     1      -0.779  11.334  19.092  0.00  0.00    +0.000 A 
ATOM     22  C   UNL     1      -0.418  10.212  18.326  0.00  0.00    +0.000 A 
ATOM     23  C   UNL     1      -1.301   9.672  17.388  0.00  0.00    +0.000 A 
ATOM     24  C   UNL     1      -2.582  10.202  17.244  0.00  0.00    +0.000 A 
ATOM     25  F   UNL     1      -3.400   9.618  16.358  0.00  0.00    +0.000 F 
BRANCH  19  27
ATOM     26  C   UNL     1      -5.068  12.117  19.326  0.00  0.00    +0.000 C 
ATOM     27  C   UNL     1      -4.391  11.801  18.020  0.00  0.00    +0.000 C 
ATOM     28  O   UNL     1      -4.961  12.015  16.951  0.00  0.00    +0.000 OA
ENDBRANCH  19  27
ENDBRANCH   1  21
TORSDOF 2
ENDMDL
