MODEL 1
REMARK VINA RESULT:      -8.5      0.000      0.000
REMARK  Name = 
REMARK  10 active torsions:
REMARK  status: ('A' for Active; 'I' for Inactive)
REMARK    1  A    between atoms: N_1  and  S_2
REMARK    2  A    between atoms: S_2  and  C_5
REMARK    3  A    between atoms: C_8  and  C_9
REMARK    4  A    between atoms: C_9  and  C_10
REMARK    5  A    between atoms: C_10  and  N_11
REMARK    6  A    between atoms: C_12  and  C_13
REMARK    7  A    between atoms: C_18  and  O_19
REMARK    8  A    between atoms: O_19  and  C_20
REMARK    9  A    between atoms: N_22  and  S_23
REMARK   10  A    between atoms: S_23  and  C_26
REMARK                            x       y       z     vdW  Elec       q    Type
REMARK                         _______ _______ _______ _____ _____    ______ ____
ROOT
ATOM      1  C   UNL     1       2.913   4.913  18.391  0.00  0.00    +0.000 A 
ATOM      2  C   UNL     1       2.067   4.140  17.581  0.00  0.00    +0.000 A 
ATOM      3  C   UNL     1       2.210   2.755  17.536  0.00  0.00    +0.000 A 
ATOM      4  C   UNL     1       3.205   2.135  18.287  0.00  0.00    +0.000 A 
ATOM      5  C   UNL     1       4.057   2.899  19.088  0.00  0.00    +0.000 A 
ATOM      6  C   UNL     1       3.900   4.289  19.161  0.00  0.00    +0.000 A 
ENDROOT
BRANCH   1   8
ATOM      7  N   UNL     1       3.188   7.162  17.505  0.00  0.00    +0.000 NA
ATOM      8  C   UNL     1       2.661   6.360  18.366  0.00  0.00    +0.000 C 
BRANCH   7   9
ATOM      9  C   UNL     1       2.920   8.585  17.805  0.00  0.00    +0.000 C 
BRANCH   9  10
ATOM     10  C   UNL     1       1.409   8.863  17.794  0.00  0.00    +0.000 C 
BRANCH  10  14
ATOM     11  C   UNL     1       0.185  11.874  20.607  0.00  0.00    +0.000 A 
ATOM     12  C   UNL     1       0.925  12.246  19.483  0.00  0.00    +0.000 A 
ATOM     13  C   UNL     1       1.327  11.267  18.572  0.00  0.00    +0.000 A 
ATOM     14  C   UNL     1       0.996   9.919  18.787  0.00  0.00    +0.000 A 
ATOM     15  C   UNL     1       0.275   9.560  19.929  0.00  0.00    +0.000 A 
ATOM     16  C   UNL     1      -0.130  10.533  20.841  0.00  0.00    +0.000 A 
BRANCH  11  17
ATOM     17  S   UNL     1      -0.322  13.094  21.780  0.00  0.00    +0.000 S 
ATOM     18  O   UNL     1      -1.562  13.691  21.342  0.00  0.00    +0.000 OA
ATOM     19  O   UNL     1       0.823  13.885  22.171  0.00  0.00    +0.000 OA
BRANCH  17  20
ATOM     20  N   UNL     1      -0.705  12.152  23.114  0.00  0.00    +0.000 NA
ATOM     21  H   UNL     1      -0.141  11.302  23.106  0.00  0.00    +0.000 HD
ATOM     22  H   UNL     1      -1.709  11.980  23.146  0.00  0.00    +0.000 HD
ENDBRANCH  17  20
ENDBRANCH  11  17
ENDBRANCH  10  14
ENDBRANCH   9  10
ENDBRANCH   7   9
ENDBRANCH   1   8
BRANCH   6  23
ATOM     23  O   UNL     1       4.844   5.052  19.874  0.00  0.00    +0.000 OA
BRANCH  23  24
ATOM     24  C   UNL     1       6.100   5.209  19.293  0.00  0.00    +0.000 C 
ATOM     25  O   UNL     1       7.149   5.319  19.906  0.00  0.00    +0.000 OA
ATOM     26  N   UNL     1       6.026   5.123  17.907  0.00  0.00    +0.000 N 
ATOM     27  H   UNL     1       5.134   4.937  17.468  0.00  0.00    +0.000 HD
BRANCH  26  28
ATOM     28  S   UNL     1       7.320   5.205  16.880  0.00  0.00    +0.000 S 
ATOM     29  O   UNL     1       7.633   6.615  16.757  0.00  0.00    +0.000 OA
ATOM     30  O   UNL     1       8.323   4.259  17.311  0.00  0.00    +0.000 OA
BRANCH  28  31
ATOM     31  C   UNL     1       6.659   4.686  15.313  0.00  0.00    +0.000 A 
ATOM     32  C   UNL     1       5.350   4.199  15.244  0.00  0.00    +0.000 A 
ATOM     33  C   UNL     1       4.851   3.746  14.021  0.00  0.00    +0.000 A 
ATOM     34  C   UNL     1       5.649   3.800  12.876  0.00  0.00    +0.000 A 
ATOM     35  C   UNL     1       6.938   4.331  12.943  0.00  0.00    +0.000 A 
ATOM     36  C   UNL     1       7.446   4.783  14.161  0.00  0.00    +0.000 A 
ENDBRANCH  28  31
ENDBRANCH  26  28
ENDBRANCH  23  24
ENDBRANCH   6  23
TORSDOF 10
ENDMDL
MODEL 2
REMARK VINA RESULT:      -8.5      1.827      2.357
REMARK  Name = 
REMARK  10 active torsions:
REMARK  status: ('A' for Active; 'I' for Inactive)
REMARK    1  A    between atoms: N_1  and  S_2
REMARK    2  A    between atoms: S_2  and  C_5
REMARK    3  A    between atoms: C_8  and  C_9
REMARK    4  A    between atoms: C_9  and  C_10
REMARK    5  A    between atoms: C_10  and  N_11
REMARK    6  A    between atoms: C_12  and  C_13
REMARK    7  A    between atoms: C_18  and  O_19
REMARK    8  A    between atoms: O_19  and  C_20
REMARK    9  A    between atoms: N_22  and  S_23
REMARK   10  A    between atoms: S_23  and  C_26
REMARK                            x       y       z     vdW  Elec       q    Type
REMARK                         _______ _______ _______ _____ _____    ______ ____
ROOT
ATOM      1  C   UNL     1       2.500   4.592  19.502  0.00  0.00    +0.000 A 
ATOM      2  C   UNL     1       1.699   4.689  20.650  0.00  0.00    +0.000 A 
ATOM      3  C   UNL     1       1.756   3.701  21.632  0.00  0.00    +0.000 A 
ATOM      4  C   UNL     1       2.600   2.607  21.466  0.00  0.00    +0.000 A 
ATOM      5  C   UNL     1       3.391   2.499  20.321  0.00  0.00    +0.000 A 
ATOM      6  C   UNL     1       3.362   3.502  19.345  0.00  0.00    +0.000 A 
ENDROOT
BRANCH   1   8
ATOM      7  N   UNL     1       2.347   6.940  18.884  0.00  0.00    +0.000 NA
ATOM      8  C   UNL     1       2.363   5.697  18.543  0.00  0.00    +0.000 C 
BRANCH   7   9
ATOM      9  C   UNL     1       2.017   7.841  17.759  0.00  0.00    +0.000 C 
BRANCH   9  10
ATOM     10  C   UNL     1       2.348   9.297  18.119  0.00  0.00    +0.000 C 
BRANCH  10  14
ATOM     11  C   UNL     1      -1.083  11.499  19.482  0.00  0.00    +0.000 A 
ATOM     12  C   UNL     1      -1.256  10.451  18.576  0.00  0.00    +0.000 A 
ATOM     13  C   UNL     1      -0.142   9.740  18.130  0.00  0.00    +0.000 A 
ATOM     14  C   UNL     1       1.144  10.078  18.582  0.00  0.00    +0.000 A 
ATOM     15  C   UNL     1       1.304  11.145  19.471  0.00  0.00    +0.000 A 
ATOM     16  C   UNL     1       0.194  11.858  19.921  0.00  0.00    +0.000 A 
BRANCH  11  17
ATOM     17  S   UNL     1      -2.479  12.422  20.050  0.00  0.00    +0.000 S 
ATOM     18  O   UNL     1      -2.555  12.334  21.489  0.00  0.00    +0.000 OA
ATOM     19  O   UNL     1      -3.612  12.148  19.196  0.00  0.00    +0.000 OA
BRANCH  17  20
ATOM     20  N   UNL     1      -2.014  13.997  19.705  0.00  0.00    +0.000 NA
ATOM     21  H   UNL     1      -2.486  14.315  18.857  0.00  0.00    +0.000 HD
ATOM     22  H   UNL     1      -0.998  14.062  19.660  0.00  0.00    +0.000 HD
ENDBRANCH  17  20
ENDBRANCH  11  17
ENDBRANCH  10  14
ENDBRANCH   9  10
ENDBRANCH   7   9
ENDBRANCH   1   8
BRANCH   6  23
ATOM     23  O   UNL     1       4.071   3.315  18.144  0.00  0.00    +0.000 OA
BRANCH  23  24
ATOM     24  C   UNL     1       5.268   4.011  18.000  0.00  0.00    +0.000 C 
ATOM     25  O   UNL     1       6.058   4.247  18.900  0.00  0.00    +0.000 OA
ATOM     26  N   UNL     1       5.511   4.322  16.666  0.00  0.00    +0.000 N 
ATOM     27  H   UNL     1       4.858   4.012  15.958  0.00  0.00    +0.000 HD
BRANCH  26  28
ATOM     28  S   UNL     1       6.860   5.092  16.100  0.00  0.00    +0.000 S 
ATOM     29  O   UNL     1       6.570   6.510  16.195  0.00  0.00    +0.000 OA
ATOM     30  O   UNL     1       8.026   4.532  16.742  0.00  0.00    +0.000 OA
BRANCH  28  31
ATOM     31  C   UNL     1       6.892   4.690  14.369  0.00  0.00    +0.000 A 
ATOM     32  C   UNL     1       7.794   5.346  13.525  0.00  0.00    +0.000 A 
ATOM     33  C   UNL     1       7.783   5.063  12.157  0.00  0.00    +0.000 A 
ATOM     34  C   UNL     1       6.892   4.118  11.645  0.00  0.00    +0.000 A 
ATOM     35  C   UNL     1       6.027   3.433  12.500  0.00  0.00    +0.000 A 
ATOM     36  C   UNL     1       6.029   3.710  13.867  0.00  0.00    +0.000 A 
ENDBRANCH  28  31
ENDBRANCH  26  28
ENDBRANCH  23  24
ENDBRANCH   6  23
TORSDOF 10
ENDMDL
MODEL 3
REMARK VINA RESULT:      -8.4      2.328      2.721
REMARK  Name = 
REMARK  10 active torsions:
REMARK  status: ('A' for Active; 'I' for Inactive)
REMARK    1  A    between atoms: N_1  and  S_2
REMARK    2  A    between atoms: S_2  and  C_5
REMARK    3  A    between atoms: C_8  and  C_9
REMARK    4  A    between atoms: C_9  and  C_10
REMARK    5  A    between atoms: C_10  and  N_11
REMARK    6  A    between atoms: C_12  and  C_13
REMARK    7  A    between atoms: C_18  and  O_19
REMARK    8  A    between atoms: O_19  and  C_20
REMARK    9  A    between atoms: N_22  and  S_23
REMARK   10  A    between atoms: S_23  and  C_26
REMARK                            x       y       z     vdW  Elec       q    Type
REMARK                         _______ _______ _______ _____ _____    ______ ____
ROOT
ATOM      1  C   UNL     1       2.480   4.914  18.590  0.00  0.00    +0.000 A 
ATOM      2  C   UNL     1       1.644   4.070  17.844  0.00  0.00    +0.000 A 
ATOM      3  C   UNL     1       2.046   2.770  17.542  0.00  0.00    +0.000 A 
ATOM      4  C   UNL     1       3.288   2.312  17.972  0.00  0.00    +0.000 A 
ATOM      5  C   UNL     1       4.130   3.150  18.706  0.00  0.00    +0.000 A 
ATOM      6  C   UNL     1       3.720   4.447  19.039  0.00  0.00    +0.000 A 
ENDROOT
BRANCH   1   8
ATOM      7  N   UNL     1       2.540   7.345  18.500  0.00  0.00    +0.000 NA
ATOM      8  C   UNL     1       1.946   6.258  18.855  0.00  0.00    +0.000 C 
BRANCH   7   9
ATOM      9  C   UNL     1       1.890   8.558  19.042  0.00  0.00    +0.000 C 
BRANCH   9  10
ATOM     10  C   UNL     1       1.462   9.495  17.902  0.00  0.00    +0.000 C 
BRANCH  10  14
ATOM     11  C   UNL     1      -2.599  10.867  18.227  0.00  0.00    +0.000 A 
ATOM     12  C   UNL     1      -1.644  11.330  19.134  0.00  0.00    +0.000 A 
ATOM     13  C   UNL     1      -0.327  10.880  19.032  0.00  0.00    +0.000 A 
ATOM     14  C   UNL     1       0.035   9.965  18.030  0.00  0.00    +0.000 A 
ATOM     15  C   UNL     1      -0.938   9.493  17.144  0.00  0.00    +0.000 A 
ATOM     16  C   UNL     1      -2.255   9.939  17.241  0.00  0.00    +0.000 A 
BRANCH  11  17
ATOM     17  S   UNL     1      -4.276  11.411  18.347  0.00  0.00    +0.000 S 
ATOM     18  O   UNL     1      -4.372  12.443  19.354  0.00  0.00    +0.000 OA
ATOM     19  O   UNL     1      -5.154  10.264  18.329  0.00  0.00    +0.000 OA
BRANCH  17  20
ATOM     20  N   UNL     1      -4.495  12.180  16.873  0.00  0.00    +0.000 NA
ATOM     21  H   UNL     1      -4.982  13.066  17.017  0.00  0.00    +0.000 HD
ATOM     22  H   UNL     1      -4.963  11.556  16.217  0.00  0.00    +0.000 HD
ENDBRANCH  17  20
ENDBRANCH  11  17
ENDBRANCH  10  14
ENDBRANCH   9  10
ENDBRANCH   7   9
ENDBRANCH   1   8
BRANCH   6  23
ATOM     23  O   UNL     1       4.629   5.316  19.670  0.00  0.00    +0.000 OA
BRANCH  23  24
ATOM     24  C   UNL     1       5.925   5.356  19.161  0.00  0.00    +0.000 C 
ATOM     25  O   UNL     1       6.944   5.379  19.832  0.00  0.00    +0.000 OA
ATOM     26  N   UNL     1       5.922   5.262  17.774  0.00  0.00    +0.000 N 
ATOM     27  H   UNL     1       5.043   5.150  17.285  0.00  0.00    +0.000 HD
BRANCH  26  28
ATOM     28  S   UNL     1       7.274   5.218  16.822  0.00  0.00    +0.000 S 
ATOM     29  O   UNL     1       7.680   6.600  16.655  0.00  0.00    +0.000 OA
ATOM     30  O   UNL     1       8.192   4.237  17.353  0.00  0.00    +0.000 OA
BRANCH  28  31
ATOM     31  C   UNL     1       6.672   4.665  15.244  0.00  0.00    +0.000 A 
ATOM     32  C   UNL     1       7.483   4.794  14.112  0.00  0.00    +0.000 A 
ATOM     33  C   UNL     1       6.989   4.404  12.866  0.00  0.00    +0.000 A 
ATOM     34  C   UNL     1       5.703   3.871  12.758  0.00  0.00    +0.000 A 
ATOM     35  C   UNL     1       4.916   3.702  13.898  0.00  0.00    +0.000 A 
ATOM     36  C   UNL     1       5.400   4.091  15.147  0.00  0.00    +0.000 A 
ENDBRANCH  28  31
ENDBRANCH  26  28
ENDBRANCH  23  24
ENDBRANCH   6  23
TORSDOF 10
ENDMDL
MODEL 4
REMARK VINA RESULT:      -8.4      1.447      1.972
REMARK  Name = 
REMARK  10 active torsions:
REMARK  status: ('A' for Active; 'I' for Inactive)
REMARK    1  A    between atoms: N_1  and  S_2
REMARK    2  A    between atoms: S_2  and  C_5
REMARK    3  A    between atoms: C_8  and  C_9
REMARK    4  A    between atoms: C_9  and  C_10
REMARK    5  A    between atoms: C_10  and  N_11
REMARK    6  A    between atoms: C_12  and  C_13
REMARK    7  A    between atoms: C_18  and  O_19
REMARK    8  A    between atoms: O_19  and  C_20
REMARK    9  A    between atoms: N_22  and  S_23
REMARK   10  A    between atoms: S_23  and  C_26
REMARK                            x       y       z     vdW  Elec       q    Type
REMARK                         _______ _______ _______ _____ _____    ______ ____
ROOT
ATOM      1  C   UNL     1       2.656   5.041  18.662  0.00  0.00    +0.000 A 
ATOM      2  C   UNL     1       1.783   4.290  17.862  0.00  0.00    +0.000 A 
ATOM      3  C   UNL     1       2.102   2.980  17.511  0.00  0.00    +0.000 A 
ATOM      4  C   UNL     1       3.300   2.419  17.945  0.00  0.00    +0.000 A 
ATOM      5  C   UNL     1       4.179   3.165  18.733  0.00  0.00    +0.000 A 
ATOM      6  C   UNL     1       3.850   4.471  19.115  0.00  0.00    +0.000 A 
ENDROOT
BRANCH   1   8
ATOM      7  N   UNL     1       2.216   6.903  20.165  0.00  0.00    +0.000 NA
ATOM      8  C   UNL     1       2.208   6.406  18.976  0.00  0.00    +0.000 C 
BRANCH   7   9
ATOM      9  C   UNL     1       1.548   8.221  20.241  0.00  0.00    +0.000 C 
BRANCH   9  10
ATOM     10  C   UNL     1       0.538   8.248  21.398  0.00  0.00    +0.000 C 
BRANCH  10  14
ATOM     11  C   UNL     1      -1.424  12.053  21.785  0.00  0.00    +0.000 A 
ATOM     12  C   UNL     1      -1.195  11.281  22.925  0.00  0.00    +0.000 A 
ATOM     13  C   UNL     1      -0.563  10.043  22.799  0.00  0.00    +0.000 A 
ATOM     14  C   UNL     1      -0.166   9.574  21.536  0.00  0.00    +0.000 A 
ATOM     15  C   UNL     1      -0.422  10.349  20.401  0.00  0.00    +0.000 A 
ATOM     16  C   UNL     1      -1.053  11.586  20.522  0.00  0.00    +0.000 A 
BRANCH  11  17
ATOM     17  S   UNL     1      -2.236  13.617  21.920  0.00  0.00    +0.000 S 
ATOM     18  O   UNL     1      -1.301  14.598  22.418  0.00  0.00    +0.000 OA
ATOM     19  O   UNL     1      -3.544  13.427  22.504  0.00  0.00    +0.000 OA
BRANCH  17  20
ATOM     20  N   UNL     1      -2.504  14.006  20.310  0.00  0.00    +0.000 NA
ATOM     21  H   UNL     1      -3.032  14.878  20.253  0.00  0.00    +0.000 HD
ATOM     22  H   UNL     1      -2.946  13.224  19.829  0.00  0.00    +0.000 HD
ENDBRANCH  17  20
ENDBRANCH  11  17
ENDBRANCH  10  14
ENDBRANCH   9  10
ENDBRANCH   7   9
ENDBRANCH   1   8
BRANCH   6  23
ATOM     23  O   UNL     1       4.802   5.248  19.802  0.00  0.00    +0.000 OA
BRANCH  23  24
ATOM     24  C   UNL     1       6.077   5.324  19.249  0.00  0.00    +0.000 C 
ATOM     25  O   UNL     1       7.118   5.370  19.884  0.00  0.00    +0.000 OA
ATOM     26  N   UNL     1       6.028   5.238  17.862  0.00  0.00    +0.000 N 
ATOM     27  H   UNL     1       5.135   5.107  17.404  0.00  0.00    +0.000 HD
BRANCH  26  28
ATOM     28  S   UNL     1       7.346   5.236  16.863  0.00  0.00    +0.000 S 
ATOM     29  O   UNL     1       7.728   6.626  16.715  0.00  0.00    +0.000 OA
ATOM     30  O   UNL     1       8.294   4.255  17.338  0.00  0.00    +0.000 OA
BRANCH  28  31
ATOM     31  C   UNL     1       6.696   4.712  15.294  0.00  0.00    +0.000 A 
ATOM     32  C   UNL     1       5.421   4.141  15.231  0.00  0.00    +0.000 A 
ATOM     33  C   UNL     1       4.933   3.685  14.005  0.00  0.00    +0.000 A 
ATOM     34  C   UNL     1       5.707   3.819  12.850  0.00  0.00    +0.000 A 
ATOM     35  C   UNL     1       6.959   4.432  12.912  0.00  0.00    +0.000 A 
ATOM     36  C   UNL     1       7.456   4.888  14.133  0.00  0.00    +0.000 A 
ENDBRANCH  28  31
ENDBRANCH  26  28
ENDBRANCH  23  24
ENDBRANCH   6  23
TORSDOF 10
ENDMDL
MODEL 5
REMARK VINA RESULT:      -8.3      1.999      2.492
REMARK  Name = 
REMARK  10 active torsions:
REMARK  status: ('A' for Active; 'I' for Inactive)
REMARK    1  A    between atoms: N_1  and  S_2
REMARK    2  A    between atoms: S_2  and  C_5
REMARK    3  A    between atoms: C_8  and  C_9
REMARK    4  A    between atoms: C_9  and  C_10
REMARK    5  A    between atoms: C_10  and  N_11
REMARK    6  A    between atoms: C_12  and  C_13
REMARK    7  A    between atoms: C_18  and  O_19
REMARK    8  A    between atoms: O_19  and  C_20
REMARK    9  A    between atoms: N_22  and  S_23
REMARK   10  A    between atoms: S_23  and  C_26
REMARK                            x       y       z     vdW  Elec       q    Type
REMARK                         _______ _______ _______ _____ _____    ______ ____
ROOT
ATOM      1  C   UNL     1       2.031   5.360  19.797  0.00  0.00    +0.000 A 
ATOM      2  C   UNL     1       1.186   4.486  20.496  0.00  0.00    +0.000 A 
ATOM      3  C   UNL     1       1.047   3.162  20.084  0.00  0.00    +0.000 A 
ATOM      4  C   UNL     1       1.740   2.709  18.965  0.00  0.00    +0.000 A 
ATOM      5  C   UNL     1       2.575   3.576  18.258  0.00  0.00    +0.000 A 
ATOM      6  C   UNL     1       2.743   4.899  18.685  0.00  0.00    +0.000 A 
ENDROOT
BRANCH   1   8
ATOM      7  N   UNL     1       1.234   7.226  21.139  0.00  0.00    +0.000 NA
ATOM      8  C   UNL     1       2.105   6.728  20.331  0.00  0.00    +0.000 C 
BRANCH   7   9
ATOM      9  C   UNL     1       1.436   8.671  21.382  0.00  0.00    +0.000 C 
BRANCH   9  10
ATOM     10  C   UNL     1       0.809   9.502  20.252  0.00  0.00    +0.000 C 
BRANCH  10  14
ATOM     11  C   UNL     1      -2.168  12.279  21.631  0.00  0.00    +0.000 A 
ATOM     12  C   UNL     1      -1.299  11.692  22.553  0.00  0.00    +0.000 A 
ATOM     13  C   UNL     1      -0.336  10.786  22.105  0.00  0.00    +0.000 A 
ATOM     14  C   UNL     1      -0.245  10.462  20.742  0.00  0.00    +0.000 A 
ATOM     15  C   UNL     1      -1.137  11.041  19.835  0.00  0.00    +0.000 A 
ATOM     16  C   UNL     1      -2.100  11.947  20.276  0.00  0.00    +0.000 A 
BRANCH  11  17
ATOM     17  S   UNL     1      -3.404  13.418  22.177  0.00  0.00    +0.000 S 
ATOM     18  O   UNL     1      -3.442  14.548  21.279  0.00  0.00    +0.000 OA
ATOM     19  O   UNL     1      -3.311  13.572  23.611  0.00  0.00    +0.000 OA
BRANCH  17  20
ATOM     20  N   UNL     1      -4.815  12.556  21.899  0.00  0.00    +0.000 NA
ATOM     21  H   UNL     1      -5.300  12.397  22.783  0.00  0.00    +0.000 HD
ATOM     22  H   UNL     1      -4.609  11.701  21.383  0.00  0.00    +0.000 HD
ENDBRANCH  17  20
ENDBRANCH  11  17
ENDBRANCH  10  14
ENDBRANCH   9  10
ENDBRANCH   7   9
ENDBRANCH   1   8
BRANCH   6  23
ATOM     23  O   UNL     1       3.489   5.790  17.890  0.00  0.00    +0.000 OA
BRANCH  23  24
ATOM     24  C   UNL     1       4.873   5.643  17.902  0.00  0.00    +0.000 C 
ATOM     25  O   UNL     1       5.557   5.505  18.904  0.00  0.00    +0.000 OA
ATOM     26  N   UNL     1       5.382   5.570  16.610  0.00  0.00    +0.000 N 
ATOM     27  H   UNL     1       4.745   5.597  15.824  0.00  0.00    +0.000 HD
BRANCH  26  28
ATOM     28  S   UNL     1       6.974   5.339  16.227  0.00  0.00    +0.000 S 
ATOM     29  O   UNL     1       7.584   6.653  16.279  0.00  0.00    +0.000 OA
ATOM     30  O   UNL     1       7.495   4.250  17.021  0.00  0.00    +0.000 OA
BRANCH  28  31
ATOM     31  C   UNL     1       6.940   4.855  14.517  0.00  0.00    +0.000 A 
ATOM     32  C   UNL     1       6.015   3.898  14.090  0.00  0.00    +0.000 A 
ATOM     33  C   UNL     1       6.023   3.483  12.756  0.00  0.00    +0.000 A 
ATOM     34  C   UNL     1       6.936   4.038  11.857  0.00  0.00    +0.000 A 
ATOM     35  C   UNL     1       7.826   5.027  12.279  0.00  0.00    +0.000 A 
ATOM     36  C   UNL     1       7.826   5.445  13.610  0.00  0.00    +0.000 A 
ENDBRANCH  28  31
ENDBRANCH  26  28
ENDBRANCH  23  24
ENDBRANCH   6  23
TORSDOF 10
ENDMDL
MODEL 6
REMARK VINA RESULT:      -8.3      1.815      2.042
REMARK  Name = 
REMARK  10 active torsions:
REMARK  status: ('A' for Active; 'I' for Inactive)
REMARK    1  A    between atoms: N_1  and  S_2
REMARK    2  A    between atoms: S_2  and  C_5
REMARK    3  A    between atoms: C_8  and  C_9
REMARK    4  A    between atoms: C_9  and  C_10
REMARK    5  A    between atoms: C_10  and  N_11
REMARK    6  A    between atoms: C_12  and  C_13
REMARK    7  A    between atoms: C_18  and  O_19
REMARK    8  A    between atoms: O_19  and  C_20
REMARK    9  A    between atoms: N_22  and  S_23
REMARK   10  A    between atoms: S_23  and  C_26
REMARK                            x       y       z     vdW  Elec       q    Type
REMARK                         _______ _______ _______ _____ _____    ______ ____
ROOT
ATOM      1  C   UNL     1       2.601   4.746  19.517  0.00  0.00    +0.000 A 
ATOM      2  C   UNL     1       1.735   4.907  20.609  0.00  0.00    +0.000 A 
ATOM      3  C   UNL     1       1.540   3.863  21.511  0.00  0.00    +0.000 A 
ATOM      4  C   UNL     1       2.196   2.650  21.320  0.00  0.00    +0.000 A 
ATOM      5  C   UNL     1       3.051   2.480  20.229  0.00  0.00    +0.000 A 
ATOM      6  C   UNL     1       3.275   3.535  19.336  0.00  0.00    +0.000 A 
ENDROOT
BRANCH   1   8
ATOM      7  N   UNL     1       2.685   7.135  19.064  0.00  0.00    +0.000 NA
ATOM      8  C   UNL     1       2.735   5.919  18.641  0.00  0.00    +0.000 C 
BRANCH   7   9
ATOM      9  C   UNL     1       2.665   8.126  17.966  0.00  0.00    +0.000 C 
BRANCH   9  10
ATOM     10  C   UNL     1       1.239   8.654  17.743  0.00  0.00    +0.000 C 
BRANCH  10  14
ATOM     11  C   UNL     1       0.665  12.682  19.129  0.00  0.00    +0.000 A 
ATOM     12  C   UNL     1       1.897  12.312  18.587  0.00  0.00    +0.000 A 
ATOM     13  C   UNL     1       2.085  11.003  18.142  0.00  0.00    +0.000 A 
ATOM     14  C   UNL     1       1.047  10.063  18.243  0.00  0.00    +0.000 A 
ATOM     15  C   UNL     1      -0.174  10.442  18.810  0.00  0.00    +0.000 A 
ATOM     16  C   UNL     1      -0.367  11.748  19.255  0.00  0.00    +0.000 A 
BRANCH  11  17
ATOM     17  S   UNL     1       0.409  14.330  19.712  0.00  0.00    +0.000 S 
ATOM     18  O   UNL     1      -0.206  14.284  21.018  0.00  0.00    +0.000 OA
ATOM     19  O   UNL     1      -0.115  15.141  18.637  0.00  0.00    +0.000 OA
BRANCH  17  20
ATOM     20  N   UNL     1       1.983  14.857  19.958  0.00  0.00    +0.000 NA
ATOM     21  H   UNL     1       2.180  15.646  19.341  0.00  0.00    +0.000 HD
ATOM     22  H   UNL     1       2.634  14.080  19.854  0.00  0.00    +0.000 HD
ENDBRANCH  17  20
ENDBRANCH  11  17
ENDBRANCH  10  14
ENDBRANCH   9  10
ENDBRANCH   7   9
ENDBRANCH   1   8
BRANCH   6  23
ATOM     23  O   UNL     1       4.040   3.305  18.177  0.00  0.00    +0.000 OA
BRANCH  23  24
ATOM     24  C   UNL     1       5.243   3.997  18.064  0.00  0.00    +0.000 C 
ATOM     25  O   UNL     1       5.998   4.251  18.988  0.00  0.00    +0.000 OA
ATOM     26  N   UNL     1       5.536   4.280  16.734  0.00  0.00    +0.000 N 
ATOM     27  H   UNL     1       4.910   3.956  16.008  0.00  0.00    +0.000 HD
BRANCH  26  28
ATOM     28  S   UNL     1       6.906   5.039  16.204  0.00  0.00    +0.000 S 
ATOM     29  O   UNL     1       6.659   6.457  16.374  0.00  0.00    +0.000 OA
ATOM     30  O   UNL     1       8.057   4.411  16.811  0.00  0.00    +0.000 OA
BRANCH  28  31
ATOM     31  C   UNL     1       6.922   4.726  14.454  0.00  0.00    +0.000 A 
ATOM     32  C   UNL     1       6.063   3.762  13.918  0.00  0.00    +0.000 A 
ATOM     33  C   UNL     1       6.113   3.483  12.550  0.00  0.00    +0.000 A 
ATOM     34  C   UNL     1       7.000   4.178  11.726  0.00  0.00    +0.000 A 
ATOM     35  C   UNL     1       7.822   5.172  12.260  0.00  0.00    +0.000 A 
ATOM     36  C   UNL     1       7.781   5.455  13.626  0.00  0.00    +0.000 A 
ENDBRANCH  28  31
ENDBRANCH  26  28
ENDBRANCH  23  24
ENDBRANCH   6  23
TORSDOF 10
ENDMDL
MODEL 7
REMARK VINA RESULT:      -8.2      0.835      1.452
REMARK  Name = 
REMARK  10 active torsions:
REMARK  status: ('A' for Active; 'I' for Inactive)
REMARK    1  A    between atoms: N_1  and  S_2
REMARK    2  A    between atoms: S_2  and  C_5
REMARK    3  A    between atoms: C_8  and  C_9
REMARK    4  A    between atoms: C_9  and  C_10
REMARK    5  A    between atoms: C_10  and  N_11
REMARK    6  A    between atoms: C_12  and  C_13
REMARK    7  A    between atoms: C_18  and  O_19
REMARK    8  A    between atoms: O_19  and  C_20
REMARK    9  A    between atoms: N_22  and  S_23
REMARK   10  A    between atoms: S_23  and  C_26
REMARK                            x       y       z     vdW  Elec       q    Type
REMARK                         _______ _______ _______ _____ _____    ______ ____
ROOT
ATOM      1  C   UNL     1       2.882   5.160  18.527  0.00  0.00    +0.000 A 
ATOM      2  C   UNL     1       1.986   4.494  17.677  0.00  0.00    +0.000 A 
ATOM      3  C   UNL     1       2.108   3.123  17.463  0.00  0.00    +0.000 A 
ATOM      4  C   UNL     1       3.133   2.413  18.083  0.00  0.00    +0.000 A 
ATOM      5  C   UNL     1       4.034   3.072  18.922  0.00  0.00    +0.000 A 
ATOM      6  C   UNL     1       3.899   4.444  19.166  0.00  0.00    +0.000 A 
ENDROOT
BRANCH   1   8
ATOM      7  N   UNL     1       2.224   7.365  17.735  0.00  0.00    +0.000 NA
ATOM      8  C   UNL     1       2.647   6.603  18.684  0.00  0.00    +0.000 C 
BRANCH   7   9
ATOM      9  C   UNL     1       2.245   8.799  18.096  0.00  0.00    +0.000 C 
BRANCH   9  10
ATOM     10  C   UNL     1       0.876   9.443  17.824  0.00  0.00    +0.000 C 
BRANCH  10  14
ATOM     11  C   UNL     1      -0.222  12.299  20.843  0.00  0.00    +0.000 A 
ATOM     12  C   UNL     1      -1.148  11.334  20.443  0.00  0.00    +0.000 A 
ATOM     13  C   UNL     1      -0.793  10.410  19.459  0.00  0.00    +0.000 A 
ATOM     14  C   UNL     1       0.482  10.453  18.871  0.00  0.00    +0.000 A 
ATOM     15  C   UNL     1       1.389  11.440  19.266  0.00  0.00    +0.000 A 
ATOM     16  C   UNL     1       1.040  12.365  20.249  0.00  0.00    +0.000 A 
BRANCH  11  17
ATOM     17  S   UNL     1      -0.655  13.487  22.077  0.00  0.00    +0.000 S 
ATOM     18  O   UNL     1      -0.899  12.809  23.329  0.00  0.00    +0.000 OA
ATOM     19  O   UNL     1      -1.589  14.438  21.518  0.00  0.00    +0.000 OA
BRANCH  17  20
ATOM     20  N   UNL     1       0.787  14.322  22.274  0.00  0.00    +0.000 NA
ATOM     21  H   UNL     1       1.081  14.713  21.378  0.00  0.00    +0.000 HD
ATOM     22  H   UNL     1       1.485  13.719  22.709  0.00  0.00    +0.000 HD
ENDBRANCH  17  20
ENDBRANCH  11  17
ENDBRANCH  10  14
ENDBRANCH   9  10
ENDBRANCH   7   9
ENDBRANCH   1   8
BRANCH   6  23
ATOM     23  O   UNL     1       4.888   5.111  19.912  0.00  0.00    +0.000 OA
BRANCH  23  24
ATOM     24  C   UNL     1       6.135   5.269  19.314  0.00  0.00    +0.000 C 
ATOM     25  O   UNL     1       7.185   5.444  19.910  0.00  0.00    +0.000 OA
ATOM     26  N   UNL     1       6.055   5.101  17.935  0.00  0.00    +0.000 N 
ATOM     27  H   UNL     1       5.166   4.864  17.515  0.00  0.00    +0.000 HD
BRANCH  26  28
ATOM     28  S   UNL     1       7.339   5.158  16.895  0.00  0.00    +0.000 S 
ATOM     29  O   UNL     1       7.663   6.564  16.751  0.00  0.00    +0.000 OA
ATOM     30  O   UNL     1       8.339   4.210  17.329  0.00  0.00    +0.000 OA
BRANCH  28  31
ATOM     31  C   UNL     1       6.659   4.625  15.342  0.00  0.00    +0.000 A 
ATOM     32  C   UNL     1       7.430   4.728  14.180  0.00  0.00    +0.000 A 
ATOM     33  C   UNL     1       6.876   4.355  12.953  0.00  0.00    +0.000 A 
ATOM     34  C   UNL     1       5.570   3.865  12.896  0.00  0.00    +0.000 A 
ATOM     35  C   UNL     1       4.822   3.720  14.065  0.00  0.00    +0.000 A 
ATOM     36  C   UNL     1       5.367   4.093  15.295  0.00  0.00    +0.000 A 
ENDBRANCH  28  31
ENDBRANCH  26  28
ENDBRANCH  23  24
ENDBRANCH   6  23
TORSDOF 10
ENDMDL
MODEL 8
REMARK VINA RESULT:      -8.2      2.656      3.088
REMARK  Name = 
REMARK  10 active torsions:
REMARK  status: ('A' for Active; 'I' for Inactive)
REMARK    1  A    between atoms: N_1  and  S_2
REMARK    2  A    between atoms: S_2  and  C_5
REMARK    3  A    between atoms: C_8  and  C_9
REMARK    4  A    between atoms: C_9  and  C_10
REMARK    5  A    between atoms: C_10  and  N_11
REMARK    6  A    between atoms: C_12  and  C_13
REMARK    7  A    between atoms: C_18  and  O_19
REMARK    8  A    between atoms: O_19  and  C_20
REMARK    9  A    between atoms: N_22  and  S_23
REMARK   10  A    between atoms: S_23  and  C_26
REMARK                            x       y       z     vdW  Elec       q    Type
REMARK                         _______ _______ _______ _____ _____    ______ ____
ROOT
ATOM      1  C   UNL     1       2.238   5.168  20.292  0.00  0.00    +0.000 A 
ATOM      2  C   UNL     1       1.606   4.261  21.157  0.00  0.00    +0.000 A 
ATOM      3  C   UNL     1       2.002   2.925  21.185  0.00  0.00    +0.000 A 
ATOM      4  C   UNL     1       3.018   2.485  20.341  0.00  0.00    +0.000 A 
ATOM      5  C   UNL     1       3.644   3.380  19.471  0.00  0.00    +0.000 A 
ATOM      6  C   UNL     1       3.273   4.730  19.460  0.00  0.00    +0.000 A 
ENDROOT
BRANCH   1   8
ATOM      7  N   UNL     1       1.907   7.413  19.415  0.00  0.00    +0.000 NA
ATOM      8  C   UNL     1       1.744   6.551  20.359  0.00  0.00    +0.000 C 
BRANCH   7   9
ATOM      9  C   UNL     1       1.480   8.775  19.801  0.00  0.00    +0.000 C 
BRANCH   9  10
ATOM     10  C   UNL     1       1.281   9.651  18.554  0.00  0.00    +0.000 C 
BRANCH  10  14
ATOM     11  C   UNL     1      -2.799  10.917  18.078  0.00  0.00    +0.000 A 
ATOM     12  C   UNL     1      -2.282   9.935  17.230  0.00  0.00    +0.000 A 
ATOM     13  C   UNL     1      -0.956   9.528  17.382  0.00  0.00    +0.000 A 
ATOM     14  C   UNL     1      -0.145  10.105  18.373  0.00  0.00    +0.000 A 
ATOM     15  C   UNL     1      -0.671  11.103  19.199  0.00  0.00    +0.000 A 
ATOM     16  C   UNL     1      -1.995  11.512  19.053  0.00  0.00    +0.000 A 
BRANCH  11  17
ATOM     17  S   UNL     1      -4.471  11.457  17.895  0.00  0.00    +0.000 S 
ATOM     18  O   UNL     1      -5.362  10.423  18.368  0.00  0.00    +0.000 OA
ATOM     19  O   UNL     1      -4.632  12.087  16.604  0.00  0.00    +0.000 OA
BRANCH  17  20
ATOM     20  N   UNL     1      -4.559  12.696  19.023  0.00  0.00    +0.000 NA
ATOM     21  H   UNL     1      -3.719  13.272  18.965  0.00  0.00    +0.000 HD
ATOM     22  H   UNL     1      -4.733  12.314  19.952  0.00  0.00    +0.000 HD
ENDBRANCH  17  20
ENDBRANCH  11  17
ENDBRANCH  10  14
ENDBRANCH   9  10
ENDBRANCH   7   9
ENDBRANCH   1   8
BRANCH   6  23
ATOM     23  O   UNL     1       3.826   5.588  18.491  0.00  0.00    +0.000 OA
BRANCH  23  24
ATOM     24  C   UNL     1       5.212   5.577  18.352  0.00  0.00    +0.000 C 
ATOM     25  O   UNL     1       6.011   5.530  19.273  0.00  0.00    +0.000 OA
ATOM     26  N   UNL     1       5.581   5.522  17.012  0.00  0.00    +0.000 N 
ATOM     27  H   UNL     1       4.863   5.468  16.302  0.00  0.00    +0.000 HD
BRANCH  26  28
ATOM     28  S   UNL     1       7.137   5.437  16.459  0.00  0.00    +0.000 S 
ATOM     29  O   UNL     1       7.602   6.808  16.386  0.00  0.00    +0.000 OA
ATOM     30  O   UNL     1       7.858   4.451  17.230  0.00  0.00    +0.000 OA
BRANCH  28  31
ATOM     31  C   UNL     1       6.968   4.862  14.785  0.00  0.00    +0.000 A 
ATOM     32  C   UNL     1       7.799   5.384  13.789  0.00  0.00    +0.000 A 
ATOM     33  C   UNL     1       7.631   4.968  12.467  0.00  0.00    +0.000 A 
ATOM     34  C   UNL     1       6.653   4.023  12.150  0.00  0.00    +0.000 A 
ATOM     35  C   UNL     1       5.858   3.471  13.156  0.00  0.00    +0.000 A 
ATOM     36  C   UNL     1       6.017   3.883  14.479  0.00  0.00    +0.000 A 
ENDBRANCH  28  31
ENDBRANCH  26  28
ENDBRANCH  23  24
ENDBRANCH   6  23
TORSDOF 10
ENDMDL
MODEL 9
REMARK VINA RESULT:      -8.2      1.163      1.599
REMARK  Name = 
REMARK  10 active torsions:
REMARK  status: ('A' for Active; 'I' for Inactive)
REMARK    1  A    between atoms: N_1  and  S_2
REMARK    2  A    between atoms: S_2  and  C_5
REMARK    3  A    between atoms: C_8  and  C_9
REMARK    4  A    between atoms: C_9  and  C_10
REMARK    5  A    between atoms: C_10  and  N_11
REMARK    6  A    between atoms: C_12  and  C_13
REMARK    7  A    between atoms: C_18  and  O_19
REMARK    8  A    between atoms: O_19  and  C_20
REMARK    9  A    between atoms: N_22  and  S_23
REMARK   10  A    between atoms: S_23  and  C_26
REMARK                            x       y       z     vdW  Elec       q    Type
REMARK                         _______ _______ _______ _____ _____    ______ ____
ROOT
ATOM      1  C   UNL     1       2.732   5.040  18.627  0.00  0.00    +0.000 A 
ATOM      2  C   UNL     1       1.858   4.303  17.813  0.00  0.00    +0.000 A 
ATOM      3  C   UNL     1       2.129   2.967  17.521  0.00  0.00    +0.000 A 
ATOM      4  C   UNL     1       3.279   2.366  18.027  0.00  0.00    +0.000 A 
ATOM      5  C   UNL     1       4.157   3.098  18.828  0.00  0.00    +0.000 A 
ATOM      6  C   UNL     1       3.876   4.431  19.151  0.00  0.00    +0.000 A 
ENDROOT
BRANCH   1   8
ATOM      7  N   UNL     1       2.272   7.332  17.952  0.00  0.00    +0.000 NA
ATOM      8  C   UNL     1       2.337   6.434  18.874  0.00  0.00    +0.000 C 
BRANCH   7   9
ATOM      9  C   UNL     1       2.028   8.689  18.487  0.00  0.00    +0.000 C 
BRANCH   9  10
ATOM     10  C   UNL     1       0.792   9.316  17.823  0.00  0.00    +0.000 C 
BRANCH  10  14
ATOM     11  C   UNL     1      -1.360  11.966  20.436  0.00  0.00    +0.000 A 
ATOM     12  C   UNL     1      -1.610  12.004  19.063  0.00  0.00    +0.000 A 
ATOM     13  C   UNL     1      -0.908  11.147  18.214  0.00  0.00    +0.000 A 
ATOM     14  C   UNL     1       0.048  10.259  18.734  0.00  0.00    +0.000 A 
ATOM     15  C   UNL     1       0.303  10.249  20.109  0.00  0.00    +0.000 A 
ATOM     16  C   UNL     1      -0.396  11.102  20.961  0.00  0.00    +0.000 A 
BRANCH  11  17
ATOM     17  S   UNL     1      -2.227  13.052  21.527  0.00  0.00    +0.000 S 
ATOM     18  O   UNL     1      -1.288  13.662  22.439  0.00  0.00    +0.000 OA
ATOM     19  O   UNL     1      -3.438  12.407  21.979  0.00  0.00    +0.000 OA
BRANCH  17  20
ATOM     20  N   UNL     1      -2.719  14.270  20.483  0.00  0.00    +0.000 NA
ATOM     21  H   UNL     1      -1.997  14.990  20.434  0.00  0.00    +0.000 HD
ATOM     22  H   UNL     1      -3.634  14.622  20.761  0.00  0.00    +0.000 HD
ENDBRANCH  17  20
ENDBRANCH  11  17
ENDBRANCH  10  14
ENDBRANCH   9  10
ENDBRANCH   7   9
ENDBRANCH   1   8
BRANCH   6  23
ATOM     23  O   UNL     1       4.833   5.186  19.855  0.00  0.00    +0.000 OA
BRANCH  23  24
ATOM     24  C   UNL     1       6.097   5.299  19.282  0.00  0.00    +0.000 C 
ATOM     25  O   UNL     1       7.144   5.397  19.902  0.00  0.00    +0.000 OA
ATOM     26  N   UNL     1       6.033   5.182  17.898  0.00  0.00    +0.000 N 
ATOM     27  H   UNL     1       5.140   5.007  17.455  0.00  0.00    +0.000 HD
BRANCH  26  28
ATOM     28  S   UNL     1       7.337   5.208  16.881  0.00  0.00    +0.000 S 
ATOM     29  O   UNL     1       7.682   6.607  16.723  0.00  0.00    +0.000 OA
ATOM     30  O   UNL     1       8.316   4.253  17.346  0.00  0.00    +0.000 OA
BRANCH  28  31
ATOM     31  C   UNL     1       6.679   4.661  15.323  0.00  0.00    +0.000 A 
ATOM     32  C   UNL     1       7.467   4.752  14.172  0.00  0.00    +0.000 A 
ATOM     33  C   UNL     1       6.931   4.368  12.941  0.00  0.00    +0.000 A 
ATOM     34  C   UNL     1       5.624   3.880  12.868  0.00  0.00    +0.000 A 
ATOM     35  C   UNL     1       4.859   3.749  14.028  0.00  0.00    +0.000 A 
ATOM     36  C   UNL     1       5.386   4.132  15.262  0.00  0.00    +0.000 A 
ENDBRANCH  28  31
ENDBRANCH  26  28
ENDBRANCH  23  24
ENDBRANCH   6  23
TORSDOF 10
ENDMDL
