MODEL 1
REMARK VINA RESULT:      -7.1      0.000      0.000
REMARK  Name = 
REMARK  16 active torsions:
REMARK  status: ('A' for Active; 'I' for Inactive)
REMARK    1  A    between atoms: C_1  and  C_2
REMARK    2  A    between atoms: C_2  and  C_3
REMARK    3  A    between atoms: C_3  and  C_4
REMARK    4  A    between atoms: C_4  and  C_5
REMARK    5  A    between atoms: C_5  and  C_6
REMARK    6  A    between atoms: C_7  and  C_8
REMARK    7  A    between atoms: C_8  and  C_9
REMARK    8  A    between atoms: C_10  and  C_11
REMARK    9  A    between atoms: C_11  and  C_12
REMARK   10  A    between atoms: C_13  and  C_14
REMARK   11  A    between atoms: C_14  and  C_15
REMARK   12  A    between atoms: C_16  and  C_17
REMARK   13  A    between atoms: C_17  and  C_18
REMARK   14  A    between atoms: C_18  and  C_19
REMARK   15  A    between atoms: C_19  and  C_20
REMARK   16  A    between atoms: C_20  and  N_21
REMARK                            x       y       z     vdW  Elec       q    Type
REMARK                         _______ _______ _______ _____ _____    ______ ____
ROOT
ATOM      1  C   UNL     1       7.038   4.812  18.085  0.00  0.00    +0.000 C 
ENDROOT
BRANCH   1   3
ATOM      2  C   UNL     1       6.780   4.486  15.604  0.00  0.00    +0.000 C 
ATOM      3  C   UNL     1       7.552   4.527  16.706  0.00  0.00    +0.000 C 
BRANCH   2   4
ATOM      4  C   UNL     1       5.295   4.758  15.483  0.00  0.00    +0.000 C 
BRANCH   4   6
ATOM      5  C   UNL     1       3.716   5.287  17.405  0.00  0.00    +0.000 C 
ATOM      6  C   UNL     1       4.690   5.640  16.546  0.00  0.00    +0.000 C 
BRANCH   5   7
ATOM      7  C   UNL     1       3.055   3.946  17.452  0.00  0.00    +0.000 C 
BRANCH   7   9
ATOM      8  C   UNL     1       3.255   2.235  19.282  0.00  0.00    +0.000 C 
ATOM      9  C   UNL     1       3.814   3.023  18.350  0.00  0.00    +0.000 C 
BRANCH   8  10
ATOM     10  C   UNL     1       1.777   2.191  19.521  0.00  0.00    +0.000 C 
BRANCH  10  11
ATOM     11  C   UNL     1       1.405   2.695  20.905  0.00  0.00    +0.000 C 
BRANCH  11  12
ATOM     12  C   UNL     1       2.086   4.035  21.166  0.00  0.00    +0.000 C 
BRANCH  12  14
ATOM     13  C   UNL     1       2.127   6.371  20.262  0.00  0.00    +0.000 C 
ATOM     14  C   UNL     1       1.252   5.182  20.612  0.00  0.00    +0.000 C 
ENDBRANCH  12  14
ENDBRANCH  11  12
ENDBRANCH  10  11
ENDBRANCH   8  10
ENDBRANCH   7   9
ENDBRANCH   5   7
ENDBRANCH   4   6
ENDBRANCH   2   4
ENDBRANCH   1   3
BRANCH   1  15
ATOM     15  C   UNL     1       7.991   5.578  18.949  0.00  0.00    +0.000 C 
ATOM     16  C   UNL     1       8.227   6.895  18.820  0.00  0.00    +0.000 C 
BRANCH  16  17
ATOM     17  C   UNL     1       7.615   7.746  17.742  0.00  0.00    +0.000 C 
BRANCH  17  18
ATOM     18  C   UNL     1       8.054   9.206  17.813  0.00  0.00    +0.000 C 
BRANCH  18  19
ATOM     19  C   UNL     1       9.065   9.397  18.943  0.00  0.00    +0.000 C 
BRANCH  19  20
ATOM     20  C   UNL     1       9.077  10.837  19.449  0.00  0.00    +0.000 C 
BRANCH  20  21
ATOM     21  N   UNL     1       9.968  11.654  18.646  0.00  0.00    +0.000 N 
ATOM     22  C   UNL     1       9.529  12.506  17.675  0.00  0.00    +0.000 C 
ATOM     23  O   UNL     1       8.380  12.663  17.300  0.00  0.00    +0.000 OA
ATOM     24  C   UNL     1      10.705  13.267  17.134  0.00  0.00    +0.000 C 
ATOM     25  C   UNL     1      11.876  12.822  17.985  0.00  0.00    +0.000 C 
ATOM     26  C   UNL     1      11.298  11.791  18.914  0.00  0.00    +0.000 C 
ATOM     27  O   UNL     1      11.934  11.213  19.778  0.00  0.00    +0.000 OA
ENDBRANCH  20  21
ENDBRANCH  19  20
ENDBRANCH  18  19
ENDBRANCH  17  18
ENDBRANCH  16  17
ENDBRANCH   1  15
TORSDOF 15
ENDMDL
MODEL 2
REMARK VINA RESULT:      -6.9      4.490      9.760
REMARK  Name = 
REMARK  16 active torsions:
REMARK  status: ('A' for Active; 'I' for Inactive)
REMARK    1  A    between atoms: C_1  and  C_2
REMARK    2  A    between atoms: C_2  and  C_3
REMARK    3  A    between atoms: C_3  and  C_4
REMARK    4  A    between atoms: C_4  and  C_5
REMARK    5  A    between atoms: C_5  and  C_6
REMARK    6  A    between atoms: C_7  and  C_8
REMARK    7  A    between atoms: C_8  and  C_9
REMARK    8  A    between atoms: C_10  and  C_11
REMARK    9  A    between atoms: C_11  and  C_12
REMARK   10  A    between atoms: C_13  and  C_14
REMARK   11  A    between atoms: C_14  and  C_15
REMARK   12  A    between atoms: C_16  and  C_17
REMARK   13  A    between atoms: C_17  and  C_18
REMARK   14  A    between atoms: C_18  and  C_19
REMARK   15  A    between atoms: C_19  and  C_20
REMARK   16  A    between atoms: C_20  and  N_21
REMARK                            x       y       z     vdW  Elec       q    Type
REMARK                         _______ _______ _______ _____ _____    ______ ____
ROOT
ATOM      1  C   UNL     1       5.015   5.364  18.933  0.00  0.00    +0.000 C 
ENDROOT
BRANCH   1   3
ATOM      2  C   UNL     1       7.396   5.170  18.144  0.00  0.00    +0.000 C 
ATOM      3  C   UNL     1       6.174   4.633  18.326  0.00  0.00    +0.000 C 
BRANCH   2   4
ATOM      4  C   UNL     1       7.888   6.547  18.536  0.00  0.00    +0.000 C 
BRANCH   4   6
ATOM      5  C   UNL     1       8.007   8.938  17.681  0.00  0.00    +0.000 C 
ATOM      6  C   UNL     1       7.602   7.661  17.561  0.00  0.00    +0.000 C 
BRANCH   5   7
ATOM      7  C   UNL     1       8.815   9.482  18.816  0.00  0.00    +0.000 C 
BRANCH   7   9
ATOM      8  C   UNL     1       9.929  11.688  19.276  0.00  0.00    +0.000 C 
ATOM      9  C   UNL     1       9.480  10.760  18.416  0.00  0.00    +0.000 C 
BRANCH   8  10
ATOM     10  C   UNL     1       9.816  11.534  20.761  0.00  0.00    +0.000 C 
BRANCH  10  11
ATOM     11  C   UNL     1       9.764  12.875  21.474  0.00  0.00    +0.000 C 
BRANCH  11  12
ATOM     12  C   UNL     1       8.989  12.734  22.781  0.00  0.00    +0.000 C 
BRANCH  12  14
ATOM     13  C   UNL     1       7.659  14.010  24.478  0.00  0.00    +0.000 C 
ATOM     14  C   UNL     1       8.137  13.970  23.039  0.00  0.00    +0.000 C 
ENDBRANCH  12  14
ENDBRANCH  11  12
ENDBRANCH  10  11
ENDBRANCH   8  10
ENDBRANCH   7   9
ENDBRANCH   5   7
ENDBRANCH   4   6
ENDBRANCH   2   4
ENDBRANCH   1   3
BRANCH   1  15
ATOM     15  C   UNL     1       3.908   5.665  17.972  0.00  0.00    +0.000 C 
ATOM     16  C   UNL     1       2.778   6.311  18.307  0.00  0.00    +0.000 C 
BRANCH  16  17
ATOM     17  C   UNL     1       2.459   6.750  19.711  0.00  0.00    +0.000 C 
BRANCH  17  18
ATOM     18  C   UNL     1       2.081   5.589  20.627  0.00  0.00    +0.000 C 
BRANCH  18  19
ATOM     19  C   UNL     1       0.830   4.887  20.099  0.00  0.00    +0.000 C 
BRANCH  19  20
ATOM     20  C   UNL     1       0.894   3.379  20.325  0.00  0.00    +0.000 C 
BRANCH  20  21
ATOM     21  N   UNL     1       2.151   2.841  19.837  0.00  0.00    +0.000 N 
ATOM     22  C   UNL     1       3.147   2.406  20.661  0.00  0.00    +0.000 C 
ATOM     23  O   UNL     1       3.168   2.454  21.879  0.00  0.00    +0.000 OA
ATOM     24  C   UNL     1       4.242   1.812  19.821  0.00  0.00    +0.000 C 
ATOM     25  C   UNL     1       3.712   1.867  18.404  0.00  0.00    +0.000 C 
ATOM     26  C   UNL     1       2.375   2.543  18.525  0.00  0.00    +0.000 C 
ATOM     27  O   UNL     1       1.622   2.749  17.589  0.00  0.00    +0.000 OA
ENDBRANCH  20  21
ENDBRANCH  19  20
ENDBRANCH  18  19
ENDBRANCH  17  18
ENDBRANCH  16  17
ENDBRANCH   1  15
TORSDOF 15
ENDMDL
MODEL 3
REMARK VINA RESULT:      -6.8      5.130      8.162
REMARK  Name = 
REMARK  16 active torsions:
REMARK  status: ('A' for Active; 'I' for Inactive)
REMARK    1  A    between atoms: C_1  and  C_2
REMARK    2  A    between atoms: C_2  and  C_3
REMARK    3  A    between atoms: C_3  and  C_4
REMARK    4  A    between atoms: C_4  and  C_5
REMARK    5  A    between atoms: C_5  and  C_6
REMARK    6  A    between atoms: C_7  and  C_8
REMARK    7  A    between atoms: C_8  and  C_9
REMARK    8  A    between atoms: C_10  and  C_11
REMARK    9  A    between atoms: C_11  and  C_12
REMARK   10  A    between atoms: C_13  and  C_14
REMARK   11  A    between atoms: C_14  and  C_15
REMARK   12  A    between atoms: C_16  and  C_17
REMARK   13  A    between atoms: C_17  and  C_18
REMARK   14  A    between atoms: C_18  and  C_19
REMARK   15  A    between atoms: C_19  and  C_20
REMARK   16  A    between atoms: C_20  and  N_21
REMARK                            x       y       z     vdW  Elec       q    Type
REMARK                         _______ _______ _______ _____ _____    ______ ____
ROOT
ATOM      1  C   UNL     1       2.225   4.503  20.442  0.00  0.00    +0.000 C 
ENDROOT
BRANCH   1   3
ATOM      2  C   UNL     1       1.103   2.728  19.057  0.00  0.00    +0.000 C 
ATOM      3  C   UNL     1       1.072   3.626  20.061  0.00  0.00    +0.000 C 
BRANCH   2   4
ATOM      4  C   UNL     1       2.262   2.365  18.154  0.00  0.00    +0.000 C 
BRANCH   4   6
ATOM      5  C   UNL     1       3.730   4.077  16.980  0.00  0.00    +0.000 C 
ATOM      6  C   UNL     1       2.598   3.356  17.068  0.00  0.00    +0.000 C 
BRANCH   5   7
ATOM      7  C   UNL     1       4.862   4.026  17.957  0.00  0.00    +0.000 C 
BRANCH   7   9
ATOM      8  C   UNL     1       6.682   5.407  16.910  0.00  0.00    +0.000 C 
ATOM      9  C   UNL     1       5.717   5.245  17.829  0.00  0.00    +0.000 C 
BRANCH   8  10
ATOM     10  C   UNL     1       7.007   4.362  15.889  0.00  0.00    +0.000 C 
BRANCH  10  11
ATOM     11  C   UNL     1       6.689   4.822  14.476  0.00  0.00    +0.000 C 
BRANCH  11  12
ATOM     12  C   UNL     1       5.708   3.850  13.826  0.00  0.00    +0.000 C 
BRANCH  12  14
ATOM     13  C   UNL     1       7.286   4.361  11.949  0.00  0.00    +0.000 C 
ATOM     14  C   UNL     1       6.201   3.426  12.449  0.00  0.00    +0.000 C 
ENDBRANCH  12  14
ENDBRANCH  11  12
ENDBRANCH  10  11
ENDBRANCH   8  10
ENDBRANCH   7   9
ENDBRANCH   5   7
ENDBRANCH   4   6
ENDBRANCH   2   4
ENDBRANCH   1   3
BRANCH   1  15
ATOM     15  C   UNL     1       1.828   5.865  20.922  0.00  0.00    +0.000 C 
ATOM     16  C   UNL     1       1.942   6.983  20.186  0.00  0.00    +0.000 C 
BRANCH  16  17
ATOM     17  C   UNL     1       2.551   7.012  18.810  0.00  0.00    +0.000 C 
BRANCH  17  18
ATOM     18  C   UNL     1       2.336   8.341  18.091  0.00  0.00    +0.000 C 
BRANCH  18  19
ATOM     19  C   UNL     1       1.495   9.278  18.957  0.00  0.00    +0.000 C 
BRANCH  19  20
ATOM     20  C   UNL     1       1.219  10.602  18.249  0.00  0.00    +0.000 C 
BRANCH  20  21
ATOM     21  N   UNL     1      -0.059  11.148  18.665  0.00  0.00    +0.000 N 
ATOM     22  C   UNL     1      -1.252  10.736  18.149  0.00  0.00    +0.000 C 
ATOM     23  O   UNL     1      -1.425   9.927  17.253  0.00  0.00    +0.000 OA
ATOM     24  C   UNL     1      -2.362  11.427  18.889  0.00  0.00    +0.000 C 
ATOM     25  C   UNL     1      -1.665  12.222  19.972  0.00  0.00    +0.000 C 
ATOM     26  C   UNL     1      -0.201  11.978  19.739  0.00  0.00    +0.000 C 
ATOM     27  O   UNL     1       0.691  12.435  20.433  0.00  0.00    +0.000 OA
ENDBRANCH  20  21
ENDBRANCH  19  20
ENDBRANCH  18  19
ENDBRANCH  17  18
ENDBRANCH  16  17
ENDBRANCH   1  15
TORSDOF 15
ENDMDL
MODEL 4
REMARK VINA RESULT:      -6.7      4.338      7.665
REMARK  Name = 
REMARK  16 active torsions:
REMARK  status: ('A' for Active; 'I' for Inactive)
REMARK    1  A    between atoms: C_1  and  C_2
REMARK    2  A    between atoms: C_2  and  C_3
REMARK    3  A    between atoms: C_3  and  C_4
REMARK    4  A    between atoms: C_4  and  C_5
REMARK    5  A    between atoms: C_5  and  C_6
REMARK    6  A    between atoms: C_7  and  C_8
REMARK    7  A    between atoms: C_8  and  C_9
REMARK    8  A    between atoms: C_10  and  C_11
REMARK    9  A    between atoms: C_11  and  C_12
REMARK   10  A    between atoms: C_13  and  C_14
REMARK   11  A    between atoms: C_14  and  C_15
REMARK   12  A    between atoms: C_16  and  C_17
REMARK   13  A    between atoms: C_17  and  C_18
REMARK   14  A    between atoms: C_18  and  C_19
REMARK   15  A    between atoms: C_19  and  C_20
REMARK   16  A    between atoms: C_20  and  N_21
REMARK                            x       y       z     vdW  Elec       q    Type
REMARK                         _______ _______ _______ _____ _____    ______ ____
ROOT
ATOM      1  C   UNL     1       1.058   3.870  20.361  0.00  0.00    +0.000 C 
ENDROOT
BRANCH   1   3
ATOM      2  C   UNL     1       2.354   6.020  20.200  0.00  0.00    +0.000 C 
ATOM      3  C   UNL     1       1.844   5.011  20.932  0.00  0.00    +0.000 C 
BRANCH   2   4
ATOM      4  C   UNL     1       2.218   6.267  18.712  0.00  0.00    +0.000 C 
BRANCH   4   6
ATOM      5  C   UNL     1       2.697   8.586  17.788  0.00  0.00    +0.000 C 
ATOM      6  C   UNL     1       3.094   7.348  18.132  0.00  0.00    +0.000 C 
BRANCH   5   7
ATOM      7  C   UNL     1       1.301   9.110  17.916  0.00  0.00    +0.000 C 
BRANCH   7   9
ATOM      8  C   UNL     1       0.278  10.543  19.709  0.00  0.00    +0.000 C 
ATOM      9  C   UNL     1       1.015   9.486  19.334  0.00  0.00    +0.000 C 
BRANCH   8  10
ATOM     10  C   UNL     1      -0.355  11.475  18.724  0.00  0.00    +0.000 C 
BRANCH  10  11
ATOM     11  C   UNL     1      -0.227  12.929  19.146  0.00  0.00    +0.000 C 
BRANCH  11  12
ATOM     12  C   UNL     1       1.238  13.261  19.417  0.00  0.00    +0.000 C 
BRANCH  12  14
ATOM     13  C   UNL     1       3.352  13.991  18.289  0.00  0.00    +0.000 C 
ATOM     14  C   UNL     1       2.043  13.243  18.125  0.00  0.00    +0.000 C 
ENDBRANCH  12  14
ENDBRANCH  11  12
ENDBRANCH  10  11
ENDBRANCH   8  10
ENDBRANCH   7   9
ENDBRANCH   5   7
ENDBRANCH   4   6
ENDBRANCH   2   4
ENDBRANCH   1   3
BRANCH   1  15
ATOM     15  C   UNL     1       1.834   2.597  20.226  0.00  0.00    +0.000 C 
ATOM     16  C   UNL     1       2.360   2.158  19.070  0.00  0.00    +0.000 C 
BRANCH  16  17
ATOM     17  C   UNL     1       2.171   2.861  17.753  0.00  0.00    +0.000 C 
BRANCH  17  18
ATOM     18  C   UNL     1       3.372   2.715  16.822  0.00  0.00    +0.000 C 
BRANCH  18  19
ATOM     19  C   UNL     1       4.081   4.059  16.662  0.00  0.00    +0.000 C 
BRANCH  19  20
ATOM     20  C   UNL     1       5.581   3.880  16.444  0.00  0.00    +0.000 C 
BRANCH  20  21
ATOM     21  N   UNL     1       6.335   4.683  17.388  0.00  0.00    +0.000 N 
ATOM     22  C   UNL     1       7.142   5.717  17.013  0.00  0.00    +0.000 C 
ATOM     23  O   UNL     1       7.398   6.075  15.876  0.00  0.00    +0.000 OA
ATOM     24  C   UNL     1       7.667   6.391  18.249  0.00  0.00    +0.000 C 
ATOM     25  C   UNL     1       6.982   5.679  19.396  0.00  0.00    +0.000 C 
ATOM     26  C   UNL     1       6.158   4.607  18.738  0.00  0.00    +0.000 C 
ATOM     27  O   UNL     1       5.436   3.832  19.340  0.00  0.00    +0.000 OA
ENDBRANCH  20  21
ENDBRANCH  19  20
ENDBRANCH  18  19
ENDBRANCH  17  18
ENDBRANCH  16  17
ENDBRANCH   1  15
TORSDOF 15
ENDMDL
MODEL 5
REMARK VINA RESULT:      -6.6      3.902      7.109
REMARK  Name = 
REMARK  16 active torsions:
REMARK  status: ('A' for Active; 'I' for Inactive)
REMARK    1  A    between atoms: C_1  and  C_2
REMARK    2  A    between atoms: C_2  and  C_3
REMARK    3  A    between atoms: C_3  and  C_4
REMARK    4  A    between atoms: C_4  and  C_5
REMARK    5  A    between atoms: C_5  and  C_6
REMARK    6  A    between atoms: C_7  and  C_8
REMARK    7  A    between atoms: C_8  and  C_9
REMARK    8  A    between atoms: C_10  and  C_11
REMARK    9  A    between atoms: C_11  and  C_12
REMARK   10  A    between atoms: C_13  and  C_14
REMARK   11  A    between atoms: C_14  and  C_15
REMARK   12  A    between atoms: C_16  and  C_17
REMARK   13  A    between atoms: C_17  and  C_18
REMARK   14  A    between atoms: C_18  and  C_19
REMARK   15  A    between atoms: C_19  and  C_20
REMARK   16  A    between atoms: C_20  and  N_21
REMARK                            x       y       z     vdW  Elec       q    Type
REMARK                         _______ _______ _______ _____ _____    ______ ____
ROOT
ATOM      1  C   UNL     1       1.101   4.114  20.302  0.00  0.00    +0.000 C 
ENDROOT
BRANCH   1   3
ATOM      2  C   UNL     1       2.172   6.362  20.661  0.00  0.00    +0.000 C 
ATOM      3  C   UNL     1       1.955   5.091  21.051  0.00  0.00    +0.000 C 
BRANCH   2   4
ATOM      4  C   UNL     1       1.594   7.092  19.467  0.00  0.00    +0.000 C 
BRANCH   4   6
ATOM      5  C   UNL     1       2.487   8.664  17.679  0.00  0.00    +0.000 C 
ATOM      6  C   UNL     1       2.580   7.544  18.420  0.00  0.00    +0.000 C 
BRANCH   5   7
ATOM      7  C   UNL     1       1.376   9.662  17.762  0.00  0.00    +0.000 C 
BRANCH   7   9
ATOM      8  C   UNL     1       0.983  11.834  18.964  0.00  0.00    +0.000 C 
ATOM      9  C   UNL     1       1.805  10.854  18.556  0.00  0.00    +0.000 C 
BRANCH   8  10
ATOM     10  C   UNL     1      -0.484  11.834  18.666  0.00  0.00    +0.000 C 
BRANCH  10  11
ATOM     11  C   UNL     1      -1.291  11.156  19.761  0.00  0.00    +0.000 C 
BRANCH  11  12
ATOM     12  C   UNL     1      -0.439  11.017  21.019  0.00  0.00    +0.000 C 
BRANCH  12  14
ATOM     13  C   UNL     1       0.568   9.406  22.652  0.00  0.00    +0.000 C 
ATOM     14  C   UNL     1      -0.239   9.550  21.375  0.00  0.00    +0.000 C 
ENDBRANCH  12  14
ENDBRANCH  11  12
ENDBRANCH  10  11
ENDBRANCH   8  10
ENDBRANCH   7   9
ENDBRANCH   5   7
ENDBRANCH   4   6
ENDBRANCH   2   4
ENDBRANCH   1   3
BRANCH   1  15
ATOM     15  C   UNL     1       1.787   2.825  19.972  0.00  0.00    +0.000 C 
ATOM     16  C   UNL     1       2.307   2.540  18.766  0.00  0.00    +0.000 C 
BRANCH  16  17
ATOM     17  C   UNL     1       2.198   3.456  17.577  0.00  0.00    +0.000 C 
BRANCH  17  18
ATOM     18  C   UNL     1       3.371   4.425  17.462  0.00  0.00    +0.000 C 
BRANCH  18  19
ATOM     19  C   UNL     1       4.693   3.666  17.561  0.00  0.00    +0.000 C 
BRANCH  19  20
ATOM     20  C   UNL     1       5.676   4.105  16.479  0.00  0.00    +0.000 C 
BRANCH  20  21
ATOM     21  N   UNL     1       6.382   5.306  16.886  0.00  0.00    +0.000 N 
ATOM     22  C   UNL     1       5.989   6.562  16.527  0.00  0.00    +0.000 C 
ATOM     23  O   UNL     1       5.064   6.860  15.792  0.00  0.00    +0.000 OA
ATOM     24  C   UNL     1       6.875   7.560  17.217  0.00  0.00    +0.000 C 
ATOM     25  C   UNL     1       7.775   6.726  18.104  0.00  0.00    +0.000 C 
ATOM     26  C   UNL     1       7.380   5.305  17.815  0.00  0.00    +0.000 C 
ATOM     27  O   UNL     1       7.870   4.332  18.362  0.00  0.00    +0.000 OA
ENDBRANCH  20  21
ENDBRANCH  19  20
ENDBRANCH  18  19
ENDBRANCH  17  18
ENDBRANCH  16  17
ENDBRANCH   1  15
TORSDOF 15
ENDMDL
MODEL 6
REMARK VINA RESULT:      -6.6      5.268      8.277
REMARK  Name = 
REMARK  16 active torsions:
REMARK  status: ('A' for Active; 'I' for Inactive)
REMARK    1  A    between atoms: C_1  and  C_2
REMARK    2  A    between atoms: C_2  and  C_3
REMARK    3  A    between atoms: C_3  and  C_4
REMARK    4  A    between atoms: C_4  and  C_5
REMARK    5  A    between atoms: C_5  and  C_6
REMARK    6  A    between atoms: C_7  and  C_8
REMARK    7  A    between atoms: C_8  and  C_9
REMARK    8  A    between atoms: C_10  and  C_11
REMARK    9  A    between atoms: C_11  and  C_12
REMARK   10  A    between atoms: C_13  and  C_14
REMARK   11  A    between atoms: C_14  and  C_15
REMARK   12  A    between atoms: C_16  and  C_17
REMARK   13  A    between atoms: C_17  and  C_18
REMARK   14  A    between atoms: C_18  and  C_19
REMARK   15  A    between atoms: C_19  and  C_20
REMARK   16  A    between atoms: C_20  and  N_21
REMARK                            x       y       z     vdW  Elec       q    Type
REMARK                         _______ _______ _______ _____ _____    ______ ____
ROOT
ATOM      1  C   UNL     1       1.719   4.098  19.164  0.00  0.00    +0.000 C 
ENDROOT
BRANCH   1   3
ATOM      2  C   UNL     1       3.473   2.460  18.412  0.00  0.00    +0.000 C 
ATOM      3  C   UNL     1       2.240   2.721  18.884  0.00  0.00    +0.000 C 
BRANCH   2   4
ATOM      4  C   UNL     1       4.595   3.433  18.117  0.00  0.00    +0.000 C 
BRANCH   4   6
ATOM      5  C   UNL     1       5.982   5.256  19.221  0.00  0.00    +0.000 C 
ATOM      6  C   UNL     1       5.105   4.237  19.286  0.00  0.00    +0.000 C 
BRANCH   5   7
ATOM      7  C   UNL     1       6.614   5.769  17.966  0.00  0.00    +0.000 C 
BRANCH   7   9
ATOM      8  C   UNL     1       5.354   6.018  15.806  0.00  0.00    +0.000 C 
ATOM      9  C   UNL     1       5.581   6.384  17.077  0.00  0.00    +0.000 C 
BRANCH   8  10
ATOM     10  C   UNL     1       6.122   4.925  15.130  0.00  0.00    +0.000 C 
BRANCH  10  11
ATOM     11  C   UNL     1       5.438   4.441  13.863  0.00  0.00    +0.000 C 
BRANCH  11  12
ATOM     12  C   UNL     1       6.306   3.390  13.177  0.00  0.00    +0.000 C 
BRANCH  12  14
ATOM     13  C   UNL     1       4.322   3.319  11.649  0.00  0.00    +0.000 C 
ATOM     14  C   UNL     1       5.824   3.137  11.755  0.00  0.00    +0.000 C 
ENDBRANCH  12  14
ENDBRANCH  11  12
ENDBRANCH  10  11
ENDBRANCH   8  10
ENDBRANCH   7   9
ENDBRANCH   5   7
ENDBRANCH   4   6
ENDBRANCH   2   4
ENDBRANCH   1   3
BRANCH   1  15
ATOM     15  C   UNL     1       1.751   5.019  17.984  0.00  0.00    +0.000 C 
ATOM     16  C   UNL     1       2.191   6.288  18.034  0.00  0.00    +0.000 C 
BRANCH  16  17
ATOM     17  C   UNL     1       2.639   6.961  19.303  0.00  0.00    +0.000 C 
BRANCH  17  18
ATOM     18  C   UNL     1       1.803   8.190  19.652  0.00  0.00    +0.000 C 
BRANCH  18  19
ATOM     19  C   UNL     1       1.348   8.120  21.109  0.00  0.00    +0.000 C 
BRANCH  19  20
ATOM     20  C   UNL     1      -0.139   8.434  21.249  0.00  0.00    +0.000 C 
BRANCH  20  21
ATOM     21  N   UNL     1      -0.350   9.863  21.389  0.00  0.00    +0.000 N 
ATOM     22  C   UNL     1      -0.791  10.657  20.372  0.00  0.00    +0.000 C 
ATOM     23  O   UNL     1      -1.007  10.323  19.220  0.00  0.00    +0.000 OA
ATOM     24  C   UNL     1      -1.004  12.046  20.902  0.00  0.00    +0.000 C 
ATOM     25  C   UNL     1      -0.726  11.938  22.387  0.00  0.00    +0.000 C 
ATOM     26  C   UNL     1      -0.315  10.506  22.591  0.00  0.00    +0.000 C 
ATOM     27  O   UNL     1      -0.032  10.022  23.674  0.00  0.00    +0.000 OA
ENDBRANCH  20  21
ENDBRANCH  19  20
ENDBRANCH  18  19
ENDBRANCH  17  18
ENDBRANCH  16  17
ENDBRANCH   1  15
TORSDOF 15
ENDMDL
MODEL 7
REMARK VINA RESULT:      -6.6      4.697      8.079
REMARK  Name = 
REMARK  16 active torsions:
REMARK  status: ('A' for Active; 'I' for Inactive)
REMARK    1  A    between atoms: C_1  and  C_2
REMARK    2  A    between atoms: C_2  and  C_3
REMARK    3  A    between atoms: C_3  and  C_4
REMARK    4  A    between atoms: C_4  and  C_5
REMARK    5  A    between atoms: C_5  and  C_6
REMARK    6  A    between atoms: C_7  and  C_8
REMARK    7  A    between atoms: C_8  and  C_9
REMARK    8  A    between atoms: C_10  and  C_11
REMARK    9  A    between atoms: C_11  and  C_12
REMARK   10  A    between atoms: C_13  and  C_14
REMARK   11  A    between atoms: C_14  and  C_15
REMARK   12  A    between atoms: C_16  and  C_17
REMARK   13  A    between atoms: C_17  and  C_18
REMARK   14  A    between atoms: C_18  and  C_19
REMARK   15  A    between atoms: C_19  and  C_20
REMARK   16  A    between atoms: C_20  and  N_21
REMARK                            x       y       z     vdW  Elec       q    Type
REMARK                         _______ _______ _______ _____ _____    ______ ____
ROOT
ATOM      1  C   UNL     1       2.257   4.193  20.805  0.00  0.00    +0.000 C 
ENDROOT
BRANCH   1   3
ATOM      2  C   UNL     1       2.000   6.608  20.151  0.00  0.00    +0.000 C 
ATOM      3  C   UNL     1       1.994   5.641  21.088  0.00  0.00    +0.000 C 
BRANCH   2   4
ATOM      4  C   UNL     1       2.205   6.472  18.658  0.00  0.00    +0.000 C 
BRANCH   4   6
ATOM      5  C   UNL     1       2.518   8.815  17.721  0.00  0.00    +0.000 C 
ATOM      6  C   UNL     1       2.979   7.579  17.987  0.00  0.00    +0.000 C 
BRANCH   5   7
ATOM      7  C   UNL     1       1.143   9.309  18.042  0.00  0.00    +0.000 C 
BRANCH   7   9
ATOM      8  C   UNL     1       0.140  11.427  18.951  0.00  0.00    +0.000 C 
ATOM      9  C   UNL     1       1.194  10.734  18.494  0.00  0.00    +0.000 C 
BRANCH   8  10
ATOM     10  C   UNL     1      -1.229  10.832  19.067  0.00  0.00    +0.000 C 
BRANCH  10  11
ATOM     11  C   UNL     1      -2.287  11.880  19.366  0.00  0.00    +0.000 C 
BRANCH  11  12
ATOM     12  C   UNL     1      -1.772  12.844  20.431  0.00  0.00    +0.000 C 
BRANCH  12  14
ATOM     13  C   UNL     1      -1.132  12.847  22.853  0.00  0.00    +0.000 C 
ATOM     14  C   UNL     1      -2.130  12.348  21.825  0.00  0.00    +0.000 C 
ENDBRANCH  12  14
ENDBRANCH  11  12
ENDBRANCH  10  11
ENDBRANCH   8  10
ENDBRANCH   7   9
ENDBRANCH   5   7
ENDBRANCH   4   6
ENDBRANCH   2   4
ENDBRANCH   1   3
BRANCH   1  15
ATOM     15  C   UNL     1       1.022   3.376  20.586  0.00  0.00    +0.000 C 
ATOM     16  C   UNL     1       0.676   2.840  19.403  0.00  0.00    +0.000 C 
BRANCH  16  17
ATOM     17  C   UNL     1       1.456   3.057  18.134  0.00  0.00    +0.000 C 
BRANCH  17  18
ATOM     18  C   UNL     1       2.436   1.926  17.836  0.00  0.00    +0.000 C 
BRANCH  18  19
ATOM     19  C   UNL     1       3.873   2.436  17.932  0.00  0.00    +0.000 C 
BRANCH  19  20
ATOM     20  C   UNL     1       4.017   3.829  17.322  0.00  0.00    +0.000 C 
BRANCH  20  21
ATOM     21  N   UNL     1       5.402   4.262  17.358  0.00  0.00    +0.000 N 
ATOM     22  C   UNL     1       6.248   4.148  16.295  0.00  0.00    +0.000 C 
ATOM     23  O   UNL     1       6.009   3.632  15.217  0.00  0.00    +0.000 OA
ATOM     24  C   UNL     1       7.556   4.798  16.647  0.00  0.00    +0.000 C 
ATOM     25  C   UNL     1       7.330   5.395  18.021  0.00  0.00    +0.000 C 
ATOM     26  C   UNL     1       5.927   4.993  18.382  0.00  0.00    +0.000 C 
ATOM     27  O   UNL     1       5.368   5.311  19.417  0.00  0.00    +0.000 OA
ENDBRANCH  20  21
ENDBRANCH  19  20
ENDBRANCH  18  19
ENDBRANCH  17  18
ENDBRANCH  16  17
ENDBRANCH   1  15
TORSDOF 15
ENDMDL
MODEL 8
REMARK VINA RESULT:      -6.5      5.741      8.486
REMARK  Name = 
REMARK  16 active torsions:
REMARK  status: ('A' for Active; 'I' for Inactive)
REMARK    1  A    between atoms: C_1  and  C_2
REMARK    2  A    between atoms: C_2  and  C_3
REMARK    3  A    between atoms: C_3  and  C_4
REMARK    4  A    between atoms: C_4  and  C_5
REMARK    5  A    between atoms: C_5  and  C_6
REMARK    6  A    between atoms: C_7  and  C_8
REMARK    7  A    between atoms: C_8  and  C_9
REMARK    8  A    between atoms: C_10  and  C_11
REMARK    9  A    between atoms: C_11  and  C_12
REMARK   10  A    between atoms: C_13  and  C_14
REMARK   11  A    between atoms: C_14  and  C_15
REMARK   12  A    between atoms: C_16  and  C_17
REMARK   13  A    between atoms: C_17  and  C_18
REMARK   14  A    between atoms: C_18  and  C_19
REMARK   15  A    between atoms: C_19  and  C_20
REMARK   16  A    between atoms: C_20  and  N_21
REMARK                            x       y       z     vdW  Elec       q    Type
REMARK                         _______ _______ _______ _____ _____    ______ ____
ROOT
ATOM      1  C   UNL     1       2.046   6.310  20.119  0.00  0.00    +0.000 C 
ENDROOT
BRANCH   1   3
ATOM      2  C   UNL     1       1.953   3.860  20.682  0.00  0.00    +0.000 C 
ATOM      3  C   UNL     1       2.382   5.108  20.949  0.00  0.00    +0.000 C 
BRANCH   2   4
ATOM      4  C   UNL     1       1.119   3.380  19.512  0.00  0.00    +0.000 C 
BRANCH   4   6
ATOM      5  C   UNL     1       2.456   2.084  17.781  0.00  0.00    +0.000 C 
ATOM      6  C   UNL     1       1.600   2.131  18.818  0.00  0.00    +0.000 C 
BRANCH   5   7
ATOM      7  C   UNL     1       3.083   3.275  17.127  0.00  0.00    +0.000 C 
BRANCH   7   9
ATOM      8  C   UNL     1       5.364   4.327  17.214  0.00  0.00    +0.000 C 
ATOM      9  C   UNL     1       4.387   3.602  17.781  0.00  0.00    +0.000 C 
BRANCH   8  10
ATOM     10  C   UNL     1       5.246   4.904  15.838  0.00  0.00    +0.000 C 
BRANCH  10  11
ATOM     11  C   UNL     1       6.127   4.180  14.835  0.00  0.00    +0.000 C 
BRANCH  11  12
ATOM     12  C   UNL     1       5.344   3.925  13.550  0.00  0.00    +0.000 C 
BRANCH  12  14
ATOM     13  C   UNL     1       7.288   4.408  12.046  0.00  0.00    +0.000 C 
ATOM     14  C   UNL     1       6.257   3.377  12.461  0.00  0.00    +0.000 C 
ENDBRANCH  12  14
ENDBRANCH  11  12
ENDBRANCH  10  11
ENDBRANCH   8  10
ENDBRANCH   7   9
ENDBRANCH   5   7
ENDBRANCH   4   6
ENDBRANCH   2   4
ENDBRANCH   1   3
BRANCH   1  15
ATOM     15  C   UNL     1       2.191   6.098  18.645  0.00  0.00    +0.000 C 
ATOM     16  C   UNL     1       2.458   7.081  17.768  0.00  0.00    +0.000 C 
BRANCH  16  17
ATOM     17  C   UNL     1       2.573   8.530  18.156  0.00  0.00    +0.000 C 
BRANCH  17  18
ATOM     18  C   UNL     1       1.286   9.315  17.917  0.00  0.00    +0.000 C 
BRANCH  18  19
ATOM     19  C   UNL     1       0.682   9.754  19.250  0.00  0.00    +0.000 C 
BRANCH  19  20
ATOM     20  C   UNL     1       0.636  11.275  19.373  0.00  0.00    +0.000 C 
BRANCH  20  21
ATOM     21  N   UNL     1      -0.606  11.701  19.992  0.00  0.00    +0.000 N 
ATOM     22  C   UNL     1      -0.734  11.930  21.330  0.00  0.00    +0.000 C 
ATOM     23  O   UNL     1       0.114  11.761  22.189  0.00  0.00    +0.000 OA
ATOM     24  C   UNL     1      -2.112  12.465  21.598  0.00  0.00    +0.000 C 
ATOM     25  C   UNL     1      -2.740  12.613  20.228  0.00  0.00    +0.000 C 
ATOM     26  C   UNL     1      -1.698  12.096  19.276  0.00  0.00    +0.000 C 
ATOM     27  O   UNL     1      -1.826  12.076  18.064  0.00  0.00    +0.000 OA
ENDBRANCH  20  21
ENDBRANCH  19  20
ENDBRANCH  18  19
ENDBRANCH  17  18
ENDBRANCH  16  17
ENDBRANCH   1  15
TORSDOF 15
ENDMDL
MODEL 9
REMARK VINA RESULT:      -6.5      5.174      7.993
REMARK  Name = 
REMARK  16 active torsions:
REMARK  status: ('A' for Active; 'I' for Inactive)
REMARK    1  A    between atoms: C_1  and  C_2
REMARK    2  A    between atoms: C_2  and  C_3
REMARK    3  A    between atoms: C_3  and  C_4
REMARK    4  A    between atoms: C_4  and  C_5
REMARK    5  A    between atoms: C_5  and  C_6
REMARK    6  A    between atoms: C_7  and  C_8
REMARK    7  A    between atoms: C_8  and  C_9
REMARK    8  A    between atoms: C_10  and  C_11
REMARK    9  A    between atoms: C_11  and  C_12
REMARK   10  A    between atoms: C_13  and  C_14
REMARK   11  A    between atoms: C_14  and  C_15
REMARK   12  A    between atoms: C_16  and  C_17
REMARK   13  A    between atoms: C_17  and  C_18
REMARK   14  A    between atoms: C_18  and  C_19
REMARK   15  A    between atoms: C_19  and  C_20
REMARK   16  A    between atoms: C_20  and  N_21
REMARK                            x       y       z     vdW  Elec       q    Type
REMARK                         _______ _______ _______ _____ _____    ______ ____
ROOT
ATOM      1  C   UNL     1       2.260   6.651  18.456  0.00  0.00    +0.000 C 
ENDROOT
BRANCH   1   3
ATOM      2  C   UNL     1       2.009   5.587  20.721  0.00  0.00    +0.000 C 
ATOM      3  C   UNL     1       2.658   6.416  19.882  0.00  0.00    +0.000 C 
BRANCH   2   4
ATOM      4  C   UNL     1       0.819   4.696  20.433  0.00  0.00    +0.000 C 
BRANCH   4   6
ATOM      5  C   UNL     1       1.476   2.430  19.486  0.00  0.00    +0.000 C 
ATOM      6  C   UNL     1       1.066   3.210  20.502  0.00  0.00    +0.000 C 
BRANCH   5   7
ATOM      7  C   UNL     1       1.757   2.904  18.095  0.00  0.00    +0.000 C 
BRANCH   7   9
ATOM      8  C   UNL     1       4.223   2.555  17.752  0.00  0.00    +0.000 C 
ATOM      9  C   UNL     1       2.948   2.195  17.534  0.00  0.00    +0.000 C 
BRANCH   8  10
ATOM     10  C   UNL     1       4.596   3.726  18.607  0.00  0.00    +0.000 C 
BRANCH  10  11
ATOM     11  C   UNL     1       5.904   4.362  18.169  0.00  0.00    +0.000 C 
BRANCH  11  12
ATOM     12  C   UNL     1       5.636   5.747  17.589  0.00  0.00    +0.000 C 
BRANCH  12  14
ATOM     13  C   UNL     1       5.514   4.914  15.230  0.00  0.00    +0.000 C 
ATOM     14  C   UNL     1       6.211   5.865  16.184  0.00  0.00    +0.000 C 
ENDBRANCH  12  14
ENDBRANCH  11  12
ENDBRANCH  10  11
ENDBRANCH   8  10
ENDBRANCH   7   9
ENDBRANCH   5   7
ENDBRANCH   4   6
ENDBRANCH   2   4
ENDBRANCH   1   3
BRANCH   1  15
ATOM     15  C   UNL     1       2.843   7.891  17.853  0.00  0.00    +0.000 C 
ATOM     16  C   UNL     1       2.157   9.033  17.676  0.00  0.00    +0.000 C 
BRANCH  16  17
ATOM     17  C   UNL     1       0.694   9.181  17.999  0.00  0.00    +0.000 C 
BRANCH  17  18
ATOM     18  C   UNL     1       0.348  10.548  18.582  0.00  0.00    +0.000 C 
BRANCH  18  19
ATOM     19  C   UNL     1      -0.400  10.383  19.904  0.00  0.00    +0.000 C 
BRANCH  19  20
ATOM     20  C   UNL     1       0.489  10.720  21.099  0.00  0.00    +0.000 C 
BRANCH  20  21
ATOM     21  N   UNL     1      -0.041  11.858  21.826  0.00  0.00    +0.000 N 
ATOM     22  C   UNL     1       0.214  13.152  21.478  0.00  0.00    +0.000 C 
ATOM     23  O   UNL     1       0.944  13.543  20.584  0.00  0.00    +0.000 OA
ATOM     24  C   UNL     1      -0.585  14.058  22.371  0.00  0.00    +0.000 C 
ATOM     25  C   UNL     1      -1.417  13.123  23.222  0.00  0.00    +0.000 C 
ATOM     26  C   UNL     1      -0.993  11.745  22.797  0.00  0.00    +0.000 C 
ATOM     27  O   UNL     1      -1.464  10.713  23.243  0.00  0.00    +0.000 OA
ENDBRANCH  20  21
ENDBRANCH  19  20
ENDBRANCH  18  19
ENDBRANCH  17  18
ENDBRANCH  16  17
ENDBRANCH   1  15
TORSDOF 15
ENDMDL
