MODEL 1
REMARK VINA RESULT:      -7.7      0.000      0.000
REMARK  Name = 
REMARK  4 active torsions:
REMARK  status: ('A' for Active; 'I' for Inactive)
REMARK    1  A    between atoms: C_1  and  C_2
REMARK    2  A    between atoms: C_2  and  C_10
REMARK    3  A    between atoms: N_3  and  N_4
REMARK    4  A    between atoms: C_19  and  C_20
REMARK                            x       y       z     vdW  Elec       q    Type
REMARK                         _______ _______ _______ _____ _____    ______ ____
ROOT
ATOM      1  C   UNL     1       5.593   5.325  18.236  0.00  0.00    +0.000 A 
ATOM      2  C   UNL     1       5.068   4.446  19.172  0.00  0.00    +0.000 A 
ATOM      3  N   UNL     1       3.737   4.629  19.242  0.00  0.00    +0.000 N 
ATOM      4  C   UNL     1       2.804   3.901  20.061  0.00  0.00    +0.000 C 
ATOM      5  N   UNL     1       1.542   4.109  20.013  0.00  0.00    +0.000 NA
ATOM      6  C   UNL     1       0.854   3.209  20.908  0.00  0.00    +0.000 C 
ATOM      7  C   UNL     1       1.958   2.308  21.486  0.00  0.00    +0.000 C 
ATOM      8  N   UNL     1       3.161   2.865  20.938  0.00  0.00    +0.000 N 
ATOM      9  N   UNL     1       3.371   5.567  18.386  0.00  0.00    +0.000 NA
ATOM     10  C   UNL     1       4.468   6.013  17.749  0.00  0.00    +0.000 A 
ATOM     11  C   UNL     1       4.353   6.986  16.608  0.00  0.00    +0.000 C 
ATOM     12  H   UNL     1       4.113   2.516  21.108  0.00  0.00    +0.000 HD
ENDROOT
BRANCH   1  14
ATOM     13  C   UNL     1       7.973   6.223  18.618  0.00  0.00    +0.000 C 
ATOM     14  C   UNL     1       7.040   5.347  17.828  0.00  0.00    +0.000 C 
ATOM     15  N   UNL     1       7.562   4.666  16.859  0.00  0.00    +0.000 NA
BRANCH  15  16
ATOM     16  N   UNL     1       6.847   3.963  15.923  0.00  0.00    +0.000 N 
ATOM     17  C   UNL     1       6.940   4.297  14.549  0.00  0.00    +0.000 C 
ATOM     18  N   UNL     1       7.662   5.260  14.106  0.00  0.00    +0.000 NA
ATOM     19  C   UNL     1       7.563   5.283  12.660  0.00  0.00    +0.000 C 
ATOM     20  C   UNL     1       7.012   3.893  12.326  0.00  0.00    +0.000 C 
ATOM     21  N   UNL     1       6.331   3.538  13.537  0.00  0.00    +0.000 N 
ATOM     22  H   UNL     1       6.199   3.216  16.214  0.00  0.00    +0.000 HD
ATOM     23  H   UNL     1       5.822   2.657  13.698  0.00  0.00    +0.000 HD
ENDBRANCH  15  16
ENDBRANCH   1  14
TORSDOF 2
ENDMDL
MODEL 2
REMARK VINA RESULT:      -7.4      2.567      5.051
REMARK  Name = 
REMARK  4 active torsions:
REMARK  status: ('A' for Active; 'I' for Inactive)
REMARK    1  A    between atoms: C_1  and  C_2
REMARK    2  A    between atoms: C_2  and  C_10
REMARK    3  A    between atoms: N_3  and  N_4
REMARK    4  A    between atoms: C_19  and  C_20
REMARK                            x       y       z     vdW  Elec       q    Type
REMARK                         _______ _______ _______ _____ _____    ______ ____
ROOT
ATOM      1  C   UNL     1       2.692   4.465  19.060  0.00  0.00    +0.000 A 
ATOM      2  C   UNL     1       2.603   5.698  18.429  0.00  0.00    +0.000 A 
ATOM      3  N   UNL     1       2.081   6.590  19.289  0.00  0.00    +0.000 N 
ATOM      4  C   UNL     1       1.851   7.991  19.052  0.00  0.00    +0.000 C 
ATOM      5  N   UNL     1       1.403   8.776  19.958  0.00  0.00    +0.000 NA
ATOM      6  C   UNL     1       1.314  10.124  19.450  0.00  0.00    +0.000 C 
ATOM      7  C   UNL     1       1.889  10.049  18.027  0.00  0.00    +0.000 C 
ATOM      8  N   UNL     1       2.142   8.648  17.846  0.00  0.00    +0.000 N 
ATOM      9  N   UNL     1       1.845   6.004  20.451  0.00  0.00    +0.000 NA
ATOM     10  C   UNL     1       2.208   4.713  20.356  0.00  0.00    +0.000 A 
ATOM     11  C   UNL     1       2.192   3.819  21.566  0.00  0.00    +0.000 C 
ATOM     12  H   UNL     1       2.535   8.215  17.000  0.00  0.00    +0.000 HD
ENDROOT
BRANCH   1  14
ATOM     13  C   UNL     1       2.388   2.270  17.755  0.00  0.00    +0.000 C 
ATOM     14  C   UNL     1       3.309   3.246  18.432  0.00  0.00    +0.000 C 
ATOM     15  N   UNL     1       4.572   2.966  18.411  0.00  0.00    +0.000 NA
BRANCH  15  16
ATOM     16  N   UNL     1       5.535   3.633  19.125  0.00  0.00    +0.000 N 
ATOM     17  C   UNL     1       6.354   4.602  18.495  0.00  0.00    +0.000 C 
ATOM     18  N   UNL     1       6.264   4.897  17.250  0.00  0.00    +0.000 NA
ATOM     19  C   UNL     1       7.209   5.957  16.959  0.00  0.00    +0.000 C 
ATOM     20  C   UNL     1       7.540   6.520  18.344  0.00  0.00    +0.000 C 
ATOM     21  N   UNL     1       7.269   5.401  19.199  0.00  0.00    +0.000 N 
ATOM     22  H   UNL     1       5.703   3.402  20.115  0.00  0.00    +0.000 HD
ATOM     23  H   UNL     1       7.379   5.394  20.224  0.00  0.00    +0.000 HD
ENDBRANCH  15  16
ENDBRANCH   1  14
TORSDOF 2
ENDMDL
MODEL 3
REMARK VINA RESULT:      -7.1      1.694      6.362
REMARK  Name = 
REMARK  4 active torsions:
REMARK  status: ('A' for Active; 'I' for Inactive)
REMARK    1  A    between atoms: C_1  and  C_2
REMARK    2  A    between atoms: C_2  and  C_10
REMARK    3  A    between atoms: N_3  and  N_4
REMARK    4  A    between atoms: C_19  and  C_20
REMARK                            x       y       z     vdW  Elec       q    Type
REMARK                         _______ _______ _______ _____ _____    ______ ____
ROOT
ATOM      1  C   UNL     1       5.179   6.210  16.899  0.00  0.00    +0.000 A 
ATOM      2  C   UNL     1       4.885   5.462  15.768  0.00  0.00    +0.000 A 
ATOM      3  N   UNL     1       6.016   5.273  15.066  0.00  0.00    +0.000 N 
ATOM      4  C   UNL     1       6.164   4.523  13.846  0.00  0.00    +0.000 C 
ATOM      5  N   UNL     1       7.298   4.350  13.280  0.00  0.00    +0.000 NA
ATOM      6  C   UNL     1       7.149   3.526  12.104  0.00  0.00    +0.000 C 
ATOM      7  C   UNL     1       5.662   3.133  12.084  0.00  0.00    +0.000 C 
ATOM      8  N   UNL     1       5.112   3.864  13.190  0.00  0.00    +0.000 N 
ATOM      9  N   UNL     1       7.031   5.844  15.692  0.00  0.00    +0.000 NA
ATOM     10  C   UNL     1       6.567   6.419  16.815  0.00  0.00    +0.000 A 
ATOM     11  C   UNL     1       7.512   7.027  17.814  0.00  0.00    +0.000 C 
ATOM     12  H   UNL     1       4.128   3.847  13.488  0.00  0.00    +0.000 HD
ENDROOT
BRANCH   1  14
ATOM     13  C   UNL     1       3.412   7.831  17.827  0.00  0.00    +0.000 C 
ATOM     14  C   UNL     1       4.175   6.543  17.967  0.00  0.00    +0.000 C 
ATOM     15  N   UNL     1       3.896   5.810  18.997  0.00  0.00    +0.000 NA
BRANCH  15  16
ATOM     16  N   UNL     1       4.608   4.705  19.387  0.00  0.00    +0.000 N 
ATOM     17  C   UNL     1       4.064   3.407  19.230  0.00  0.00    +0.000 C 
ATOM     18  N   UNL     1       2.898   3.188  18.743  0.00  0.00    +0.000 NA
ATOM     19  C   UNL     1       2.687   1.755  18.679  0.00  0.00    +0.000 C 
ATOM     20  C   UNL     1       4.106   1.188  18.799  0.00  0.00    +0.000 C 
ATOM     21  N   UNL     1       4.792   2.237  19.496  0.00  0.00    +0.000 N 
ATOM     22  H   UNL     1       5.527   4.811  19.842  0.00  0.00    +0.000 HD
ATOM     23  H   UNL     1       5.786   2.220  19.768  0.00  0.00    +0.000 HD
ENDBRANCH  15  16
ENDBRANCH   1  14
TORSDOF 2
ENDMDL
MODEL 4
REMARK VINA RESULT:      -7.0      1.738      6.220
REMARK  Name = 
REMARK  4 active torsions:
REMARK  status: ('A' for Active; 'I' for Inactive)
REMARK    1  A    between atoms: C_1  and  C_2
REMARK    2  A    between atoms: C_2  and  C_10
REMARK    3  A    between atoms: N_3  and  N_4
REMARK    4  A    between atoms: C_19  and  C_20
REMARK                            x       y       z     vdW  Elec       q    Type
REMARK                         _______ _______ _______ _____ _____    ______ ____
ROOT
ATOM      1  C   UNL     1       6.713   5.705  17.749  0.00  0.00    +0.000 A 
ATOM      2  C   UNL     1       6.454   4.829  16.705  0.00  0.00    +0.000 A 
ATOM      3  N   UNL     1       6.898   5.374  15.559  0.00  0.00    +0.000 N 
ATOM      4  C   UNL     1       6.859   4.785  14.246  0.00  0.00    +0.000 C 
ATOM      5  N   UNL     1       7.363   5.361  13.221  0.00  0.00    +0.000 NA
ATOM      6  C   UNL     1       7.216   4.522  12.055  0.00  0.00    +0.000 C 
ATOM      7  C   UNL     1       6.572   3.228  12.579  0.00  0.00    +0.000 C 
ATOM      8  N   UNL     1       6.328   3.517  13.963  0.00  0.00    +0.000 N 
ATOM      9  N   UNL     1       7.448   6.550  15.808  0.00  0.00    +0.000 NA
ATOM     10  C   UNL     1       7.362   6.787  17.129  0.00  0.00    +0.000 A 
ATOM     11  C   UNL     1       8.032   7.987  17.741  0.00  0.00    +0.000 C 
ATOM     12  H   UNL     1       5.901   2.874  14.642  0.00  0.00    +0.000 HD
ENDROOT
BRANCH   1  14
ATOM     13  C   UNL     1       7.610   5.263  20.119  0.00  0.00    +0.000 C 
ATOM     14  C   UNL     1       6.432   5.394  19.193  0.00  0.00    +0.000 C 
ATOM     15  N   UNL     1       5.259   5.239  19.717  0.00  0.00    +0.000 NA
BRANCH  15  16
ATOM     16  N   UNL     1       4.090   5.140  19.006  0.00  0.00    +0.000 N 
ATOM     17  C   UNL     1       3.553   3.870  18.680  0.00  0.00    +0.000 C 
ATOM     18  N   UNL     1       4.116   2.764  19.003  0.00  0.00    +0.000 NA
ATOM     19  C   UNL     1       3.273   1.671  18.561  0.00  0.00    +0.000 C 
ATOM     20  C   UNL     1       1.920   2.348  18.323  0.00  0.00    +0.000 C 
ATOM     21  N   UNL     1       2.302   3.706  18.064  0.00  0.00    +0.000 N 
ATOM     22  H   UNL     1       3.616   5.988  18.661  0.00  0.00    +0.000 HD
ATOM     23  H   UNL     1       1.653   4.478  17.853  0.00  0.00    +0.000 HD
ENDBRANCH  15  16
ENDBRANCH   1  14
TORSDOF 2
ENDMDL
MODEL 5
REMARK VINA RESULT:      -6.9      2.347      7.035
REMARK  Name = 
REMARK  4 active torsions:
REMARK  status: ('A' for Active; 'I' for Inactive)
REMARK    1  A    between atoms: C_1  and  C_2
REMARK    2  A    between atoms: C_2  and  C_10
REMARK    3  A    between atoms: N_3  and  N_4
REMARK    4  A    between atoms: C_19  and  C_20
REMARK                            x       y       z     vdW  Elec       q    Type
REMARK                         _______ _______ _______ _____ _____    ______ ____
ROOT
ATOM      1  C   UNL     1       5.477   5.509  17.280  0.00  0.00    +0.000 A 
ATOM      2  C   UNL     1       5.222   4.831  16.097  0.00  0.00    +0.000 A 
ATOM      3  N   UNL     1       6.228   5.064  15.236  0.00  0.00    +0.000 N 
ATOM      4  C   UNL     1       6.376   4.526  13.909  0.00  0.00    +0.000 C 
ATOM      5  N   UNL     1       7.404   4.760  13.185  0.00  0.00    +0.000 NA
ATOM      6  C   UNL     1       7.299   4.058  11.927  0.00  0.00    +0.000 C 
ATOM      7  C   UNL     1       5.999   3.244  12.038  0.00  0.00    +0.000 C 
ATOM      8  N   UNL     1       5.457   3.656  13.301  0.00  0.00    +0.000 N 
ATOM      9  N   UNL     1       7.132   5.842  15.806  0.00  0.00    +0.000 NA
ATOM     10  C   UNL     1       6.717   6.132  17.052  0.00  0.00    +0.000 A 
ATOM     11  C   UNL     1       7.606   6.885  18.003  0.00  0.00    +0.000 C 
ATOM     12  H   UNL     1       4.580   3.315  13.716  0.00  0.00    +0.000 HD
ENDROOT
BRANCH   1  14
ATOM     13  C   UNL     1       4.884   4.288  19.465  0.00  0.00    +0.000 C 
ATOM     14  C   UNL     1       4.610   5.413  18.505  0.00  0.00    +0.000 C 
ATOM     15  N   UNL     1       3.650   6.223  18.816  0.00  0.00    +0.000 NA
BRANCH  15  16
ATOM     16  N   UNL     1       3.139   7.187  17.984  0.00  0.00    +0.000 N 
ATOM     17  C   UNL     1       2.233   8.156  18.480  0.00  0.00    +0.000 C 
ATOM     18  N   UNL     1       1.830   8.185  19.697  0.00  0.00    +0.000 NA
ATOM     19  C   UNL     1       0.959   9.331  19.868  0.00  0.00    +0.000 C 
ATOM     20  C   UNL     1       1.286  10.202  18.651  0.00  0.00    +0.000 C 
ATOM     21  N   UNL     1       1.774   9.237  17.710  0.00  0.00    +0.000 N 
ATOM     22  H   UNL     1       3.372   7.187  16.980  0.00  0.00    +0.000 HD
ATOM     23  H   UNL     1       2.096   9.446  16.753  0.00  0.00    +0.000 HD
ENDBRANCH  15  16
ENDBRANCH   1  14
TORSDOF 2
ENDMDL
MODEL 6
REMARK VINA RESULT:      -6.8      2.645      5.330
REMARK  Name = 
REMARK  4 active torsions:
REMARK  status: ('A' for Active; 'I' for Inactive)
REMARK    1  A    between atoms: C_1  and  C_2
REMARK    2  A    between atoms: C_2  and  C_10
REMARK    3  A    between atoms: N_3  and  N_4
REMARK    4  A    between atoms: C_19  and  C_20
REMARK                            x       y       z     vdW  Elec       q    Type
REMARK                         _______ _______ _______ _____ _____    ______ ____
ROOT
ATOM      1  C   UNL     1       4.879   5.937  18.205  0.00  0.00    +0.000 A 
ATOM      2  C   UNL     1       3.935   6.666  18.914  0.00  0.00    +0.000 A 
ATOM      3  N   UNL     1       3.283   7.477  18.063  0.00  0.00    +0.000 N 
ATOM      4  C   UNL     1       2.204   8.377  18.377  0.00  0.00    +0.000 C 
ATOM      5  N   UNL     1       1.605   9.068  17.483  0.00  0.00    +0.000 NA
ATOM      6  C   UNL     1       0.542   9.842  18.079  0.00  0.00    +0.000 C 
ATOM      7  C   UNL     1       0.536   9.428  19.560  0.00  0.00    +0.000 C 
ATOM      8  N   UNL     1       1.663   8.545  19.661  0.00  0.00    +0.000 N 
ATOM      9  N   UNL     1       3.743   7.299  16.836  0.00  0.00    +0.000 NA
ATOM     10  C   UNL     1       4.710   6.366  16.877  0.00  0.00    +0.000 A 
ATOM     11  C   UNL     1       5.328   5.842  15.610  0.00  0.00    +0.000 C 
ATOM     12  H   UNL     1       1.973   8.067  20.517  0.00  0.00    +0.000 HD
ENDROOT
BRANCH   1  14
ATOM     13  C   UNL     1       7.010   5.292  19.494  0.00  0.00    +0.000 C 
ATOM     14  C   UNL     1       5.738   4.864  18.814  0.00  0.00    +0.000 C 
ATOM     15  N   UNL     1       5.475   3.597  18.818  0.00  0.00    +0.000 NA
BRANCH  15  16
ATOM     16  N   UNL     1       4.469   3.005  18.098  0.00  0.00    +0.000 N 
ATOM     17  C   UNL     1       3.244   2.663  18.721  0.00  0.00    +0.000 C 
ATOM     18  N   UNL     1       3.009   2.864  19.966  0.00  0.00    +0.000 NA
ATOM     19  C   UNL     1       1.649   2.448  20.251  0.00  0.00    +0.000 C 
ATOM     20  C   UNL     1       1.005   2.389  18.862  0.00  0.00    +0.000 C 
ATOM     21  N   UNL     1       2.138   2.170  18.011  0.00  0.00    +0.000 N 
ATOM     22  H   UNL     1       4.612   2.758  17.107  0.00  0.00    +0.000 HD
ATOM     23  H   UNL     1       2.103   2.071  16.986  0.00  0.00    +0.000 HD
ENDBRANCH  15  16
ENDBRANCH   1  14
TORSDOF 2
ENDMDL
MODEL 7
REMARK VINA RESULT:      -6.8      1.582      6.546
REMARK  Name = 
REMARK  4 active torsions:
REMARK  status: ('A' for Active; 'I' for Inactive)
REMARK    1  A    between atoms: C_1  and  C_2
REMARK    2  A    between atoms: C_2  and  C_10
REMARK    3  A    between atoms: N_3  and  N_4
REMARK    4  A    between atoms: C_19  and  C_20
REMARK                            x       y       z     vdW  Elec       q    Type
REMARK                         _______ _______ _______ _____ _____    ______ ____
ROOT
ATOM      1  C   UNL     1       6.631   5.202  17.529  0.00  0.00    +0.000 A 
ATOM      2  C   UNL     1       6.419   4.389  16.425  0.00  0.00    +0.000 A 
ATOM      3  N   UNL     1       6.822   5.041  15.321  0.00  0.00    +0.000 N 
ATOM      4  C   UNL     1       6.811   4.546  13.969  0.00  0.00    +0.000 C 
ATOM      5  N   UNL     1       7.272   5.224  12.987  0.00  0.00    +0.000 NA
ATOM      6  C   UNL     1       7.169   4.464  11.763  0.00  0.00    +0.000 C 
ATOM      7  C   UNL     1       6.609   3.098  12.194  0.00  0.00    +0.000 C 
ATOM      8  N   UNL     1       6.356   3.272  13.596  0.00  0.00    +0.000 N 
ATOM      9  N   UNL     1       7.302   6.227  15.653  0.00  0.00    +0.000 NA
ATOM     10  C   UNL     1       7.210   6.363  16.988  0.00  0.00    +0.000 A 
ATOM     11  C   UNL     1       7.809   7.555  17.683  0.00  0.00    +0.000 C 
ATOM     12  H   UNL     1       5.973   2.557  14.228  0.00  0.00    +0.000 HD
ENDROOT
BRANCH   1  14
ATOM     13  C   UNL     1       7.276   5.333  20.016  0.00  0.00    +0.000 C 
ATOM     14  C   UNL     1       6.379   4.771  18.947  0.00  0.00    +0.000 C 
ATOM     15  N   UNL     1       5.445   3.964  19.336  0.00  0.00    +0.000 NA
BRANCH  15  16
ATOM     16  N   UNL     1       4.657   3.217  18.498  0.00  0.00    +0.000 N 
ATOM     17  C   UNL     1       3.386   2.760  18.926  0.00  0.00    +0.000 C 
ATOM     18  N   UNL     1       2.912   2.992  20.094  0.00  0.00    +0.000 NA
ATOM     19  C   UNL     1       1.579   2.428  20.171  0.00  0.00    +0.000 C 
ATOM     20  C   UNL     1       1.202   2.220  18.701  0.00  0.00    +0.000 C 
ATOM     21  N   UNL     1       2.486   2.100  18.074  0.00  0.00    +0.000 N 
ATOM     22  H   UNL     1       5.001   2.941  17.566  0.00  0.00    +0.000 HD
ATOM     23  H   UNL     1       2.646   1.945  17.067  0.00  0.00    +0.000 HD
ENDBRANCH  15  16
ENDBRANCH   1  14
TORSDOF 2
ENDMDL
MODEL 8
REMARK VINA RESULT:      -6.6      1.260      2.004
REMARK  Name = 
REMARK  4 active torsions:
REMARK  status: ('A' for Active; 'I' for Inactive)
REMARK    1  A    between atoms: C_1  and  C_2
REMARK    2  A    between atoms: C_2  and  C_10
REMARK    3  A    between atoms: N_3  and  N_4
REMARK    4  A    between atoms: C_19  and  C_20
REMARK                            x       y       z     vdW  Elec       q    Type
REMARK                         _______ _______ _______ _____ _____    ______ ____
ROOT
ATOM      1  C   UNL     1       6.297   5.547  18.058  0.00  0.00    +0.000 A 
ATOM      2  C   UNL     1       4.968   5.167  17.951  0.00  0.00    +0.000 A 
ATOM      3  N   UNL     1       4.588   4.584  19.101  0.00  0.00    +0.000 N 
ATOM      4  C   UNL     1       3.281   4.076  19.426  0.00  0.00    +0.000 C 
ATOM      5  N   UNL     1       3.000   3.590  20.576  0.00  0.00    +0.000 NA
ATOM      6  C   UNL     1       1.611   3.201  20.627  0.00  0.00    +0.000 C 
ATOM      7  C   UNL     1       1.032   3.627  19.268  0.00  0.00    +0.000 C 
ATOM      8  N   UNL     1       2.180   4.112  18.557  0.00  0.00    +0.000 N 
ATOM      9  N   UNL     1       5.597   4.584  19.955  0.00  0.00    +0.000 NA
ATOM     10  C   UNL     1       6.655   5.166  19.363  0.00  0.00    +0.000 A 
ATOM     11  C   UNL     1       7.914   5.443  20.137  0.00  0.00    +0.000 C 
ATOM     12  H   UNL     1       2.176   4.486  17.599  0.00  0.00    +0.000 HD
ENDROOT
BRANCH   1  14
ATOM     13  C   UNL     1       7.633   7.637  17.374  0.00  0.00    +0.000 C 
ATOM     14  C   UNL     1       7.039   6.308  16.994  0.00  0.00    +0.000 C 
ATOM     15  N   UNL     1       7.224   5.915  15.775  0.00  0.00    +0.000 NA
BRANCH  15  16
ATOM     16  N   UNL     1       6.608   4.833  15.199  0.00  0.00    +0.000 N 
ATOM     17  C   UNL     1       6.754   4.576  13.814  0.00  0.00    +0.000 C 
ATOM     18  N   UNL     1       7.436   5.326  13.028  0.00  0.00    +0.000 NA
ATOM     19  C   UNL     1       7.415   4.742  11.701  0.00  0.00    +0.000 C 
ATOM     20  C   UNL     1       6.974   3.298  11.962  0.00  0.00    +0.000 C 
ATOM     21  N   UNL     1       6.252   3.421  13.195  0.00  0.00    +0.000 N 
ATOM     22  H   UNL     1       5.995   4.222  15.760  0.00  0.00    +0.000 HD
ATOM     23  H   UNL     1       5.793   2.646  13.696  0.00  0.00    +0.000 HD
ENDBRANCH  15  16
ENDBRANCH   1  14
TORSDOF 2
ENDMDL
MODEL 9
REMARK VINA RESULT:      -6.6      2.106      7.140
REMARK  Name = 
REMARK  4 active torsions:
REMARK  status: ('A' for Active; 'I' for Inactive)
REMARK    1  A    between atoms: C_1  and  C_2
REMARK    2  A    between atoms: C_2  and  C_10
REMARK    3  A    between atoms: N_3  and  N_4
REMARK    4  A    between atoms: C_19  and  C_20
REMARK                            x       y       z     vdW  Elec       q    Type
REMARK                         _______ _______ _______ _____ _____    ______ ____
ROOT
ATOM      1  C   UNL     1       5.494   4.860  17.851  0.00  0.00    +0.000 A 
ATOM      2  C   UNL     1       5.340   4.465  16.531  0.00  0.00    +0.000 A 
ATOM      3  N   UNL     1       6.391   4.907  15.818  0.00  0.00    +0.000 N 
ATOM      4  C   UNL     1       6.644   4.688  14.418  0.00  0.00    +0.000 C 
ATOM      5  N   UNL     1       7.708   5.102  13.840  0.00  0.00    +0.000 NA
ATOM      6  C   UNL     1       7.709   4.703  12.453  0.00  0.00    +0.000 C 
ATOM      7  C   UNL     1       6.435   3.860  12.284  0.00  0.00    +0.000 C 
ATOM      8  N   UNL     1       5.797   3.963  13.565  0.00  0.00    +0.000 N 
ATOM      9  N   UNL     1       7.228   5.552  16.613  0.00  0.00    +0.000 NA
ATOM     10  C   UNL     1       6.724   5.542  17.859  0.00  0.00    +0.000 A 
ATOM     11  C   UNL     1       7.522   6.075  19.016  0.00  0.00    +0.000 C 
ATOM     12  H   UNL     1       4.908   3.519  13.828  0.00  0.00    +0.000 HD
ENDROOT
BRANCH   1  14
ATOM     13  C   UNL     1       4.738   3.115  19.583  0.00  0.00    +0.000 C 
ATOM     14  C   UNL     1       4.553   4.470  18.957  0.00  0.00    +0.000 C 
ATOM     15  N   UNL     1       3.600   5.206  19.432  0.00  0.00    +0.000 NA
BRANCH  15  16
ATOM     16  N   UNL     1       3.167   6.381  18.874  0.00  0.00    +0.000 N 
ATOM     17  C   UNL     1       2.242   7.205  19.562  0.00  0.00    +0.000 C 
ATOM     18  N   UNL     1       1.751   6.905  20.709  0.00  0.00    +0.000 NA
ATOM     19  C   UNL     1       0.888   7.988  21.137  0.00  0.00    +0.000 C 
ATOM     20  C   UNL     1       1.318   9.153  20.240  0.00  0.00    +0.000 C 
ATOM     21  N   UNL     1       1.858   8.473  19.099  0.00  0.00    +0.000 N 
ATOM     22  H   UNL     1       3.473   6.654  17.929  0.00  0.00    +0.000 HD
ATOM     23  H   UNL     1       2.253   8.931  18.264  0.00  0.00    +0.000 HD
ENDBRANCH  15  16
ENDBRANCH   1  14
TORSDOF 2
ENDMDL
