MODEL 1
REMARK VINA RESULT:      -7.3      0.000      0.000
REMARK  Name = 
REMARK  10 active torsions:
REMARK  status: ('A' for Active; 'I' for Inactive)
REMARK    1  A    between atoms: C_1  and  C_2
REMARK    2  A    between atoms: C_2  and  C_3
REMARK    3  A    between atoms: C_2  and  C_4
REMARK    4  A    between atoms: C_4  and  C_5
REMARK    5  A    between atoms: C_5  and  O_6
REMARK    6  A    between atoms: C_5  and  C_7
REMARK    7  A    between atoms: C_8  and  C_9
REMARK    8  A    between atoms: C_10  and  C_11
REMARK    9  A    between atoms: C_11  and  O_12
REMARK   10  A    between atoms: C_11  and  C_13
REMARK                            x       y       z     vdW  Elec       q    Type
REMARK                         _______ _______ _______ _____ _____    ______ ____
ROOT
ATOM      1  C   UNL     1       7.448   7.531  17.521  0.00  0.00    +0.000 C 
ATOM      2  C   UNL     1       6.868   6.575  17.100  0.00  0.00    +0.000 C 
ENDROOT
BRANCH   1   4
ATOM      3  C   UNL     1       8.734   9.814  18.224  0.00  0.00    +0.000 C 
ATOM      4  C   UNL     1       8.158   8.814  17.919  0.00  0.00    +0.000 C 
BRANCH   3   5
ATOM      5  C   UNL     1       9.549  10.973  18.591  0.00  0.00    +0.000 C 
BRANCH   5   6
ATOM      6  O   UNL     1       9.023  12.139  17.965  0.00  0.00    +0.000 OA
ATOM      7  H   UNL     1       9.348  12.903  18.468  0.00  0.00    +0.000 HD
ENDBRANCH   5   6
BRANCH   5   8
ATOM      8  C   UNL     1       9.542  11.164  20.116  0.00  0.00    +0.000 C 
BRANCH   8  10
ATOM      9  C   UNL     1      11.959  11.799  19.708  0.00  0.00    +0.000 C 
ATOM     10  C   UNL     1      10.760  11.951  20.643  0.00  0.00    +0.000 C 
ATOM     11  C   UNL     1      10.416  13.429  20.825  0.00  0.00    +0.000 C 
ENDBRANCH   8  10
ENDBRANCH   5   8
ENDBRANCH   3   5
ENDBRANCH   1   4
BRANCH   2  12
ATOM     12  C   UNL     1       6.147   5.478  16.455  0.00  0.00    +0.000 C 
BRANCH  12  13
ATOM     13  C   UNL     1       4.751   5.273  17.026  0.00  0.00    +0.000 A 
ATOM     14  C   UNL     1       3.984   6.336  17.545  0.00  0.00    +0.000 A 
ATOM     15  C   UNL     1       2.707   6.115  18.068  0.00  0.00    +0.000 A 
ATOM     16  C   UNL     1       2.184   4.825  18.103  0.00  0.00    +0.000 A 
ATOM     17  C   UNL     1       2.942   3.761  17.623  0.00  0.00    +0.000 A 
ATOM     18 CL   UNL     1       2.308   2.162  17.679  0.00  0.00    +0.000 Cl
ATOM     19  C   UNL     1       4.213   3.977  17.095  0.00  0.00    +0.000 A 
ENDBRANCH  12  13
BRANCH  12  20
ATOM     20  O   UNL     1       6.065   5.778  15.064  0.00  0.00    +0.000 OA
ATOM     21  H   UNL     1       6.219   4.936  14.599  0.00  0.00    +0.000 HD
ENDBRANCH  12  20
ENDBRANCH   2  12
TORSDOF 8
ENDMDL
MODEL 2
REMARK VINA RESULT:      -7.1      1.215      1.620
REMARK  Name = 
REMARK  10 active torsions:
REMARK  status: ('A' for Active; 'I' for Inactive)
REMARK    1  A    between atoms: C_1  and  C_2
REMARK    2  A    between atoms: C_2  and  C_3
REMARK    3  A    between atoms: C_2  and  C_4
REMARK    4  A    between atoms: C_4  and  C_5
REMARK    5  A    between atoms: C_5  and  O_6
REMARK    6  A    between atoms: C_5  and  C_7
REMARK    7  A    between atoms: C_8  and  C_9
REMARK    8  A    between atoms: C_10  and  C_11
REMARK    9  A    between atoms: C_11  and  O_12
REMARK   10  A    between atoms: C_11  and  C_13
REMARK                            x       y       z     vdW  Elec       q    Type
REMARK                         _______ _______ _______ _____ _____    ______ ____
ROOT
ATOM      1  C   UNL     1       7.456   7.612  17.606  0.00  0.00    +0.000 C 
ATOM      2  C   UNL     1       6.890   6.649  17.180  0.00  0.00    +0.000 C 
ENDROOT
BRANCH   1   4
ATOM      3  C   UNL     1       8.830   9.847  18.293  0.00  0.00    +0.000 C 
ATOM      4  C   UNL     1       8.224   8.861  18.002  0.00  0.00    +0.000 C 
BRANCH   3   5
ATOM      5  C   UNL     1       9.624  11.053  18.533  0.00  0.00    +0.000 C 
BRANCH   5   6
ATOM      6  O   UNL     1       9.017  12.159  17.874  0.00  0.00    +0.000 OA
ATOM      7  H   UNL     1       8.842  12.832  18.551  0.00  0.00    +0.000 HD
ENDBRANCH   5   6
BRANCH   5   8
ATOM      8  C   UNL     1       9.711  11.339  20.040  0.00  0.00    +0.000 C 
BRANCH   8  10
ATOM      9  C   UNL     1      12.154  11.727  19.496  0.00  0.00    +0.000 C 
ATOM     10  C   UNL     1      11.012  12.058  20.457  0.00  0.00    +0.000 C 
ATOM     11  C   UNL     1      10.801  13.569  20.526  0.00  0.00    +0.000 C 
ENDBRANCH   8  10
ENDBRANCH   5   8
ENDBRANCH   3   5
ENDBRANCH   1   4
BRANCH   2  12
ATOM     12  C   UNL     1       6.259   5.503  16.526  0.00  0.00    +0.000 C 
BRANCH  12  13
ATOM     13  C   UNL     1       4.899   5.161  17.120  0.00  0.00    +0.000 A 
ATOM     14  C   UNL     1       4.209   3.976  16.792  0.00  0.00    +0.000 A 
ATOM     15  C   UNL     1       2.960   3.693  17.350  0.00  0.00    +0.000 A 
ATOM     16  C   UNL     1       2.367   4.598  18.227  0.00  0.00    +0.000 A 
ATOM     17  C   UNL     1       3.024   5.786  18.536  0.00  0.00    +0.000 A 
ATOM     18 CL   UNL     1       2.290   6.918  19.605  0.00  0.00    +0.000 Cl
ATOM     19  C   UNL     1       4.272   6.071  17.987  0.00  0.00    +0.000 A 
ENDBRANCH  12  13
BRANCH  12  20
ATOM     20  O   UNL     1       6.120   5.821  15.143  0.00  0.00    +0.000 OA
ATOM     21  H   UNL     1       6.052   6.791  15.096  0.00  0.00    +0.000 HD
ENDBRANCH  12  20
ENDBRANCH   2  12
TORSDOF 8
ENDMDL
MODEL 3
REMARK VINA RESULT:      -7.1      1.405      1.665
REMARK  Name = 
REMARK  10 active torsions:
REMARK  status: ('A' for Active; 'I' for Inactive)
REMARK    1  A    between atoms: C_1  and  C_2
REMARK    2  A    between atoms: C_2  and  C_3
REMARK    3  A    between atoms: C_2  and  C_4
REMARK    4  A    between atoms: C_4  and  C_5
REMARK    5  A    between atoms: C_5  and  O_6
REMARK    6  A    between atoms: C_5  and  C_7
REMARK    7  A    between atoms: C_8  and  C_9
REMARK    8  A    between atoms: C_10  and  C_11
REMARK    9  A    between atoms: C_11  and  O_12
REMARK   10  A    between atoms: C_11  and  C_13
REMARK                            x       y       z     vdW  Elec       q    Type
REMARK                         _______ _______ _______ _____ _____    ______ ____
ROOT
ATOM      1  C   UNL     1       7.860   8.227  17.816  0.00  0.00    +0.000 C 
ATOM      2  C   UNL     1       7.451   7.156  17.479  0.00  0.00    +0.000 C 
ENDROOT
BRANCH   1   4
ATOM      3  C   UNL     1       9.039  10.589  18.439  0.00  0.00    +0.000 C 
ATOM      4  C   UNL     1       8.513   9.550  18.174  0.00  0.00    +0.000 C 
BRANCH   3   5
ATOM      5  C   UNL     1       9.783  11.824  18.692  0.00  0.00    +0.000 C 
BRANCH   5   6
ATOM      6  O   UNL     1       9.529  12.265  20.021  0.00  0.00    +0.000 OA
ATOM      7  H   UNL     1      10.392  12.372  20.455  0.00  0.00    +0.000 HD
ENDBRANCH   5   6
BRANCH   5   8
ATOM      8  C   UNL     1      11.289  11.582  18.511  0.00  0.00    +0.000 C 
BRANCH   8  10
ATOM      9  C   UNL     1      11.228  13.376  16.725  0.00  0.00    +0.000 C 
ATOM     10  C   UNL     1      12.033  12.777  17.877  0.00  0.00    +0.000 C 
ATOM     11  C   UNL     1      12.333  13.848  18.925  0.00  0.00    +0.000 C 
ENDBRANCH   8  10
ENDBRANCH   5   8
ENDBRANCH   3   5
ENDBRANCH   1   4
BRANCH   2  12
ATOM     12  C   UNL     1       7.086   5.819  17.010  0.00  0.00    +0.000 C 
BRANCH  12  13
ATOM     13  C   UNL     1       5.627   5.479  17.277  0.00  0.00    +0.000 A 
ATOM     14  C   UNL     1       4.643   6.470  17.473  0.00  0.00    +0.000 A 
ATOM     15  C   UNL     1       3.313   6.125  17.722  0.00  0.00    +0.000 A 
ATOM     16  C   UNL     1       2.944   4.784  17.803  0.00  0.00    +0.000 A 
ATOM     17  C   UNL     1       3.910   3.795  17.642  0.00  0.00    +0.000 A 
ATOM     18 CL   UNL     1       3.466   2.137  17.759  0.00  0.00    +0.000 Cl
ATOM     19  C   UNL     1       5.237   4.133  17.388  0.00  0.00    +0.000 A 
ENDBRANCH  12  13
BRANCH  12  20
ATOM     20  O   UNL     1       7.350   5.769  15.610  0.00  0.00    +0.000 OA
ATOM     21  H   UNL     1       6.698   6.360  15.193  0.00  0.00    +0.000 HD
ENDBRANCH  12  20
ENDBRANCH   2  12
TORSDOF 8
ENDMDL
MODEL 4
REMARK VINA RESULT:      -7.1      1.263      1.593
REMARK  Name = 
REMARK  10 active torsions:
REMARK  status: ('A' for Active; 'I' for Inactive)
REMARK    1  A    between atoms: C_1  and  C_2
REMARK    2  A    between atoms: C_2  and  C_3
REMARK    3  A    between atoms: C_2  and  C_4
REMARK    4  A    between atoms: C_4  and  C_5
REMARK    5  A    between atoms: C_5  and  O_6
REMARK    6  A    between atoms: C_5  and  C_7
REMARK    7  A    between atoms: C_8  and  C_9
REMARK    8  A    between atoms: C_10  and  C_11
REMARK    9  A    between atoms: C_11  and  O_12
REMARK   10  A    between atoms: C_11  and  C_13
REMARK                            x       y       z     vdW  Elec       q    Type
REMARK                         _______ _______ _______ _____ _____    ______ ____
ROOT
ATOM      1  C   UNL     1       7.655   7.499  17.449  0.00  0.00    +0.000 C 
ATOM      2  C   UNL     1       7.084   6.559  16.980  0.00  0.00    +0.000 C 
ENDROOT
BRANCH   1   4
ATOM      3  C   UNL     1       8.706   9.775  18.486  0.00  0.00    +0.000 C 
ATOM      4  C   UNL     1       8.244   8.768  18.040  0.00  0.00    +0.000 C 
BRANCH   3   5
ATOM      5  C   UNL     1       9.304  11.041  18.912  0.00  0.00    +0.000 C 
BRANCH   5   6
ATOM      6  O   UNL     1       9.791  10.909  20.244  0.00  0.00    +0.000 OA
ATOM      7  H   UNL     1      10.681  11.298  20.260  0.00  0.00    +0.000 HD
ENDBRANCH   5   6
BRANCH   5   8
ATOM      8  C   UNL     1      10.463  11.421  17.978  0.00  0.00    +0.000 C 
BRANCH   8  10
ATOM      9  C   UNL     1       9.101  13.555  17.899  0.00  0.00    +0.000 C 
ATOM     10  C   UNL     1      10.426  12.894  17.519  0.00  0.00    +0.000 C 
ATOM     11  C   UNL     1      11.596  13.678  18.111  0.00  0.00    +0.000 C 
ENDBRANCH   8  10
ENDBRANCH   5   8
ENDBRANCH   3   5
ENDBRANCH   1   4
BRANCH   2  12
ATOM     12  C   UNL     1       6.264   5.495  16.402  0.00  0.00    +0.000 C 
BRANCH  12  13
ATOM     13  C   UNL     1       4.865   5.438  17.000  0.00  0.00    +0.000 A 
ATOM     14  C   UNL     1       4.210   6.582  17.500  0.00  0.00    +0.000 A 
ATOM     15  C   UNL     1       2.928   6.496  18.047  0.00  0.00    +0.000 A 
ATOM     16  C   UNL     1       2.286   5.263  18.127  0.00  0.00    +0.000 A 
ATOM     17  C   UNL     1       2.933   4.120  17.666  0.00  0.00    +0.000 A 
ATOM     18 CL   UNL     1       2.153   2.590  17.777  0.00  0.00    +0.000 Cl
ATOM     19  C   UNL     1       4.209   4.201  17.113  0.00  0.00    +0.000 A 
ENDBRANCH  12  13
BRANCH  12  20
ATOM     20  O   UNL     1       6.185   5.729  14.998  0.00  0.00    +0.000 OA
ATOM     21  H   UNL     1       6.243   6.694  14.884  0.00  0.00    +0.000 HD
ENDBRANCH  12  20
ENDBRANCH   2  12
TORSDOF 8
ENDMDL
MODEL 5
REMARK VINA RESULT:      -7.0      1.879      2.401
REMARK  Name = 
REMARK  10 active torsions:
REMARK  status: ('A' for Active; 'I' for Inactive)
REMARK    1  A    between atoms: C_1  and  C_2
REMARK    2  A    between atoms: C_2  and  C_3
REMARK    3  A    between atoms: C_2  and  C_4
REMARK    4  A    between atoms: C_4  and  C_5
REMARK    5  A    between atoms: C_5  and  O_6
REMARK    6  A    between atoms: C_5  and  C_7
REMARK    7  A    between atoms: C_8  and  C_9
REMARK    8  A    between atoms: C_10  and  C_11
REMARK    9  A    between atoms: C_11  and  O_12
REMARK   10  A    between atoms: C_11  and  C_13
REMARK                            x       y       z     vdW  Elec       q    Type
REMARK                         _______ _______ _______ _____ _____    ______ ____
ROOT
ATOM      1  C   UNL     1       7.645   7.687  17.628  0.00  0.00    +0.000 C 
ATOM      2  C   UNL     1       7.097   6.702  17.230  0.00  0.00    +0.000 C 
ENDROOT
BRANCH   1   4
ATOM      3  C   UNL     1       8.824  10.034  18.305  0.00  0.00    +0.000 C 
ATOM      4  C   UNL     1       8.296   9.007  18.002  0.00  0.00    +0.000 C 
BRANCH   3   5
ATOM      5  C   UNL     1       9.533  11.228  18.768  0.00  0.00    +0.000 C 
BRANCH   5   6
ATOM      6  O   UNL     1      10.005  11.014  20.094  0.00  0.00    +0.000 OA
ATOM      7  H   UNL     1       9.224  10.951  20.667  0.00  0.00    +0.000 HD
ENDBRANCH   5   6
BRANCH   5   8
ATOM      8  C   UNL     1      10.722  11.530  17.844  0.00  0.00    +0.000 C 
BRANCH   8  10
ATOM      9  C   UNL     1       9.587  13.793  17.903  0.00  0.00    +0.000 C 
ATOM     10  C   UNL     1      10.732  12.977  17.305  0.00  0.00    +0.000 C 
ATOM     11  C   UNL     1      12.070  13.655  17.591  0.00  0.00    +0.000 C 
ENDBRANCH   8  10
ENDBRANCH   5   8
ENDBRANCH   3   5
ENDBRANCH   1   4
BRANCH   2  12
ATOM     12  C   UNL     1       6.398   5.573  16.618  0.00  0.00    +0.000 C 
BRANCH  12  13
ATOM     13  C   UNL     1       4.966   5.427  17.114  0.00  0.00    +0.000 A 
ATOM     14  C   UNL     1       4.274   4.199  17.072  0.00  0.00    +0.000 A 
ATOM     15  C   UNL     1       2.958   4.098  17.530  0.00  0.00    +0.000 A 
ATOM     16  C   UNL     1       2.302   5.227  18.016  0.00  0.00    +0.000 A 
ATOM     17  C   UNL     1       2.962   6.452  18.034  0.00  0.00    +0.000 A 
ATOM     18 CL   UNL     1       2.151   7.854  18.615  0.00  0.00    +0.000 Cl
ATOM     19  C   UNL     1       4.276   6.557  17.584  0.00  0.00    +0.000 A 
ENDBRANCH  12  13
BRANCH  12  20
ATOM     20  O   UNL     1       6.407   5.777  15.207  0.00  0.00    +0.000 OA
ATOM     21  H   UNL     1       5.503   5.582  14.903  0.00  0.00    +0.000 HD
ENDBRANCH  12  20
ENDBRANCH   2  12
TORSDOF 8
ENDMDL
MODEL 6
REMARK VINA RESULT:      -7.0      1.795      2.184
REMARK  Name = 
REMARK  10 active torsions:
REMARK  status: ('A' for Active; 'I' for Inactive)
REMARK    1  A    between atoms: C_1  and  C_2
REMARK    2  A    between atoms: C_2  and  C_3
REMARK    3  A    between atoms: C_2  and  C_4
REMARK    4  A    between atoms: C_4  and  C_5
REMARK    5  A    between atoms: C_5  and  O_6
REMARK    6  A    between atoms: C_5  and  C_7
REMARK    7  A    between atoms: C_8  and  C_9
REMARK    8  A    between atoms: C_10  and  C_11
REMARK    9  A    between atoms: C_11  and  O_12
REMARK   10  A    between atoms: C_11  and  C_13
REMARK                            x       y       z     vdW  Elec       q    Type
REMARK                         _______ _______ _______ _____ _____    ______ ____
ROOT
ATOM      1  C   UNL     1       8.141   8.439  17.839  0.00  0.00    +0.000 C 
ATOM      2  C   UNL     1       7.684   7.405  17.451  0.00  0.00    +0.000 C 
ENDROOT
BRANCH   1   4
ATOM      3  C   UNL     1       9.237  10.655  18.956  0.00  0.00    +0.000 C 
ATOM      4  C   UNL     1       8.744   9.683  18.468  0.00  0.00    +0.000 C 
BRANCH   3   5
ATOM      5  C   UNL     1       9.953  11.782  19.555  0.00  0.00    +0.000 C 
BRANCH   5   6
ATOM      6  O   UNL     1      10.291  11.466  20.901  0.00  0.00    +0.000 OA
ATOM      7  H   UNL     1      11.240  11.257  20.914  0.00  0.00    +0.000 HD
ENDBRANCH   5   6
BRANCH   5   8
ATOM      8  C   UNL     1      11.234  12.079  18.761  0.00  0.00    +0.000 C 
BRANCH   8  10
ATOM      9  C   UNL     1      10.068  14.053  17.685  0.00  0.00    +0.000 C 
ATOM     10  C   UNL     1      10.980  12.850  17.448  0.00  0.00    +0.000 C 
ATOM     11  C   UNL     1      12.297  13.301  16.819  0.00  0.00    +0.000 C 
ENDBRANCH   8  10
ENDBRANCH   5   8
ENDBRANCH   3   5
ENDBRANCH   1   4
BRANCH   2  12
ATOM     12  C   UNL     1       7.143   6.088  17.116  0.00  0.00    +0.000 C 
BRANCH  12  13
ATOM     13  C   UNL     1       5.709   5.901  17.593  0.00  0.00    +0.000 A 
ATOM     14  C   UNL     1       4.688   6.825  17.296  0.00  0.00    +0.000 A 
ATOM     15  C   UNL     1       3.382   6.627  17.753  0.00  0.00    +0.000 A 
ATOM     16  C   UNL     1       3.080   5.515  18.535  0.00  0.00    +0.000 A 
ATOM     17  C   UNL     1       4.085   4.610  18.862  0.00  0.00    +0.000 A 
ATOM     18 CL   UNL     1       3.722   3.243  19.842  0.00  0.00    +0.000 Cl
ATOM     19  C   UNL     1       5.387   4.799  18.404  0.00  0.00    +0.000 A 
ENDBRANCH  12  13
BRANCH  12  20
ATOM     20  O   UNL     1       7.207   5.946  15.699  0.00  0.00    +0.000 OA
ATOM     21  H   UNL     1       7.241   4.988  15.527  0.00  0.00    +0.000 HD
ENDBRANCH  12  20
ENDBRANCH   2  12
TORSDOF 8
ENDMDL
MODEL 7
REMARK VINA RESULT:      -7.0      1.594      1.973
REMARK  Name = 
REMARK  10 active torsions:
REMARK  status: ('A' for Active; 'I' for Inactive)
REMARK    1  A    between atoms: C_1  and  C_2
REMARK    2  A    between atoms: C_2  and  C_3
REMARK    3  A    between atoms: C_2  and  C_4
REMARK    4  A    between atoms: C_4  and  C_5
REMARK    5  A    between atoms: C_5  and  O_6
REMARK    6  A    between atoms: C_5  and  C_7
REMARK    7  A    between atoms: C_8  and  C_9
REMARK    8  A    between atoms: C_10  and  C_11
REMARK    9  A    between atoms: C_11  and  O_12
REMARK   10  A    between atoms: C_11  and  C_13
REMARK                            x       y       z     vdW  Elec       q    Type
REMARK                         _______ _______ _______ _____ _____    ______ ____
ROOT
ATOM      1  C   UNL     1       7.849   8.199  17.727  0.00  0.00    +0.000 C 
ATOM      2  C   UNL     1       7.463   7.095  17.484  0.00  0.00    +0.000 C 
ENDROOT
BRANCH   1   4
ATOM      3  C   UNL     1       8.843  10.705  18.030  0.00  0.00    +0.000 C 
ATOM      4  C   UNL     1       8.415   9.598  17.902  0.00  0.00    +0.000 C 
BRANCH   3   5
ATOM      5  C   UNL     1       9.287  12.098  18.093  0.00  0.00    +0.000 C 
BRANCH   5   6
ATOM      6  O   UNL     1       8.554  12.872  17.150  0.00  0.00    +0.000 OA
ATOM      7  H   UNL     1       7.644  12.939  17.484  0.00  0.00    +0.000 HD
ENDBRANCH   5   6
BRANCH   5   8
ATOM      8  C   UNL     1       9.063  12.663  19.504  0.00  0.00    +0.000 C 
BRANCH   8  10
ATOM      9  C   UNL     1      11.371  12.092  20.375  0.00  0.00    +0.000 C 
ATOM     10  C   UNL     1       9.868  11.928  20.597  0.00  0.00    +0.000 C 
ATOM     11  C   UNL     1       9.482  12.429  21.987  0.00  0.00    +0.000 C 
ENDBRANCH   8  10
ENDBRANCH   5   8
ENDBRANCH   3   5
ENDBRANCH   1   4
BRANCH   2  12
ATOM     12  C   UNL     1       7.075   5.749  17.063  0.00  0.00    +0.000 C 
BRANCH  12  13
ATOM     13  C   UNL     1       5.602   5.455  17.309  0.00  0.00    +0.000 A 
ATOM     14  C   UNL     1       5.065   4.155  17.219  0.00  0.00    +0.000 A 
ATOM     15  C   UNL     1       3.707   3.919  17.445  0.00  0.00    +0.000 A 
ATOM     16  C   UNL     1       2.856   4.981  17.742  0.00  0.00    +0.000 A 
ATOM     17  C   UNL     1       3.365   6.274  17.804  0.00  0.00    +0.000 A 
ATOM     18 CL   UNL     1       2.317   7.593  18.152  0.00  0.00    +0.000 Cl
ATOM     19  C   UNL     1       4.720   6.514  17.585  0.00  0.00    +0.000 A 
ENDBRANCH  12  13
BRANCH  12  20
ATOM     20  O   UNL     1       7.370   5.632  15.674  0.00  0.00    +0.000 OA
ATOM     21  H   UNL     1       8.306   5.369  15.619  0.00  0.00    +0.000 HD
ENDBRANCH  12  20
ENDBRANCH   2  12
TORSDOF 8
ENDMDL
MODEL 8
REMARK VINA RESULT:      -7.0      2.012      2.406
REMARK  Name = 
REMARK  10 active torsions:
REMARK  status: ('A' for Active; 'I' for Inactive)
REMARK    1  A    between atoms: C_1  and  C_2
REMARK    2  A    between atoms: C_2  and  C_3
REMARK    3  A    between atoms: C_2  and  C_4
REMARK    4  A    between atoms: C_4  and  C_5
REMARK    5  A    between atoms: C_5  and  O_6
REMARK    6  A    between atoms: C_5  and  C_7
REMARK    7  A    between atoms: C_8  and  C_9
REMARK    8  A    between atoms: C_10  and  C_11
REMARK    9  A    between atoms: C_11  and  O_12
REMARK   10  A    between atoms: C_11  and  C_13
REMARK                            x       y       z     vdW  Elec       q    Type
REMARK                         _______ _______ _______ _____ _____    ______ ____
ROOT
ATOM      1  C   UNL     1       7.959   8.221  17.810  0.00  0.00    +0.000 C 
ATOM      2  C   UNL     1       7.409   7.274  17.331  0.00  0.00    +0.000 C 
ENDROOT
BRANCH   1   4
ATOM      3  C   UNL     1       9.185  10.247  19.132  0.00  0.00    +0.000 C 
ATOM      4  C   UNL     1       8.654   9.348  18.553  0.00  0.00    +0.000 C 
BRANCH   3   5
ATOM      5  C   UNL     1       9.773  11.430  19.763  0.00  0.00    +0.000 C 
BRANCH   5   6
ATOM      6  O   UNL     1       9.823  11.238  21.173  0.00  0.00    +0.000 OA
ATOM      7  H   UNL     1       8.934  11.427  21.517  0.00  0.00    +0.000 HD
ENDBRANCH   5   6
BRANCH   5   8
ATOM      8  C   UNL     1      11.194  11.665  19.228  0.00  0.00    +0.000 C 
BRANCH   8  10
ATOM      9  C   UNL     1      11.204  12.978  17.063  0.00  0.00    +0.000 C 
ATOM     10  C   UNL     1      11.386  13.052  18.578  0.00  0.00    +0.000 C 
ATOM     11  C   UNL     1      10.420  14.071  19.178  0.00  0.00    +0.000 C 
ENDBRANCH   8  10
ENDBRANCH   5   8
ENDBRANCH   3   5
ENDBRANCH   1   4
BRANCH   2  12
ATOM     12  C   UNL     1       6.732   6.058  16.882  0.00  0.00    +0.000 C 
BRANCH  12  13
ATOM     13  C   UNL     1       5.286   5.980  17.353  0.00  0.00    +0.000 A 
ATOM     14  C   UNL     1       4.685   4.768  17.749  0.00  0.00    +0.000 A 
ATOM     15  C   UNL     1       3.353   4.729  18.171  0.00  0.00    +0.000 A 
ATOM     16  C   UNL     1       2.592   5.895  18.182  0.00  0.00    +0.000 A 
ATOM     17  C   UNL     1       3.163   7.094  17.764  0.00  0.00    +0.000 A 
ATOM     18 CL   UNL     1       2.223   8.535  17.758  0.00  0.00    +0.000 Cl
ATOM     19  C   UNL     1       4.492   7.140  17.348  0.00  0.00    +0.000 A 
ENDBRANCH  12  13
BRANCH  12  20
ATOM     20  O   UNL     1       6.783   6.038  15.458  0.00  0.00    +0.000 OA
ATOM     21  H   UNL     1       7.270   5.230  15.218  0.00  0.00    +0.000 HD
ENDBRANCH  12  20
ENDBRANCH   2  12
TORSDOF 8
ENDMDL
MODEL 9
REMARK VINA RESULT:      -6.9      1.995      2.575
REMARK  Name = 
REMARK  10 active torsions:
REMARK  status: ('A' for Active; 'I' for Inactive)
REMARK    1  A    between atoms: C_1  and  C_2
REMARK    2  A    between atoms: C_2  and  C_3
REMARK    3  A    between atoms: C_2  and  C_4
REMARK    4  A    between atoms: C_4  and  C_5
REMARK    5  A    between atoms: C_5  and  O_6
REMARK    6  A    between atoms: C_5  and  C_7
REMARK    7  A    between atoms: C_8  and  C_9
REMARK    8  A    between atoms: C_10  and  C_11
REMARK    9  A    between atoms: C_11  and  O_12
REMARK   10  A    between atoms: C_11  and  C_13
REMARK                            x       y       z     vdW  Elec       q    Type
REMARK                         _______ _______ _______ _____ _____    ______ ____
ROOT
ATOM      1  C   UNL     1       7.894   8.222  17.760  0.00  0.00    +0.000 C 
ATOM      2  C   UNL     1       7.471   7.164  17.401  0.00  0.00    +0.000 C 
ENDROOT
BRANCH   1   4
ATOM      3  C   UNL     1       9.117  10.501  18.579  0.00  0.00    +0.000 C 
ATOM      4  C   UNL     1       8.570   9.500  18.227  0.00  0.00    +0.000 C 
BRANCH   3   5
ATOM      5  C   UNL     1       9.895  11.679  18.964  0.00  0.00    +0.000 C 
BRANCH   5   6
ATOM      6  O   UNL     1      11.257  11.305  19.151  0.00  0.00    +0.000 OA
ATOM      7  H   UNL     1      11.514  10.773  18.381  0.00  0.00    +0.000 HD
ENDBRANCH   5   6
BRANCH   5   8
ATOM      8  C   UNL     1       9.805  12.754  17.871  0.00  0.00    +0.000 C 
BRANCH   8  10
ATOM      9  C   UNL     1       7.462  13.644  17.505  0.00  0.00    +0.000 C 
ATOM     10  C   UNL     1       8.804  13.883  18.198  0.00  0.00    +0.000 C 
ATOM     11  C   UNL     1       8.603  14.011  19.707  0.00  0.00    +0.000 C 
ENDBRANCH   8  10
ENDBRANCH   5   8
ENDBRANCH   3   5
ENDBRANCH   1   4
BRANCH   2  12
ATOM     12  C   UNL     1       7.092   5.814  16.983  0.00  0.00    +0.000 C 
BRANCH  12  13
ATOM     13  C   UNL     1       5.626   5.504  17.253  0.00  0.00    +0.000 A 
ATOM     14  C   UNL     1       5.107   4.195  17.186  0.00  0.00    +0.000 A 
ATOM     15  C   UNL     1       3.755   3.943  17.434  0.00  0.00    +0.000 A 
ATOM     16  C   UNL     1       2.893   4.996  17.730  0.00  0.00    +0.000 A 
ATOM     17  C   UNL     1       3.386   6.297  17.769  0.00  0.00    +0.000 A 
ATOM     18 CL   UNL     1       2.324   7.606  18.117  0.00  0.00    +0.000 Cl
ATOM     19  C   UNL     1       4.734   6.554  17.529  0.00  0.00    +0.000 A 
ENDBRANCH  12  13
BRANCH  12  20
ATOM     20  O   UNL     1       7.364   5.704  15.588  0.00  0.00    +0.000 OA
ATOM     21  H   UNL     1       7.882   6.494  15.353  0.00  0.00    +0.000 HD
ENDBRANCH  12  20
ENDBRANCH   2  12
TORSDOF 8
ENDMDL
