MODEL 1
REMARK VINA RESULT:      -7.7      0.000      0.000
REMARK  Name = 
REMARK  10 active torsions:
REMARK  status: ('A' for Active; 'I' for Inactive)
REMARK    1  A    between atoms: N_4  and  C_5
REMARK    2  A    between atoms: C_8  and  O_9
REMARK    3  A    between atoms: O_9  and  C_10
REMARK    4  A    between atoms: C_10  and  C_11
REMARK    5  A    between atoms: C_11  and  C_12
REMARK    6  A    between atoms: C_12  and  C_13
REMARK    7  A    between atoms: C_13  and  C_14
REMARK    8  A    between atoms: C_14  and  O_15
REMARK    9  A    between atoms: O_15  and  C_16
REMARK   10  A    between atoms: C_19  and  N_20
REMARK                            x       y       z     vdW  Elec       q    Type
REMARK                         _______ _______ _______ _____ _____    ______ ____
ROOT
ATOM      1  C   UNL     1       1.611   2.930  21.141  0.00  0.00    +0.000 C 
ENDROOT
BRANCH   1   2
ATOM      2  C   UNL     1       2.188   4.315  21.439  0.00  0.00    +0.000 C 
BRANCH   2   3
ATOM      3  C   UNL     1       1.891   5.215  20.254  0.00  0.00    +0.000 C 
BRANCH   3   4
ATOM      4  O   UNL     1       2.534   6.432  20.358  0.00  0.00    +0.000 OA
BRANCH   4   8
ATOM      5  C   UNL     1       0.904   9.974  18.838  0.00  0.00    +0.000 A 
ATOM      6  C   UNL     1       1.538   9.056  17.984  0.00  0.00    +0.000 A 
ATOM      7  C   UNL     1       2.082   7.883  18.482  0.00  0.00    +0.000 A 
ATOM      8  C   UNL     1       2.013   7.582  19.855  0.00  0.00    +0.000 A 
ATOM      9  C   UNL     1       1.398   8.498  20.718  0.00  0.00    +0.000 A 
ATOM     10  C   UNL     1       0.858   9.689  20.216  0.00  0.00    +0.000 A 
BRANCH   5  14
ATOM     11  N   UNL     1      -1.898  10.417  18.138  0.00  0.00    +0.000 NA
ATOM     12  C   UNL     1      -1.023  11.332  17.909  0.00  0.00    +0.000 C 
ATOM     13  N   UNL     1      -1.430  12.538  17.281  0.00  0.00    +0.000 N 
ATOM     14  N   UNL     1       0.332  11.188  18.349  0.00  0.00    +0.000 N 
ATOM     15  H   UNL     1      -2.885  10.517  17.856  0.00  0.00    +0.000 HD
ATOM     16  H   UNL     1      -2.410  12.672  16.989  0.00  0.00    +0.000 HD
ATOM     17  H   UNL     1      -0.749  13.285  17.097  0.00  0.00    +0.000 HD
ATOM     18  H   UNL     1       0.912  12.040  18.371  0.00  0.00    +0.000 HD
ENDBRANCH   5  14
ENDBRANCH   4   8
ENDBRANCH   3   4
ENDBRANCH   2   3
ENDBRANCH   1   2
BRANCH   1  19
ATOM     19  C   UNL     1       1.169   2.800  19.687  0.00  0.00    +0.000 C 
BRANCH  19  20
ATOM     20  C   UNL     1       1.830   1.574  19.070  0.00  0.00    +0.000 C 
BRANCH  20  21
ATOM     21  O   UNL     1       2.665   1.953  18.037  0.00  0.00    +0.000 OA
BRANCH  21  22
ATOM     22  C   UNL     1       3.460   3.052  18.061  0.00  0.00    +0.000 A 
ATOM     23  C   UNL     1       4.571   3.156  18.918  0.00  0.00    +0.000 A 
ATOM     24  C   UNL     1       5.375   4.290  18.892  0.00  0.00    +0.000 A 
ATOM     25  C   UNL     1       5.113   5.349  18.007  0.00  0.00    +0.000 A 
ATOM     26  C   UNL     1       3.971   5.260  17.180  0.00  0.00    +0.000 A 
ATOM     27  C   UNL     1       3.162   4.116  17.207  0.00  0.00    +0.000 A 
BRANCH  25  28
ATOM     28  N   UNL     1       6.022   6.457  18.030  0.00  0.00    +0.000 N 
ATOM     29  C   UNL     1       7.072   6.801  17.111  0.00  0.00    +0.000 C 
ATOM     30  N   UNL     1       7.448   6.041  16.143  0.00  0.00    +0.000 NA
ATOM     31  N   UNL     1       7.819   7.981  17.358  0.00  0.00    +0.000 N 
ATOM     32  H   UNL     1       5.994   7.038  18.881  0.00  0.00    +0.000 HD
ATOM     33  H   UNL     1       7.053   5.127  15.913  0.00  0.00    +0.000 HD
ATOM     34  H   UNL     1       7.601   8.578  18.169  0.00  0.00    +0.000 HD
ATOM     35  H   UNL     1       8.627   8.223  16.767  0.00  0.00    +0.000 HD
ENDBRANCH  25  28
ENDBRANCH  21  22
ENDBRANCH  20  21
ENDBRANCH  19  20
ENDBRANCH   1  19
TORSDOF 10
ENDMDL
MODEL 2
REMARK VINA RESULT:      -7.3      0.877      1.384
REMARK  Name = 
REMARK  10 active torsions:
REMARK  status: ('A' for Active; 'I' for Inactive)
REMARK    1  A    between atoms: N_4  and  C_5
REMARK    2  A    between atoms: C_8  and  O_9
REMARK    3  A    between atoms: O_9  and  C_10
REMARK    4  A    between atoms: C_10  and  C_11
REMARK    5  A    between atoms: C_11  and  C_12
REMARK    6  A    between atoms: C_12  and  C_13
REMARK    7  A    between atoms: C_13  and  C_14
REMARK    8  A    between atoms: C_14  and  O_15
REMARK    9  A    between atoms: O_15  and  C_16
REMARK   10  A    between atoms: C_19  and  N_20
REMARK                            x       y       z     vdW  Elec       q    Type
REMARK                         _______ _______ _______ _____ _____    ______ ____
ROOT
ATOM      1  C   UNL     1       2.305   2.721  20.563  0.00  0.00    +0.000 C 
ENDROOT
BRANCH   1   2
ATOM      2  C   UNL     1       2.366   4.020  21.368  0.00  0.00    +0.000 C 
BRANCH   2   3
ATOM      3  C   UNL     1       1.652   5.100  20.576  0.00  0.00    +0.000 C 
BRANCH   3   4
ATOM      4  O   UNL     1       2.509   6.117  20.204  0.00  0.00    +0.000 OA
BRANCH   4   8
ATOM      5  C   UNL     1       1.173   9.886  18.969  0.00  0.00    +0.000 A 
ATOM      6  C   UNL     1       0.941   9.441  20.281  0.00  0.00    +0.000 A 
ATOM      7  C   UNL     1       1.378   8.193  20.695  0.00  0.00    +0.000 A 
ATOM      8  C   UNL     1       2.066   7.341  19.811  0.00  0.00    +0.000 A 
ATOM      9  C   UNL     1       2.288   7.766  18.496  0.00  0.00    +0.000 A 
ATOM     10  C   UNL     1       1.836   9.023  18.074  0.00  0.00    +0.000 A 
BRANCH   5  14
ATOM     11  N   UNL     1      -1.594  10.753  18.616  0.00  0.00    +0.000 NA
ATOM     12  C   UNL     1      -0.626  11.516  18.248  0.00  0.00    +0.000 C 
ATOM     13  N   UNL     1      -0.922  12.764  17.639  0.00  0.00    +0.000 N 
ATOM     14  N   UNL     1       0.736  11.169  18.518  0.00  0.00    +0.000 N 
ATOM     15  H   UNL     1      -2.582  11.002  18.458  0.00  0.00    +0.000 HD
ATOM     16  H   UNL     1      -1.900  13.045  17.469  0.00  0.00    +0.000 HD
ATOM     17  H   UNL     1      -0.165  13.393  17.346  0.00  0.00    +0.000 HD
ATOM     18  H   UNL     1       1.438  11.920  18.438  0.00  0.00    +0.000 HD
ENDBRANCH   5  14
ENDBRANCH   4   8
ENDBRANCH   3   4
ENDBRANCH   2   3
ENDBRANCH   1   2
BRANCH   1  19
ATOM     19  C   UNL     1       1.670   2.932  19.192  0.00  0.00    +0.000 C 
BRANCH  19  20
ATOM     20  C   UNL     1       2.468   2.163  18.147  0.00  0.00    +0.000 C 
BRANCH  20  21
ATOM     21  O   UNL     1       3.819   2.397  18.312  0.00  0.00    +0.000 OA
BRANCH  21  22
ATOM     22  C   UNL     1       4.428   3.579  18.041  0.00  0.00    +0.000 A 
ATOM     23  C   UNL     1       5.151   4.291  19.015  0.00  0.00    +0.000 A 
ATOM     24  C   UNL     1       5.783   5.485  18.687  0.00  0.00    +0.000 A 
ATOM     25  C   UNL     1       5.731   6.004  17.383  0.00  0.00    +0.000 A 
ATOM     26  C   UNL     1       4.967   5.309  16.418  0.00  0.00    +0.000 A 
ATOM     27  C   UNL     1       4.331   4.104  16.750  0.00  0.00    +0.000 A 
BRANCH  25  28
ATOM     28  N   UNL     1       6.446   7.222  17.137  0.00  0.00    +0.000 N 
ATOM     29  C   UNL     1       7.654   7.713  17.741  0.00  0.00    +0.000 C 
ATOM     30  N   UNL     1       8.230   7.149  18.744  0.00  0.00    +0.000 NA
ATOM     31  N   UNL     1       8.170   8.956  17.291  0.00  0.00    +0.000 N 
ATOM     32  H   UNL     1       5.977   7.894  16.512  0.00  0.00    +0.000 HD
ATOM     33  H   UNL     1       7.910   6.301  19.217  0.00  0.00    +0.000 HD
ATOM     34  H   UNL     1       7.694   9.480  16.542  0.00  0.00    +0.000 HD
ATOM     35  H   UNL     1       8.990   9.379  17.749  0.00  0.00    +0.000 HD
ENDBRANCH  25  28
ENDBRANCH  21  22
ENDBRANCH  20  21
ENDBRANCH  19  20
ENDBRANCH   1  19
TORSDOF 10
ENDMDL
MODEL 3
REMARK VINA RESULT:      -7.2      0.948      6.886
REMARK  Name = 
REMARK  10 active torsions:
REMARK  status: ('A' for Active; 'I' for Inactive)
REMARK    1  A    between atoms: N_4  and  C_5
REMARK    2  A    between atoms: C_8  and  O_9
REMARK    3  A    between atoms: O_9  and  C_10
REMARK    4  A    between atoms: C_10  and  C_11
REMARK    5  A    between atoms: C_11  and  C_12
REMARK    6  A    between atoms: C_12  and  C_13
REMARK    7  A    between atoms: C_13  and  C_14
REMARK    8  A    between atoms: C_14  and  O_15
REMARK    9  A    between atoms: O_15  and  C_16
REMARK   10  A    between atoms: C_19  and  N_20
REMARK                            x       y       z     vdW  Elec       q    Type
REMARK                         _______ _______ _______ _____ _____    ______ ____
ROOT
ATOM      1  C   UNL     1       1.611   2.652  20.767  0.00  0.00    +0.000 C 
ENDROOT
BRANCH   1   2
ATOM      2  C   UNL     1       1.242   2.733  19.285  0.00  0.00    +0.000 C 
BRANCH   2   3
ATOM      3  C   UNL     1       2.233   1.889  18.505  0.00  0.00    +0.000 C 
BRANCH   3   4
ATOM      4  O   UNL     1       2.758   2.576  17.428  0.00  0.00    +0.000 OA
BRANCH   4   8
ATOM      5  C   UNL     1       5.853   5.370  17.785  0.00  0.00    +0.000 A 
ATOM      6  C   UNL     1       5.646   4.402  18.782  0.00  0.00    +0.000 A 
ATOM      7  C   UNL     1       4.621   3.476  18.671  0.00  0.00    +0.000 A 
ATOM      8  C   UNL     1       3.763   3.482  17.556  0.00  0.00    +0.000 A 
ATOM      9  C   UNL     1       3.948   4.453  16.564  0.00  0.00    +0.000 A 
ATOM     10  C   UNL     1       4.977   5.396  16.682  0.00  0.00    +0.000 A 
BRANCH   5  14
ATOM     11  N   UNL     1       7.840   5.581  19.916  0.00  0.00    +0.000 NA
ATOM     12  C   UNL     1       7.786   6.475  18.993  0.00  0.00    +0.000 C 
ATOM     13  N   UNL     1       8.678   7.578  19.045  0.00  0.00    +0.000 N 
ATOM     14  N   UNL     1       6.904   6.333  17.874  0.00  0.00    +0.000 N 
ATOM     15  H   UNL     1       8.492   5.651  20.712  0.00  0.00    +0.000 HD
ATOM     16  H   UNL     1       9.344   7.677  19.826  0.00  0.00    +0.000 HD
ATOM     17  H   UNL     1       8.658   8.299  18.312  0.00  0.00    +0.000 HD
ATOM     18  H   UNL     1       7.085   6.930  17.054  0.00  0.00    +0.000 HD
ENDBRANCH   5  14
ENDBRANCH   4   8
ENDBRANCH   3   4
ENDBRANCH   2   3
ENDBRANCH   1   2
BRANCH   1  19
ATOM     19  C   UNL     1       2.197   3.964  21.279  0.00  0.00    +0.000 C 
BRANCH  19  20
ATOM     20  C   UNL     1       1.445   5.128  20.648  0.00  0.00    +0.000 C 
BRANCH  20  21
ATOM     21  O   UNL     1       2.325   6.139  20.313  0.00  0.00    +0.000 OA
BRANCH  21  22
ATOM     22  C   UNL     1       1.949   7.360  19.858  0.00  0.00    +0.000 A 
ATOM     23  C   UNL     1       2.188   7.773  18.535  0.00  0.00    +0.000 A 
ATOM     24  C   UNL     1       1.762   9.024  18.102  0.00  0.00    +0.000 A 
ATOM     25  C   UNL     1       1.073   9.897  18.959  0.00  0.00    +0.000 A 
ATOM     26  C   UNL     1       0.874   9.496  20.300  0.00  0.00    +0.000 A 
ATOM     27  C   UNL     1       1.304   8.235  20.734  0.00  0.00    +0.000 A 
BRANCH  25  28
ATOM     28  N   UNL     1       0.642  11.148  18.406  0.00  0.00    +0.000 N 
ATOM     29  C   UNL     1      -0.688  11.659  18.225  0.00  0.00    +0.000 C 
ATOM     30  N   UNL     1      -1.753  10.967  18.431  0.00  0.00    +0.000 NA
ATOM     31  N   UNL     1      -0.837  12.956  17.668  0.00  0.00    +0.000 N 
ATOM     32  H   UNL     1       1.383  11.725  17.981  0.00  0.00    +0.000 HD
ATOM     33  H   UNL     1      -1.781   9.995  18.746  0.00  0.00    +0.000 HD
ATOM     34  H   UNL     1      -0.009  13.515  17.414  0.00  0.00    +0.000 HD
ATOM     35  H   UNL     1      -1.772  13.329  17.452  0.00  0.00    +0.000 HD
ENDBRANCH  25  28
ENDBRANCH  21  22
ENDBRANCH  20  21
ENDBRANCH  19  20
ENDBRANCH   1  19
TORSDOF 10
ENDMDL
MODEL 4
REMARK VINA RESULT:      -7.0      1.134      1.629
REMARK  Name = 
REMARK  10 active torsions:
REMARK  status: ('A' for Active; 'I' for Inactive)
REMARK    1  A    between atoms: N_4  and  C_5
REMARK    2  A    between atoms: C_8  and  O_9
REMARK    3  A    between atoms: O_9  and  C_10
REMARK    4  A    between atoms: C_10  and  C_11
REMARK    5  A    between atoms: C_11  and  C_12
REMARK    6  A    between atoms: C_12  and  C_13
REMARK    7  A    between atoms: C_13  and  C_14
REMARK    8  A    between atoms: C_14  and  O_15
REMARK    9  A    between atoms: O_15  and  C_16
REMARK   10  A    between atoms: C_19  and  N_20
REMARK                            x       y       z     vdW  Elec       q    Type
REMARK                         _______ _______ _______ _____ _____    ______ ____
ROOT
ATOM      1  C   UNL     1       1.083   3.772  20.689  0.00  0.00    +0.000 C 
ENDROOT
BRANCH   1   2
ATOM      2  C   UNL     1       2.156   4.853  20.830  0.00  0.00    +0.000 C 
BRANCH   2   3
ATOM      3  C   UNL     1       1.463   6.203  20.873  0.00  0.00    +0.000 C 
BRANCH   3   4
ATOM      4  O   UNL     1       2.190   7.175  20.215  0.00  0.00    +0.000 OA
BRANCH   4   8
ATOM      5  C   UNL     1       0.452  10.753  18.912  0.00  0.00    +0.000 A 
ATOM      6  C   UNL     1       1.243   9.985  18.041  0.00  0.00    +0.000 A 
ATOM      7  C   UNL     1       1.823   8.801  18.467  0.00  0.00    +0.000 A 
ATOM      8  C   UNL     1       1.634   8.338  19.783  0.00  0.00    +0.000 A 
ATOM      9  C   UNL     1       0.863   9.104  20.666  0.00  0.00    +0.000 A 
ATOM     10  C   UNL     1       0.285  10.307  20.238  0.00  0.00    +0.000 A 
BRANCH   5  14
ATOM     11  N   UNL     1       1.574  13.437  19.183  0.00  0.00    +0.000 NA
ATOM     12  C   UNL     1       0.373  13.279  18.752  0.00  0.00    +0.000 C 
ATOM     13  N   UNL     1      -0.409  14.425  18.446  0.00  0.00    +0.000 N 
ATOM     14  N   UNL     1      -0.159  11.975  18.497  0.00  0.00    +0.000 N 
ATOM     15  H   UNL     1       1.984  14.369  19.341  0.00  0.00    +0.000 HD
ATOM     16  H   UNL     1      -0.028  15.373  18.590  0.00  0.00    +0.000 HD
ATOM     17  H   UNL     1      -1.368  14.322  18.091  0.00  0.00    +0.000 HD
ATOM     18  H   UNL     1      -1.011  11.918  17.920  0.00  0.00    +0.000 HD
ENDBRANCH   5  14
ENDBRANCH   4   8
ENDBRANCH   3   4
ENDBRANCH   2   3
ENDBRANCH   1   2
BRANCH   1  19
ATOM     19  C   UNL     1       1.643   2.493  20.073  0.00  0.00    +0.000 C 
BRANCH  19  20
ATOM     20  C   UNL     1       0.931   2.219  18.754  0.00  0.00    +0.000 C 
BRANCH  20  21
ATOM     21  O   UNL     1       1.776   2.482  17.694  0.00  0.00    +0.000 OA
BRANCH  21  22
ATOM     22  C   UNL     1       2.763   3.412  17.716  0.00  0.00    +0.000 A 
ATOM     23  C   UNL     1       2.538   4.753  17.355  0.00  0.00    +0.000 A 
ATOM     24  C   UNL     1       3.573   5.680  17.418  0.00  0.00    +0.000 A 
ATOM     25  C   UNL     1       4.856   5.313  17.854  0.00  0.00    +0.000 A 
ATOM     26  C   UNL     1       5.089   3.956  18.174  0.00  0.00    +0.000 A 
ATOM     27  C   UNL     1       4.045   3.023  18.110  0.00  0.00    +0.000 A 
BRANCH  25  28
ATOM     28  N   UNL     1       5.843   6.350  17.920  0.00  0.00    +0.000 N 
ATOM     29  C   UNL     1       6.895   6.674  16.996  0.00  0.00    +0.000 C 
ATOM     30  N   UNL     1       7.195   5.951  15.975  0.00  0.00    +0.000 NA
ATOM     31  N   UNL     1       7.731   7.781  17.293  0.00  0.00    +0.000 N 
ATOM     32  H   UNL     1       5.875   6.879  18.804  0.00  0.00    +0.000 HD
ATOM     33  H   UNL     1       6.730   5.083  15.701  0.00  0.00    +0.000 HD
ATOM     34  H   UNL     1       7.574   8.342  18.144  0.00  0.00    +0.000 HD
ATOM     35  H   UNL     1       8.541   8.002  16.697  0.00  0.00    +0.000 HD
ENDBRANCH  25  28
ENDBRANCH  21  22
ENDBRANCH  20  21
ENDBRANCH  19  20
ENDBRANCH   1  19
TORSDOF 10
ENDMDL
MODEL 5
REMARK VINA RESULT:      -6.9      1.319      6.520
REMARK  Name = 
REMARK  10 active torsions:
REMARK  status: ('A' for Active; 'I' for Inactive)
REMARK    1  A    between atoms: N_4  and  C_5
REMARK    2  A    between atoms: C_8  and  O_9
REMARK    3  A    between atoms: O_9  and  C_10
REMARK    4  A    between atoms: C_10  and  C_11
REMARK    5  A    between atoms: C_11  and  C_12
REMARK    6  A    between atoms: C_12  and  C_13
REMARK    7  A    between atoms: C_13  and  C_14
REMARK    8  A    between atoms: C_14  and  O_15
REMARK    9  A    between atoms: O_15  and  C_16
REMARK   10  A    between atoms: C_19  and  N_20
REMARK                            x       y       z     vdW  Elec       q    Type
REMARK                         _______ _______ _______ _____ _____    ______ ____
ROOT
ATOM      1  C   UNL     1       1.174   3.805  19.685  0.00  0.00    +0.000 C 
ENDROOT
BRANCH   1   2
ATOM      2  C   UNL     1       1.494   2.428  19.099  0.00  0.00    +0.000 C 
BRANCH   2   3
ATOM      3  C   UNL     1       2.999   2.240  19.130  0.00  0.00    +0.000 C 
BRANCH   3   4
ATOM      4  O   UNL     1       3.587   2.593  17.931  0.00  0.00    +0.000 OA
BRANCH   4   8
ATOM      5  C   UNL     1       5.829   6.091  17.427  0.00  0.00    +0.000 A 
ATOM      6  C   UNL     1       5.673   5.520  18.701  0.00  0.00    +0.000 A 
ATOM      7  C   UNL     1       4.930   4.364  18.875  0.00  0.00    +0.000 A 
ATOM      8  C   UNL     1       4.313   3.732  17.779  0.00  0.00    +0.000 A 
ATOM      9  C   UNL     1       4.446   4.301  16.506  0.00  0.00    +0.000 A 
ATOM     10  C   UNL     1       5.189   5.477  16.333  0.00  0.00    +0.000 A 
BRANCH   5  14
ATOM     11  N   UNL     1       8.293   6.835  18.809  0.00  0.00    +0.000 NA
ATOM     12  C   UNL     1       7.732   7.662  18.000  0.00  0.00    +0.000 C 
ATOM     13  N   UNL     1       8.304   8.948  17.817  0.00  0.00    +0.000 N 
ATOM     14  N   UNL     1       6.593   7.280  17.221  0.00  0.00    +0.000 N 
ATOM     15  H   UNL     1       9.133   7.082  19.354  0.00  0.00    +0.000 HD
ATOM     16  H   UNL     1       9.146   9.227  18.345  0.00  0.00    +0.000 HD
ATOM     17  H   UNL     1       7.877   9.621  17.168  0.00  0.00    +0.000 HD
ATOM     18  H   UNL     1       6.350   7.879  16.418  0.00  0.00    +0.000 HD
ENDBRANCH   5  14
ENDBRANCH   4   8
ENDBRANCH   3   4
ENDBRANCH   2   3
ENDBRANCH   1   2
BRANCH   1  19
ATOM     19  C   UNL     1       1.939   4.061  20.980  0.00  0.00    +0.000 C 
BRANCH  19  20
ATOM     20  C   UNL     1       2.193   5.557  21.123  0.00  0.00    +0.000 C 
BRANCH  20  21
ATOM     21  O   UNL     1       2.413   6.123  19.882  0.00  0.00    +0.000 OA
BRANCH  21  22
ATOM     22  C   UNL     1       2.007   7.369  19.529  0.00  0.00    +0.000 A 
ATOM     23  C   UNL     1       1.221   8.170  20.377  0.00  0.00    +0.000 A 
ATOM     24  C   UNL     1       0.850   9.452  19.987  0.00  0.00    +0.000 A 
ATOM     25  C   UNL     1       1.257   9.985  18.753  0.00  0.00    +0.000 A 
ATOM     26  C   UNL     1       2.009   9.162  17.885  0.00  0.00    +0.000 A 
ATOM     27  C   UNL     1       2.383   7.870  18.281  0.00  0.00    +0.000 A 
BRANCH  25  28
ATOM     28  N   UNL     1       0.854  11.330  18.459  0.00  0.00    +0.000 N 
ATOM     29  C   UNL     1       1.336  12.570  19.002  0.00  0.00    +0.000 C 
ATOM     30  N   UNL     1       2.164  12.645  19.984  0.00  0.00    +0.000 NA
ATOM     31  N   UNL     1       0.774  13.778  18.514  0.00  0.00    +0.000 N 
ATOM     32  H   UNL     1       0.029  11.423  17.849  0.00  0.00    +0.000 HD
ATOM     33  H   UNL     1       2.573  11.851  20.482  0.00  0.00    +0.000 HD
ATOM     34  H   UNL     1       0.050  13.759  17.781  0.00  0.00    +0.000 HD
ATOM     35  H   UNL     1       1.037  14.683  18.928  0.00  0.00    +0.000 HD
ENDBRANCH  25  28
ENDBRANCH  21  22
ENDBRANCH  20  21
ENDBRANCH  19  20
ENDBRANCH   1  19
TORSDOF 10
ENDMDL
MODEL 6
REMARK VINA RESULT:      -6.8      1.795      2.508
REMARK  Name = 
REMARK  10 active torsions:
REMARK  status: ('A' for Active; 'I' for Inactive)
REMARK    1  A    between atoms: N_4  and  C_5
REMARK    2  A    between atoms: C_8  and  O_9
REMARK    3  A    between atoms: O_9  and  C_10
REMARK    4  A    between atoms: C_10  and  C_11
REMARK    5  A    between atoms: C_11  and  C_12
REMARK    6  A    between atoms: C_12  and  C_13
REMARK    7  A    between atoms: C_13  and  C_14
REMARK    8  A    between atoms: C_14  and  O_15
REMARK    9  A    between atoms: O_15  and  C_16
REMARK   10  A    between atoms: C_19  and  N_20
REMARK                            x       y       z     vdW  Elec       q    Type
REMARK                         _______ _______ _______ _____ _____    ______ ____
ROOT
ATOM      1  C   UNL     1       1.428   4.003  19.576  0.00  0.00    +0.000 C 
ENDROOT
BRANCH   1   2
ATOM      2  C   UNL     1       1.477   5.266  20.438  0.00  0.00    +0.000 C 
BRANCH   2   3
ATOM      3  C   UNL     1       2.604   6.143  19.926  0.00  0.00    +0.000 C 
BRANCH   3   4
ATOM      4  O   UNL     1       2.487   7.445  20.372  0.00  0.00    +0.000 OA
BRANCH   4   8
ATOM      5  C   UNL     1      -0.135  10.198  18.622  0.00  0.00    +0.000 A 
ATOM      6  C   UNL     1      -0.221   9.902  19.993  0.00  0.00    +0.000 A 
ATOM      7  C   UNL     1       0.642   8.990  20.577  0.00  0.00    +0.000 A 
ATOM      8  C   UNL     1       1.627   8.337  19.812  0.00  0.00    +0.000 A 
ATOM      9  C   UNL     1       1.711   8.610  18.442  0.00  0.00    +0.000 A 
ATOM     10  C   UNL     1       0.831   9.525  17.849  0.00  0.00    +0.000 A 
BRANCH   5  14
ATOM     11  N   UNL     1      -2.835   9.668  17.642  0.00  0.00    +0.000 NA
ATOM     12  C   UNL     1      -2.282  10.809  17.426  0.00  0.00    +0.000 C 
ATOM     13  N   UNL     1      -2.985  11.789  16.676  0.00  0.00    +0.000 N 
ATOM     14  N   UNL     1      -1.010  11.137  17.996  0.00  0.00    +0.000 N 
ATOM     15  H   UNL     1      -3.765   9.427  17.266  0.00  0.00    +0.000 HD
ATOM     16  H   UNL     1      -3.918  11.581  16.288  0.00  0.00    +0.000 HD
ATOM     17  H   UNL     1      -2.566  12.710  16.500  0.00  0.00    +0.000 HD
ATOM     18  H   UNL     1      -0.742  12.132  18.006  0.00  0.00    +0.000 HD
ENDBRANCH   5  14
ENDBRANCH   4   8
ENDBRANCH   3   4
ENDBRANCH   2   3
ENDBRANCH   1   2
BRANCH   1  19
ATOM     19  C   UNL     1       2.250   2.870  20.183  0.00  0.00    +0.000 C 
BRANCH  19  20
ATOM     20  C   UNL     1       3.383   2.508  19.231  0.00  0.00    +0.000 C 
BRANCH  20  21
ATOM     21  O   UNL     1       4.409   3.426  19.342  0.00  0.00    +0.000 OA
BRANCH  21  22
ATOM     22  C   UNL     1       5.144   3.880  18.295  0.00  0.00    +0.000 A 
ATOM     23  C   UNL     1       4.708   3.756  16.964  0.00  0.00    +0.000 A 
ATOM     24  C   UNL     1       5.480   4.260  15.923  0.00  0.00    +0.000 A 
ATOM     25  C   UNL     1       6.697   4.915  16.168  0.00  0.00    +0.000 A 
ATOM     26  C   UNL     1       7.153   4.999  17.503  0.00  0.00    +0.000 A 
ATOM     27  C   UNL     1       6.373   4.491  18.552  0.00  0.00    +0.000 A 
BRANCH  25  28
ATOM     28  N   UNL     1       7.400   5.433  15.030  0.00  0.00    +0.000 N 
ATOM     29  C   UNL     1       7.329   5.036  13.651  0.00  0.00    +0.000 C 
ATOM     30  N   UNL     1       6.674   4.008  13.237  0.00  0.00    +0.000 NA
ATOM     31  N   UNL     1       8.124   5.739  12.710  0.00  0.00    +0.000 N 
ATOM     32  H   UNL     1       8.141   6.118  15.239  0.00  0.00    +0.000 HD
ATOM     33  H   UNL     1       6.135   3.368  13.825  0.00  0.00    +0.000 HD
ATOM     34  H   UNL     1       8.725   6.520  13.012  0.00  0.00    +0.000 HD
ATOM     35  H   UNL     1       8.160   5.439  11.725  0.00  0.00    +0.000 HD
ENDBRANCH  25  28
ENDBRANCH  21  22
ENDBRANCH  20  21
ENDBRANCH  19  20
ENDBRANCH   1  19
TORSDOF 10
ENDMDL
MODEL 7
REMARK VINA RESULT:      -6.8      1.146      1.636
REMARK  Name = 
REMARK  10 active torsions:
REMARK  status: ('A' for Active; 'I' for Inactive)
REMARK    1  A    between atoms: N_4  and  C_5
REMARK    2  A    between atoms: C_8  and  O_9
REMARK    3  A    between atoms: O_9  and  C_10
REMARK    4  A    between atoms: C_10  and  C_11
REMARK    5  A    between atoms: C_11  and  C_12
REMARK    6  A    between atoms: C_12  and  C_13
REMARK    7  A    between atoms: C_13  and  C_14
REMARK    8  A    between atoms: C_14  and  O_15
REMARK    9  A    between atoms: O_15  and  C_16
REMARK   10  A    between atoms: C_19  and  N_20
REMARK                            x       y       z     vdW  Elec       q    Type
REMARK                         _______ _______ _______ _____ _____    ______ ____
ROOT
ATOM      1  C   UNL     1       0.999   4.209  19.946  0.00  0.00    +0.000 C 
ENDROOT
BRANCH   1   2
ATOM      2  C   UNL     1       1.983   5.042  20.769  0.00  0.00    +0.000 C 
BRANCH   2   3
ATOM      3  C   UNL     1       1.437   6.454  20.871  0.00  0.00    +0.000 C 
BRANCH   3   4
ATOM      4  O   UNL     1       1.825   7.235  19.801  0.00  0.00    +0.000 OA
BRANCH   4   8
ATOM      5  C   UNL     1       0.828  11.290  19.524  0.00  0.00    +0.000 A 
ATOM      6  C   UNL     1       1.462  10.636  18.455  0.00  0.00    +0.000 A 
ATOM      7  C   UNL     1       1.797   9.295  18.541  0.00  0.00    +0.000 A 
ATOM      8  C   UNL     1       1.511   8.554  19.703  0.00  0.00    +0.000 A 
ATOM      9  C   UNL     1       0.895   9.199  20.783  0.00  0.00    +0.000 A 
ATOM     10  C   UNL     1       0.566  10.558  20.699  0.00  0.00    +0.000 A 
BRANCH   5  14
ATOM     11  N   UNL     1      -1.155  12.489  17.745  0.00  0.00    +0.000 NA
ATOM     12  C   UNL     1      -0.424  13.236  18.494  0.00  0.00    +0.000 C 
ATOM     13  N   UNL     1      -0.569  14.646  18.417  0.00  0.00    +0.000 N 
ATOM     14  N   UNL     1       0.470  12.671  19.459  0.00  0.00    +0.000 N 
ATOM     15  H   UNL     1      -1.827  12.878  17.067  0.00  0.00    +0.000 HD
ATOM     16  H   UNL     1      -1.234  15.069  17.751  0.00  0.00    +0.000 HD
ATOM     17  H   UNL     1      -0.002  15.262  19.013  0.00  0.00    +0.000 HD
ATOM     18  H   UNL     1       0.827  13.300  20.194  0.00  0.00    +0.000 HD
ENDBRANCH   5  14
ENDBRANCH   4   8
ENDBRANCH   3   4
ENDBRANCH   2   3
ENDBRANCH   1   2
BRANCH   1  19
ATOM     19  C   UNL     1       1.255   2.713  20.098  0.00  0.00    +0.000 C 
BRANCH  19  20
ATOM     20  C   UNL     1       1.726   2.148  18.764  0.00  0.00    +0.000 C 
BRANCH  20  21
ATOM     21  O   UNL     1       3.107   2.134  18.714  0.00  0.00    +0.000 OA
BRANCH  21  22
ATOM     22  C   UNL     1       3.870   3.204  18.381  0.00  0.00    +0.000 A 
ATOM     23  C   UNL     1       3.684   3.913  17.180  0.00  0.00    +0.000 A 
ATOM     24  C   UNL     1       4.472   5.022  16.890  0.00  0.00    +0.000 A 
ATOM     25  C   UNL     1       5.457   5.471  17.784  0.00  0.00    +0.000 A 
ATOM     26  C   UNL     1       5.671   4.730  18.968  0.00  0.00    +0.000 A 
ATOM     27  C   UNL     1       4.876   3.613  19.260  0.00  0.00    +0.000 A 
BRANCH  25  28
ATOM     28  N   UNL     1       6.190   6.645  17.411  0.00  0.00    +0.000 N 
ATOM     29  C   UNL     1       7.460   7.122  17.884  0.00  0.00    +0.000 C 
ATOM     30  N   UNL     1       8.100   6.591  18.866  0.00  0.00    +0.000 NA
ATOM     31  N   UNL     1       7.979   8.317  17.323  0.00  0.00    +0.000 N 
ATOM     32  H   UNL     1       5.693   7.300  16.790  0.00  0.00    +0.000 HD
ATOM     33  H   UNL     1       7.792   5.783  19.412  0.00  0.00    +0.000 HD
ATOM     34  H   UNL     1       7.459   8.818  16.587  0.00  0.00    +0.000 HD
ATOM     35  H   UNL     1       8.848   8.733  17.686  0.00  0.00    +0.000 HD
ENDBRANCH  25  28
ENDBRANCH  21  22
ENDBRANCH  20  21
ENDBRANCH  19  20
ENDBRANCH   1  19
TORSDOF 10
ENDMDL
MODEL 8
REMARK VINA RESULT:      -6.8      1.280      6.802
REMARK  Name = 
REMARK  10 active torsions:
REMARK  status: ('A' for Active; 'I' for Inactive)
REMARK    1  A    between atoms: N_4  and  C_5
REMARK    2  A    between atoms: C_8  and  O_9
REMARK    3  A    between atoms: O_9  and  C_10
REMARK    4  A    between atoms: C_10  and  C_11
REMARK    5  A    between atoms: C_11  and  C_12
REMARK    6  A    between atoms: C_12  and  C_13
REMARK    7  A    between atoms: C_13  and  C_14
REMARK    8  A    between atoms: C_14  and  O_15
REMARK    9  A    between atoms: O_15  and  C_16
REMARK   10  A    between atoms: C_19  and  N_20
REMARK                            x       y       z     vdW  Elec       q    Type
REMARK                         _______ _______ _______ _____ _____    ______ ____
ROOT
ATOM      1  C   UNL     1       1.695   3.459  20.869  0.00  0.00    +0.000 C 
ENDROOT
BRANCH   1   2
ATOM      2  C   UNL     1       2.046   2.438  19.786  0.00  0.00    +0.000 C 
BRANCH   2   3
ATOM      3  C   UNL     1       1.607   3.000  18.447  0.00  0.00    +0.000 C 
BRANCH   3   4
ATOM      4  O   UNL     1       2.589   2.868  17.485  0.00  0.00    +0.000 OA
BRANCH   4   8
ATOM      5  C   UNL     1       5.474   5.825  16.815  0.00  0.00    +0.000 A 
ATOM      6  C   UNL     1       5.719   4.492  16.445  0.00  0.00    +0.000 A 
ATOM      7  C   UNL     1       4.769   3.509  16.667  0.00  0.00    +0.000 A 
ATOM      8  C   UNL     1       3.535   3.820  17.268  0.00  0.00    +0.000 A 
ATOM      9  C   UNL     1       3.286   5.142  17.658  0.00  0.00    +0.000 A 
ATOM     10  C   UNL     1       4.251   6.135  17.443  0.00  0.00    +0.000 A 
BRANCH   5  14
ATOM     11  N   UNL     1       7.667   6.566  18.597  0.00  0.00    +0.000 NA
ATOM     12  C   UNL     1       7.424   7.267  17.546  0.00  0.00    +0.000 C 
ATOM     13  N   UNL     1       8.210   8.420  17.286  0.00  0.00    +0.000 N 
ATOM     14  N   UNL     1       6.435   6.859  16.595  0.00  0.00    +0.000 N 
ATOM     15  H   UNL     1       8.398   6.827  19.276  0.00  0.00    +0.000 HD
ATOM     16  H   UNL     1       8.951   8.708  17.943  0.00  0.00    +0.000 HD
ATOM     17  H   UNL     1       8.039   8.989  16.447  0.00  0.00    +0.000 HD
ATOM     18  H   UNL     1       6.463   7.304  15.666  0.00  0.00    +0.000 HD
ENDBRANCH   5  14
ENDBRANCH   4   8
ENDBRANCH   3   4
ENDBRANCH   2   3
ENDBRANCH   1   2
BRANCH   1  19
ATOM     19  C   UNL     1       1.147   4.752  20.274  0.00  0.00    +0.000 C 
BRANCH  19  20
ATOM     20  C   UNL     1       1.759   5.939  21.007  0.00  0.00    +0.000 C 
BRANCH  20  21
ATOM     21  O   UNL     1       2.217   6.874  20.099  0.00  0.00    +0.000 OA
BRANCH  21  22
ATOM     22  C   UNL     1       1.596   8.051  19.835  0.00  0.00    +0.000 A 
ATOM     23  C   UNL     1       0.860   8.746  20.812  0.00  0.00    +0.000 A 
ATOM     24  C   UNL     1       0.262   9.963  20.506  0.00  0.00    +0.000 A 
ATOM     25  C   UNL     1       0.385  10.536  19.230  0.00  0.00    +0.000 A 
ATOM     26  C   UNL     1       1.087   9.814  18.239  0.00  0.00    +0.000 A 
ATOM     27  C   UNL     1       1.691   8.587  18.549  0.00  0.00    +0.000 A 
BRANCH  25  28
ATOM     28  N   UNL     1      -0.237  11.812  19.026  0.00  0.00    +0.000 N 
ATOM     29  C   UNL     1       0.348  13.065  18.637  0.00  0.00    +0.000 C 
ATOM     30  N   UNL     1       1.617  13.258  18.533  0.00  0.00    +0.000 NA
ATOM     31  N   UNL     1      -0.508  14.185  18.481  0.00  0.00    +0.000 N 
ATOM     32  H   UNL     1      -1.230  11.870  19.295  0.00  0.00    +0.000 HD
ATOM     33  H   UNL     1       2.342  12.559  18.705  0.00  0.00    +0.000 HD
ATOM     34  H   UNL     1      -1.524  14.092  18.631  0.00  0.00    +0.000 HD
ATOM     35  H   UNL     1      -0.121  15.117  18.276  0.00  0.00    +0.000 HD
ENDBRANCH  25  28
ENDBRANCH  21  22
ENDBRANCH  20  21
ENDBRANCH  19  20
ENDBRANCH   1  19
TORSDOF 10
ENDMDL
MODEL 9
REMARK VINA RESULT:      -6.8      1.735      7.263
REMARK  Name = 
REMARK  10 active torsions:
REMARK  status: ('A' for Active; 'I' for Inactive)
REMARK    1  A    between atoms: N_4  and  C_5
REMARK    2  A    between atoms: C_8  and  O_9
REMARK    3  A    between atoms: O_9  and  C_10
REMARK    4  A    between atoms: C_10  and  C_11
REMARK    5  A    between atoms: C_11  and  C_12
REMARK    6  A    between atoms: C_12  and  C_13
REMARK    7  A    between atoms: C_13  and  C_14
REMARK    8  A    between atoms: C_14  and  O_15
REMARK    9  A    between atoms: O_15  and  C_16
REMARK   10  A    between atoms: C_19  and  N_20
REMARK                            x       y       z     vdW  Elec       q    Type
REMARK                         _______ _______ _______ _____ _____    ______ ____
ROOT
ATOM      1  C   UNL     1       1.886   3.137  20.474  0.00  0.00    +0.000 C 
ENDROOT
BRANCH   1   2
ATOM      2  C   UNL     1       2.585   2.214  19.475  0.00  0.00    +0.000 C 
BRANCH   2   3
ATOM      3  C   UNL     1       4.083   2.337  19.686  0.00  0.00    +0.000 C 
BRANCH   3   4
ATOM      4  O   UNL     1       4.508   3.648  19.599  0.00  0.00    +0.000 OA
BRANCH   4   8
ATOM      5  C   UNL     1       6.444   5.151  16.206  0.00  0.00    +0.000 A 
ATOM      6  C   UNL     1       7.181   4.775  17.341  0.00  0.00    +0.000 A 
ATOM      7  C   UNL     1       6.546   4.280  18.468  0.00  0.00    +0.000 A 
ATOM      8  C   UNL     1       5.146   4.140  18.504  0.00  0.00    +0.000 A 
ATOM      9  C   UNL     1       4.398   4.529  17.386  0.00  0.00    +0.000 A 
ATOM     10  C   UNL     1       5.040   5.040  16.250  0.00  0.00    +0.000 A 
BRANCH   5  14
ATOM     11  N   UNL     1       6.626   3.817  13.614  0.00  0.00    +0.000 NA
ATOM     12  C   UNL     1       7.243   4.928  13.813  0.00  0.00    +0.000 C 
ATOM     13  N   UNL     1       8.038   5.475  12.772  0.00  0.00    +0.000 N 
ATOM     14  N   UNL     1       7.074   5.662  15.031  0.00  0.00    +0.000 N 
ATOM     15  H   UNL     1       6.710   3.292  12.731  0.00  0.00    +0.000 HD
ATOM     16  H   UNL     1       8.142   4.976  11.875  0.00  0.00    +0.000 HD
ATOM     17  H   UNL     1       8.532   6.366  12.907  0.00  0.00    +0.000 HD
ATOM     18  H   UNL     1       7.377   6.647  15.033  0.00  0.00    +0.000 HD
ENDBRANCH   5  14
ENDBRANCH   4   8
ENDBRANCH   3   4
ENDBRANCH   2   3
ENDBRANCH   1   2
BRANCH   1  19
ATOM     19  C   UNL     1       1.446   4.446  19.825  0.00  0.00    +0.000 C 
BRANCH  19  20
ATOM     20  C   UNL     1       2.015   5.615  20.620  0.00  0.00    +0.000 C 
BRANCH  20  21
ATOM     21  O   UNL     1       2.456   6.604  19.762  0.00  0.00    +0.000 OA
BRANCH  21  22
ATOM     22  C   UNL     1       1.858   7.813  19.619  0.00  0.00    +0.000 A 
ATOM     23  C   UNL     1       1.800   8.480  18.382  0.00  0.00    +0.000 A 
ATOM     24  C   UNL     1       1.153   9.707  18.275  0.00  0.00    +0.000 A 
ATOM     25  C   UNL     1       0.533  10.303  19.385  0.00  0.00    +0.000 A 
ATOM     26  C   UNL     1       0.632   9.652  20.635  0.00  0.00    +0.000 A 
ATOM     27  C   UNL     1       1.283   8.415  20.741  0.00  0.00    +0.000 A 
BRANCH  25  28
ATOM     28  N   UNL     1      -0.140  11.550  19.163  0.00  0.00    +0.000 N 
ATOM     29  C   UNL     1       0.320  12.732  18.488  0.00  0.00    +0.000 C 
ATOM     30  N   UNL     1       1.527  12.891  18.070  0.00  0.00    +0.000 NA
ATOM     31  N   UNL     1      -0.567  13.834  18.387  0.00  0.00    +0.000 N 
ATOM     32  H   UNL     1      -1.045  11.658  19.644  0.00  0.00    +0.000 HD
ATOM     33  H   UNL     1       2.285  12.210  18.161  0.00  0.00    +0.000 HD
ATOM     34  H   UNL     1      -1.519  13.777  18.779  0.00  0.00    +0.000 HD
ATOM     35  H   UNL     1      -0.252  14.725  17.978  0.00  0.00    +0.000 HD
ENDBRANCH  25  28
ENDBRANCH  21  22
ENDBRANCH  20  21
ENDBRANCH  19  20
ENDBRANCH   1  19
TORSDOF 10
ENDMDL
