MODEL 1
REMARK VINA RESULT:      -7.6      0.000      0.000
REMARK  Name = 
REMARK  8 active torsions:
REMARK  status: ('A' for Active; 'I' for Inactive)
REMARK    1  A    between atoms: C_2  and  C_3
REMARK    2  A    between atoms: C_3  and  O_4
REMARK    3  A    between atoms: O_4  and  C_5
REMARK    4  A    between atoms: C_5  and  C_7
REMARK    5  A    between atoms: C_7  and  C_8
REMARK    6  A    between atoms: N_16  and  C_17
REMARK    7  A    between atoms: C_20  and  O_21
REMARK    8  A    between atoms: O_21  and  C_22
REMARK                            x       y       z     vdW  Elec       q    Type
REMARK                         _______ _______ _______ _____ _____    ______ ____
ROOT
ATOM      1  O   UNL     1       0.798   4.534  20.004  0.00  0.00    +0.000 OA
ATOM      2  C   UNL     1       1.874   4.768  20.550  0.00  0.00    +0.000 C 
ATOM      3  N   UNL     1       2.530   5.993  20.569  0.00  0.00    +0.000 N 
ATOM      4  H   UNL     1       3.477   6.012  20.923  0.00  0.00    +0.000 HD
ENDROOT
BRANCH   3   5
ATOM      5  C   UNL     1       2.009   7.225  20.116  0.00  0.00    +0.000 A 
ATOM      6  C   UNL     1       1.255   8.078  20.921  0.00  0.00    +0.000 A 
ATOM      7  C   UNL     1       0.792   9.301  20.426  0.00  0.00    +0.000 A 
ATOM      8  C   UNL     1       1.085   9.697  19.125  0.00  0.00    +0.000 A 
ATOM      9  C   UNL     1       1.815   8.840  18.299  0.00  0.00    +0.000 A 
ATOM     10  C   UNL     1       2.287   7.617  18.800  0.00  0.00    +0.000 A 
BRANCH   8  11
ATOM     11  O   UNL     1       0.581  10.913  18.762  0.00  0.00    +0.000 OA
BRANCH  11  12
ATOM     12  C   UNL     1      -0.773  10.907  18.345  0.00  0.00    +0.000 C 
ATOM     13  F   UNL     1      -0.994   9.798  17.598  0.00  0.00    +0.000 F 
ATOM     14  F   UNL     1      -1.539  10.787  19.459  0.00  0.00    +0.000 F 
ENDBRANCH  11  12
ENDBRANCH   8  11
ENDBRANCH   3   5
BRANCH   2  15
ATOM     15  C   UNL     1       2.648   3.653  21.266  0.00  0.00    +0.000 C 
BRANCH  15  16
ATOM     16  O   UNL     1       3.084   2.615  20.387  0.00  0.00    +0.000 OA
BRANCH  16  17
ATOM     17  C   UNL     1       4.394   2.703  20.029  0.00  0.00    +0.000 C 
ATOM     18  O   UNL     1       5.188   1.772  20.059  0.00  0.00    +0.000 OA
BRANCH  17  19
ATOM     19  C   UNL     1       4.757   4.112  19.622  0.00  0.00    +0.000 C 
BRANCH  19  20
ATOM     20  C   UNL     1       5.280   4.214  18.211  0.00  0.00    +0.000 A 
ATOM     21  C   UNL     1       6.644   4.494  18.015  0.00  0.00    +0.000 A 
ATOM     22  C   UNL     1       7.171   4.615  16.726  0.00  0.00    +0.000 A 
ATOM     23  C   UNL     1       6.341   4.446  15.621  0.00  0.00    +0.000 A 
ATOM     24 CL   UNL     1       6.986   4.614  14.035  0.00  0.00    +0.000 Cl
ATOM     25  C   UNL     1       4.992   4.149  15.793  0.00  0.00    +0.000 A 
ATOM     26  C   UNL     1       4.465   4.028  17.082  0.00  0.00    +0.000 A 
ATOM     27 CL   UNL     1       2.782   3.670  17.221  0.00  0.00    +0.000 Cl
ENDBRANCH  19  20
ENDBRANCH  17  19
ENDBRANCH  16  17
ENDBRANCH  15  16
ENDBRANCH   2  15
TORSDOF 8
ENDMDL
MODEL 2
REMARK VINA RESULT:      -7.6      1.289      1.705
REMARK  Name = 
REMARK  8 active torsions:
REMARK  status: ('A' for Active; 'I' for Inactive)
REMARK    1  A    between atoms: C_2  and  C_3
REMARK    2  A    between atoms: C_3  and  O_4
REMARK    3  A    between atoms: O_4  and  C_5
REMARK    4  A    between atoms: C_5  and  C_7
REMARK    5  A    between atoms: C_7  and  C_8
REMARK    6  A    between atoms: N_16  and  C_17
REMARK    7  A    between atoms: C_20  and  O_21
REMARK    8  A    between atoms: O_21  and  C_22
REMARK                            x       y       z     vdW  Elec       q    Type
REMARK                         _______ _______ _______ _____ _____    ______ ____
ROOT
ATOM      1  O   UNL     1       1.541   5.079  18.696  0.00  0.00    +0.000 OA
ATOM      2  C   UNL     1       2.087   5.267  19.781  0.00  0.00    +0.000 C 
ATOM      3  N   UNL     1       2.327   6.502  20.371  0.00  0.00    +0.000 N 
ATOM      4  H   UNL     1       2.919   6.522  21.191  0.00  0.00    +0.000 HD
ENDROOT
BRANCH   3   5
ATOM      5  C   UNL     1       1.843   7.750  19.920  0.00  0.00    +0.000 A 
ATOM      6  C   UNL     1       1.091   8.611  20.718  0.00  0.00    +0.000 A 
ATOM      7  C   UNL     1       0.664   9.848  20.227  0.00  0.00    +0.000 A 
ATOM      8  C   UNL     1       0.993  10.251  18.937  0.00  0.00    +0.000 A 
ATOM      9  C   UNL     1       1.720   9.386  18.116  0.00  0.00    +0.000 A 
ATOM     10  C   UNL     1       2.155   8.148  18.613  0.00  0.00    +0.000 A 
BRANCH   8  11
ATOM     11  O   UNL     1       0.522  11.481  18.576  0.00  0.00    +0.000 OA
BRANCH  11  12
ATOM     12  C   UNL     1      -0.884  11.571  18.423  0.00  0.00    +0.000 C 
ATOM     13  F   UNL     1      -1.170  12.660  17.669  0.00  0.00    +0.000 F 
ATOM     14  F   UNL     1      -1.282  10.487  17.711  0.00  0.00    +0.000 F 
ENDBRANCH  11  12
ENDBRANCH   8  11
ENDBRANCH   3   5
BRANCH   2  15
ATOM     15  C   UNL     1       2.617   4.087  20.607  0.00  0.00    +0.000 C 
BRANCH  15  16
ATOM     16  O   UNL     1       3.101   3.009  19.804  0.00  0.00    +0.000 OA
BRANCH  16  17
ATOM     17  C   UNL     1       4.458   2.914  19.760  0.00  0.00    +0.000 C 
ATOM     18  O   UNL     1       5.093   1.893  19.987  0.00  0.00    +0.000 OA
BRANCH  17  19
ATOM     19  C   UNL     1       5.089   4.247  19.429  0.00  0.00    +0.000 C 
BRANCH  19  20
ATOM     20  C   UNL     1       5.563   4.349  17.999  0.00  0.00    +0.000 A 
ATOM     21  C   UNL     1       4.720   3.887  16.974  0.00  0.00    +0.000 A 
ATOM     22  C   UNL     1       5.123   3.944  15.637  0.00  0.00    +0.000 A 
ATOM     23  C   UNL     1       6.368   4.475  15.313  0.00  0.00    +0.000 A 
ATOM     24 CL   UNL     1       6.872   4.528  13.668  0.00  0.00    +0.000 Cl
ATOM     25  C   UNL     1       7.210   4.956  16.311  0.00  0.00    +0.000 A 
ATOM     26  C   UNL     1       6.807   4.898  17.648  0.00  0.00    +0.000 A 
ATOM     27 CL   UNL     1       7.906   5.501  18.836  0.00  0.00    +0.000 Cl
ENDBRANCH  19  20
ENDBRANCH  17  19
ENDBRANCH  16  17
ENDBRANCH  15  16
ENDBRANCH   2  15
TORSDOF 8
ENDMDL
MODEL 3
REMARK VINA RESULT:      -7.6      6.920      8.425
REMARK  Name = 
REMARK  8 active torsions:
REMARK  status: ('A' for Active; 'I' for Inactive)
REMARK    1  A    between atoms: C_2  and  C_3
REMARK    2  A    between atoms: C_3  and  O_4
REMARK    3  A    between atoms: O_4  and  C_5
REMARK    4  A    between atoms: C_5  and  C_7
REMARK    5  A    between atoms: C_7  and  C_8
REMARK    6  A    between atoms: N_16  and  C_17
REMARK    7  A    between atoms: C_20  and  O_21
REMARK    8  A    between atoms: O_21  and  C_22
REMARK                            x       y       z     vdW  Elec       q    Type
REMARK                         _______ _______ _______ _____ _____    ______ ____
ROOT
ATOM      1  O   UNL     1       7.700   6.171  17.308  0.00  0.00    +0.000 OA
ATOM      2  C   UNL     1       7.046   7.203  17.446  0.00  0.00    +0.000 C 
ATOM      3  N   UNL     1       5.660   7.298  17.447  0.00  0.00    +0.000 N 
ATOM      4  H   UNL     1       5.253   8.224  17.418  0.00  0.00    +0.000 HD
ENDROOT
BRANCH   3   5
ATOM      5  C   UNL     1       4.751   6.217  17.460  0.00  0.00    +0.000 A 
ATOM      6  C   UNL     1       3.541   6.244  18.153  0.00  0.00    +0.000 A 
ATOM      7  C   UNL     1       2.666   5.155  18.104  0.00  0.00    +0.000 A 
ATOM      8  C   UNL     1       2.978   4.028  17.352  0.00  0.00    +0.000 A 
ATOM      9  C   UNL     1       4.199   3.975  16.676  0.00  0.00    +0.000 A 
ATOM     10  C   UNL     1       5.072   5.072  16.718  0.00  0.00    +0.000 A 
BRANCH   8  11
ATOM     11  O   UNL     1       2.041   3.035  17.381  0.00  0.00    +0.000 OA
BRANCH  11  12
ATOM     12  C   UNL     1       1.498   2.751  18.658  0.00  0.00    +0.000 C 
ATOM     13  F   UNL     1       0.257   2.231  18.497  0.00  0.00    +0.000 F 
ATOM     14  F   UNL     1       2.261   1.776  19.213  0.00  0.00    +0.000 F 
ENDBRANCH  11  12
ENDBRANCH   8  11
ENDBRANCH   3   5
BRANCH   2  15
ATOM     15  C   UNL     1       7.747   8.560  17.599  0.00  0.00    +0.000 C 
BRANCH  15  16
ATOM     16  O   UNL     1       8.633   8.614  18.718  0.00  0.00    +0.000 OA
BRANCH  16  17
ATOM     17  C   UNL     1       9.113   9.860  18.987  0.00  0.00    +0.000 C 
ATOM     18  O   UNL     1       9.099  10.388  20.091  0.00  0.00    +0.000 OA
BRANCH  17  19
ATOM     19  C   UNL     1       9.636  10.526  17.735  0.00  0.00    +0.000 C 
BRANCH  19  20
ATOM     20  C   UNL     1      10.055  11.960  17.949  0.00  0.00    +0.000 A 
ATOM     21  C   UNL     1      11.370  12.223  18.371  0.00  0.00    +0.000 A 
ATOM     22  C   UNL     1      11.799  13.534  18.599  0.00  0.00    +0.000 A 
ATOM     23  C   UNL     1      10.919  14.594  18.396  0.00  0.00    +0.000 A 
ATOM     24 CL   UNL     1      11.441  16.206  18.694  0.00  0.00    +0.000 Cl
ATOM     25  C   UNL     1       9.619  14.357  17.959  0.00  0.00    +0.000 A 
ATOM     26  C   UNL     1       9.190  13.046  17.731  0.00  0.00    +0.000 A 
ATOM     27 CL   UNL     1       7.562  12.823  17.203  0.00  0.00    +0.000 Cl
ENDBRANCH  19  20
ENDBRANCH  17  19
ENDBRANCH  16  17
ENDBRANCH  15  16
ENDBRANCH   2  15
TORSDOF 8
ENDMDL
MODEL 4
REMARK VINA RESULT:      -7.6      5.623      8.384
REMARK  Name = 
REMARK  8 active torsions:
REMARK  status: ('A' for Active; 'I' for Inactive)
REMARK    1  A    between atoms: C_2  and  C_3
REMARK    2  A    between atoms: C_3  and  O_4
REMARK    3  A    between atoms: O_4  and  C_5
REMARK    4  A    between atoms: C_5  and  C_7
REMARK    5  A    between atoms: C_7  and  C_8
REMARK    6  A    between atoms: N_16  and  C_17
REMARK    7  A    between atoms: C_20  and  O_21
REMARK    8  A    between atoms: O_21  and  C_22
REMARK                            x       y       z     vdW  Elec       q    Type
REMARK                         _______ _______ _______ _____ _____    ______ ____
ROOT
ATOM      1  O   UNL     1       7.713   4.400  17.014  0.00  0.00    +0.000 OA
ATOM      2  C   UNL     1       7.470   5.540  16.622  0.00  0.00    +0.000 C 
ATOM      3  N   UNL     1       7.095   5.897  15.333  0.00  0.00    +0.000 N 
ATOM      4  H   UNL     1       7.073   6.883  15.107  0.00  0.00    +0.000 HD
ENDROOT
BRANCH   3   5
ATOM      5  C   UNL     1       6.762   5.010  14.285  0.00  0.00    +0.000 A 
ATOM      6  C   UNL     1       7.526   4.874  13.127  0.00  0.00    +0.000 A 
ATOM      7  C   UNL     1       7.164   3.956  12.137  0.00  0.00    +0.000 A 
ATOM      8  C   UNL     1       6.040   3.152  12.293  0.00  0.00    +0.000 A 
ATOM      9  C   UNL     1       5.248   3.298  13.434  0.00  0.00    +0.000 A 
ATOM     10  C   UNL     1       5.619   4.212  14.431  0.00  0.00    +0.000 A 
BRANCH   8  11
ATOM     11  O   UNL     1       5.794   2.294  11.259  0.00  0.00    +0.000 OA
BRANCH  11  12
ATOM     12  C   UNL     1       6.695   1.207  11.146  0.00  0.00    +0.000 C 
ATOM     13  F   UNL     1       5.995   0.092  10.823  0.00  0.00    +0.000 F 
ATOM     14  F   UNL     1       7.516   1.470  10.098  0.00  0.00    +0.000 F 
ENDBRANCH  11  12
ENDBRANCH   8  11
ENDBRANCH   3   5
BRANCH   2  15
ATOM     15  C   UNL     1       7.605   6.739  17.570  0.00  0.00    +0.000 C 
BRANCH  15  16
ATOM     16  O   UNL     1       6.401   7.497  17.696  0.00  0.00    +0.000 OA
BRANCH  16  17
ATOM     17  C   UNL     1       5.265   6.747  17.666  0.00  0.00    +0.000 C 
ATOM     18  O   UNL     1       4.439   6.769  16.763  0.00  0.00    +0.000 OA
BRANCH  17  19
ATOM     19  C   UNL     1       5.134   5.904  18.914  0.00  0.00    +0.000 C 
BRANCH  19  20
ATOM     20  C   UNL     1       3.955   4.962  18.880  0.00  0.00    +0.000 A 
ATOM     21  C   UNL     1       4.153   3.650  18.414  0.00  0.00    +0.000 A 
ATOM     22  C   UNL     1       3.088   2.747  18.348  0.00  0.00    +0.000 A 
ATOM     23  C   UNL     1       1.819   3.144  18.759  0.00  0.00    +0.000 A 
ATOM     24 CL   UNL     1       0.504   2.038  18.660  0.00  0.00    +0.000 Cl
ATOM     25  C   UNL     1       1.605   4.432  19.242  0.00  0.00    +0.000 A 
ATOM     26  C   UNL     1       2.670   5.335  19.308  0.00  0.00    +0.000 A 
ATOM     27 CL   UNL     1       2.332   6.919  19.906  0.00  0.00    +0.000 Cl
ENDBRANCH  19  20
ENDBRANCH  17  19
ENDBRANCH  16  17
ENDBRANCH  15  16
ENDBRANCH   2  15
TORSDOF 8
ENDMDL
MODEL 5
REMARK VINA RESULT:      -7.6      1.393      2.007
REMARK  Name = 
REMARK  8 active torsions:
REMARK  status: ('A' for Active; 'I' for Inactive)
REMARK    1  A    between atoms: C_2  and  C_3
REMARK    2  A    between atoms: C_3  and  O_4
REMARK    3  A    between atoms: O_4  and  C_5
REMARK    4  A    between atoms: C_5  and  C_7
REMARK    5  A    between atoms: C_7  and  C_8
REMARK    6  A    between atoms: N_16  and  C_17
REMARK    7  A    between atoms: C_20  and  O_21
REMARK    8  A    between atoms: O_21  and  C_22
REMARK                            x       y       z     vdW  Elec       q    Type
REMARK                         _______ _______ _______ _____ _____    ______ ____
ROOT
ATOM      1  O   UNL     1       0.953   4.467  19.518  0.00  0.00    +0.000 OA
ATOM      2  C   UNL     1       1.910   4.665  20.264  0.00  0.00    +0.000 C 
ATOM      3  N   UNL     1       2.507   5.894  20.518  0.00  0.00    +0.000 N 
ATOM      4  H   UNL     1       3.378   5.894  21.031  0.00  0.00    +0.000 HD
ENDROOT
BRANCH   3   5
ATOM      5  C   UNL     1       2.026   7.156  20.104  0.00  0.00    +0.000 A 
ATOM      6  C   UNL     1       2.248   7.679  18.832  0.00  0.00    +0.000 A 
ATOM      7  C   UNL     1       1.720   8.922  18.469  0.00  0.00    +0.000 A 
ATOM      8  C   UNL     1       0.952   9.655  19.367  0.00  0.00    +0.000 A 
ATOM      9  C   UNL     1       0.746   9.158  20.655  0.00  0.00    +0.000 A 
ATOM     10  C   UNL     1       1.268   7.906  21.015  0.00  0.00    +0.000 A 
BRANCH   8  11
ATOM     11  O   UNL     1       0.490  10.850  18.893  0.00  0.00    +0.000 OA
BRANCH  11  12
ATOM     12  C   UNL     1      -0.917  11.005  18.908  0.00  0.00    +0.000 C 
ATOM     13  F   UNL     1      -1.232  12.045  19.718  0.00  0.00    +0.000 F 
ATOM     14  F   UNL     1      -1.298  11.357  17.654  0.00  0.00    +0.000 F 
ENDBRANCH  11  12
ENDBRANCH   8  11
ENDBRANCH   3   5
BRANCH   2  15
ATOM     15  C   UNL     1       2.592   3.497  20.990  0.00  0.00    +0.000 C 
BRANCH  15  16
ATOM     16  O   UNL     1       2.869   2.387  20.136  0.00  0.00    +0.000 OA
BRANCH  16  17
ATOM     17  C   UNL     1       4.144   2.358  19.657  0.00  0.00    +0.000 C 
ATOM     18  O   UNL     1       5.112   1.943  20.279  0.00  0.00    +0.000 OA
BRANCH  17  19
ATOM     19  C   UNL     1       4.218   2.943  18.266  0.00  0.00    +0.000 C 
BRANCH  19  20
ATOM     20  C   UNL     1       5.189   4.092  18.149  0.00  0.00    +0.000 A 
ATOM     21  C   UNL     1       5.593   4.757  19.320  0.00  0.00    +0.000 A 
ATOM     22  C   UNL     1       6.478   5.838  19.260  0.00  0.00    +0.000 A 
ATOM     23  C   UNL     1       6.975   6.256  18.029  0.00  0.00    +0.000 A 
ATOM     24 CL   UNL     1       8.049   7.598  17.953  0.00  0.00    +0.000 Cl
ATOM     25  C   UNL     1       6.604   5.599  16.859  0.00  0.00    +0.000 A 
ATOM     26  C   UNL     1       5.719   4.518  16.919  0.00  0.00    +0.000 A 
ATOM     27 CL   UNL     1       5.292   3.758  15.429  0.00  0.00    +0.000 Cl
ENDBRANCH  19  20
ENDBRANCH  17  19
ENDBRANCH  16  17
ENDBRANCH  15  16
ENDBRANCH   2  15
TORSDOF 8
ENDMDL
MODEL 6
REMARK VINA RESULT:      -7.4      6.712      7.980
REMARK  Name = 
REMARK  8 active torsions:
REMARK  status: ('A' for Active; 'I' for Inactive)
REMARK    1  A    between atoms: C_2  and  C_3
REMARK    2  A    between atoms: C_3  and  O_4
REMARK    3  A    between atoms: O_4  and  C_5
REMARK    4  A    between atoms: C_5  and  C_7
REMARK    5  A    between atoms: C_7  and  C_8
REMARK    6  A    between atoms: N_16  and  C_17
REMARK    7  A    between atoms: C_20  and  O_21
REMARK    8  A    between atoms: O_21  and  C_22
REMARK                            x       y       z     vdW  Elec       q    Type
REMARK                         _______ _______ _______ _____ _____    ______ ____
ROOT
ATOM      1  O   UNL     1       8.625   7.423  18.899  0.00  0.00    +0.000 OA
ATOM      2  C   UNL     1       7.989   8.070  18.070  0.00  0.00    +0.000 C 
ATOM      3  N   UNL     1       8.084   9.439  17.855  0.00  0.00    +0.000 N 
ATOM      4  H   UNL     1       7.397   9.867  17.248  0.00  0.00    +0.000 HD
ENDROOT
BRANCH   3   5
ATOM      5  C   UNL     1       9.041  10.308  18.424  0.00  0.00    +0.000 A 
ATOM      6  C   UNL     1       9.189  10.487  19.799  0.00  0.00    +0.000 A 
ATOM      7  C   UNL     1      10.175  11.338  20.306  0.00  0.00    +0.000 A 
ATOM      8  C   UNL     1      11.037  12.015  19.449  0.00  0.00    +0.000 A 
ATOM      9  C   UNL     1      10.881  11.869  18.069  0.00  0.00    +0.000 A 
ATOM     10  C   UNL     1       9.898  11.006  17.562  0.00  0.00    +0.000 A 
BRANCH   8  11
ATOM     11  O   UNL     1      11.959  12.812  20.065  0.00  0.00    +0.000 OA
BRANCH  11  12
ATOM     12  C   UNL     1      11.727  14.204  19.956  0.00  0.00    +0.000 C 
ATOM     13  F   UNL     1      12.333  14.660  18.832  0.00  0.00    +0.000 F 
ATOM     14  F   UNL     1      10.393  14.379  19.777  0.00  0.00    +0.000 F 
ENDBRANCH  11  12
ENDBRANCH   8  11
ENDBRANCH   3   5
BRANCH   2  15
ATOM     15  C   UNL     1       6.946   7.386  17.176  0.00  0.00    +0.000 C 
BRANCH  15  16
ATOM     16  O   UNL     1       6.244   6.330  17.834  0.00  0.00    +0.000 OA
BRANCH  16  17
ATOM     17  C   UNL     1       6.230   5.157  17.143  0.00  0.00    +0.000 C 
ATOM     18  O   UNL     1       7.221   4.481  16.899  0.00  0.00    +0.000 OA
BRANCH  17  19
ATOM     19  C   UNL     1       4.834   4.811  16.681  0.00  0.00    +0.000 C 
BRANCH  19  20
ATOM     20  C   UNL     1       3.919   4.383  17.802  0.00  0.00    +0.000 A 
ATOM     21  C   UNL     1       3.952   3.044  18.228  0.00  0.00    +0.000 A 
ATOM     22  C   UNL     1       3.111   2.598  19.251  0.00  0.00    +0.000 A 
ATOM     23  C   UNL     1       2.237   3.490  19.865  0.00  0.00    +0.000 A 
ATOM     24 CL   UNL     1       1.188   2.937  21.112  0.00  0.00    +0.000 Cl
ATOM     25  C   UNL     1       2.202   4.825  19.472  0.00  0.00    +0.000 A 
ATOM     26  C   UNL     1       3.043   5.271  18.449  0.00  0.00    +0.000 A 
ATOM     27 CL   UNL     1       2.938   6.936  18.004  0.00  0.00    +0.000 Cl
ENDBRANCH  19  20
ENDBRANCH  17  19
ENDBRANCH  16  17
ENDBRANCH  15  16
ENDBRANCH   2  15
TORSDOF 8
ENDMDL
MODEL 7
REMARK VINA RESULT:      -7.4      6.735      8.449
REMARK  Name = 
REMARK  8 active torsions:
REMARK  status: ('A' for Active; 'I' for Inactive)
REMARK    1  A    between atoms: C_2  and  C_3
REMARK    2  A    between atoms: C_3  and  O_4
REMARK    3  A    between atoms: O_4  and  C_5
REMARK    4  A    between atoms: C_5  and  C_7
REMARK    5  A    between atoms: C_7  and  C_8
REMARK    6  A    between atoms: N_16  and  C_17
REMARK    7  A    between atoms: C_20  and  O_21
REMARK    8  A    between atoms: O_21  and  C_22
REMARK                            x       y       z     vdW  Elec       q    Type
REMARK                         _______ _______ _______ _____ _____    ______ ____
ROOT
ATOM      1  O   UNL     1       7.516   5.731  19.342  0.00  0.00    +0.000 OA
ATOM      2  C   UNL     1       7.324   6.600  18.494  0.00  0.00    +0.000 C 
ATOM      3  N   UNL     1       6.275   6.635  17.585  0.00  0.00    +0.000 N 
ATOM      4  H   UNL     1       6.319   7.324  16.845  0.00  0.00    +0.000 HD
ENDROOT
BRANCH   3   5
ATOM      5  C   UNL     1       5.151   5.781  17.575  0.00  0.00    +0.000 A 
ATOM      6  C   UNL     1       3.883   6.180  17.993  0.00  0.00    +0.000 A 
ATOM      7  C   UNL     1       2.800   5.299  17.931  0.00  0.00    +0.000 A 
ATOM      8  C   UNL     1       2.964   4.008  17.438  0.00  0.00    +0.000 A 
ATOM      9  C   UNL     1       4.234   3.584  17.044  0.00  0.00    +0.000 A 
ATOM     10  C   UNL     1       5.318   4.473  17.097  0.00  0.00    +0.000 A 
BRANCH   8  11
ATOM     11  O   UNL     1       1.831   3.246  17.425  0.00  0.00    +0.000 OA
BRANCH  11  12
ATOM     12  C   UNL     1       1.675   2.371  18.527  0.00  0.00    +0.000 C 
ATOM     13  F   UNL     1       2.620   1.402  18.452  0.00  0.00    +0.000 F 
ATOM     14  F   UNL     1       1.938   3.086  19.651  0.00  0.00    +0.000 F 
ENDBRANCH  11  12
ENDBRANCH   8  11
ENDBRANCH   3   5
BRANCH   2  15
ATOM     15  C   UNL     1       8.307   7.768  18.334  0.00  0.00    +0.000 C 
BRANCH  15  16
ATOM     16  O   UNL     1       7.731   8.906  17.692  0.00  0.00    +0.000 OA
BRANCH  16  17
ATOM     17  C   UNL     1       8.315  10.089  18.028  0.00  0.00    +0.000 C 
ATOM     18  O   UNL     1       8.106  11.154  17.462  0.00  0.00    +0.000 OA
BRANCH  17  19
ATOM     19  C   UNL     1       9.290   9.913  19.169  0.00  0.00    +0.000 C 
BRANCH  19  20
ATOM     20  C   UNL     1       9.641  11.207  19.863  0.00  0.00    +0.000 A 
ATOM     21  C   UNL     1       8.916  11.577  21.009  0.00  0.00    +0.000 A 
ATOM     22  C   UNL     1       9.194  12.774  21.675  0.00  0.00    +0.000 A 
ATOM     23  C   UNL     1      10.207  13.606  21.208  0.00  0.00    +0.000 A 
ATOM     24 CL   UNL     1      10.537  15.088  22.017  0.00  0.00    +0.000 Cl
ATOM     25  C   UNL     1      10.951  13.248  20.087  0.00  0.00    +0.000 A 
ATOM     26  C   UNL     1      10.673  12.051  19.421  0.00  0.00    +0.000 A 
ATOM     27 CL   UNL     1      11.626  11.676  18.031  0.00  0.00    +0.000 Cl
ENDBRANCH  19  20
ENDBRANCH  17  19
ENDBRANCH  16  17
ENDBRANCH  15  16
ENDBRANCH   2  15
TORSDOF 8
ENDMDL
MODEL 8
REMARK VINA RESULT:      -7.3      4.858      8.736
REMARK  Name = 
REMARK  8 active torsions:
REMARK  status: ('A' for Active; 'I' for Inactive)
REMARK    1  A    between atoms: C_2  and  C_3
REMARK    2  A    between atoms: C_3  and  O_4
REMARK    3  A    between atoms: O_4  and  C_5
REMARK    4  A    between atoms: C_5  and  C_7
REMARK    5  A    between atoms: C_7  and  C_8
REMARK    6  A    between atoms: N_16  and  C_17
REMARK    7  A    between atoms: C_20  and  O_21
REMARK    8  A    between atoms: O_21  and  C_22
REMARK                            x       y       z     vdW  Elec       q    Type
REMARK                         _______ _______ _______ _____ _____    ______ ____
ROOT
ATOM      1  O   UNL     1       1.849   4.939  19.194  0.00  0.00    +0.000 OA
ATOM      2  C   UNL     1       2.311   5.950  19.718  0.00  0.00    +0.000 C 
ATOM      3  N   UNL     1       3.582   6.471  19.508  0.00  0.00    +0.000 N 
ATOM      4  H   UNL     1       3.888   7.220  20.115  0.00  0.00    +0.000 HD
ENDROOT
BRANCH   3   5
ATOM      5  C   UNL     1       4.510   6.038  18.535  0.00  0.00    +0.000 A 
ATOM      6  C   UNL     1       4.514   6.506  17.222  0.00  0.00    +0.000 A 
ATOM      7  C   UNL     1       5.478   6.064  16.310  0.00  0.00    +0.000 A 
ATOM      8  C   UNL     1       6.459   5.158  16.699  0.00  0.00    +0.000 A 
ATOM      9  C   UNL     1       6.449   4.659  18.003  0.00  0.00    +0.000 A 
ATOM     10  C   UNL     1       5.488   5.111  18.920  0.00  0.00    +0.000 A 
BRANCH   8  11
ATOM     11  O   UNL     1       7.344   4.808  15.720  0.00  0.00    +0.000 OA
BRANCH  11  12
ATOM     12  C   UNL     1       6.825   4.815  14.402  0.00  0.00    +0.000 C 
ATOM     13  F   UNL     1       7.787   5.258  13.557  0.00  0.00    +0.000 F 
ATOM     14  F   UNL     1       6.569   3.527  14.062  0.00  0.00    +0.000 F 
ENDBRANCH  11  12
ENDBRANCH   8  11
ENDBRANCH   3   5
BRANCH   2  15
ATOM     15  C   UNL     1       1.489   6.748  20.740  0.00  0.00    +0.000 C 
BRANCH  15  16
ATOM     16  O   UNL     1       1.750   8.152  20.701  0.00  0.00    +0.000 OA
BRANCH  16  17
ATOM     17  C   UNL     1       1.274   8.836  21.778  0.00  0.00    +0.000 C 
ATOM     18  O   UNL     1       1.971   9.309  22.666  0.00  0.00    +0.000 OA
BRANCH  17  19
ATOM     19  C   UNL     1      -0.235   8.906  21.758  0.00  0.00    +0.000 C 
BRANCH  19  20
ATOM     20  C   UNL     1      -0.771  10.317  21.752  0.00  0.00    +0.000 A 
ATOM     21  C   UNL     1      -1.109  10.916  22.978  0.00  0.00    +0.000 A 
ATOM     22  C   UNL     1      -1.625  12.214  23.021  0.00  0.00    +0.000 A 
ATOM     23  C   UNL     1      -1.797  12.929  21.839  0.00  0.00    +0.000 A 
ATOM     24 CL   UNL     1      -2.451  14.520  21.891  0.00  0.00    +0.000 Cl
ATOM     25  C   UNL     1      -1.451  12.362  20.616  0.00  0.00    +0.000 A 
ATOM     26  C   UNL     1      -0.935  11.063  20.573  0.00  0.00    +0.000 A 
ATOM     27 CL   UNL     1      -0.538  10.417  19.022  0.00  0.00    +0.000 Cl
ENDBRANCH  19  20
ENDBRANCH  17  19
ENDBRANCH  16  17
ENDBRANCH  15  16
ENDBRANCH   2  15
TORSDOF 8
ENDMDL
MODEL 9
REMARK VINA RESULT:      -7.3      0.582      1.185
REMARK  Name = 
REMARK  8 active torsions:
REMARK  status: ('A' for Active; 'I' for Inactive)
REMARK    1  A    between atoms: C_2  and  C_3
REMARK    2  A    between atoms: C_3  and  O_4
REMARK    3  A    between atoms: O_4  and  C_5
REMARK    4  A    between atoms: C_5  and  C_7
REMARK    5  A    between atoms: C_7  and  C_8
REMARK    6  A    between atoms: N_16  and  C_17
REMARK    7  A    between atoms: C_20  and  O_21
REMARK    8  A    between atoms: O_21  and  C_22
REMARK                            x       y       z     vdW  Elec       q    Type
REMARK                         _______ _______ _______ _____ _____    ______ ____
ROOT
ATOM      1  O   UNL     1       1.008   4.793  19.796  0.00  0.00    +0.000 OA
ATOM      2  C   UNL     1       2.025   5.119  20.404  0.00  0.00    +0.000 C 
ATOM      3  N   UNL     1       2.584   6.390  20.439  0.00  0.00    +0.000 N 
ATOM      4  H   UNL     1       3.503   6.487  20.852  0.00  0.00    +0.000 HD
ENDROOT
BRANCH   3   5
ATOM      5  C   UNL     1       2.003   7.571  19.926  0.00  0.00    +0.000 A 
ATOM      6  C   UNL     1       2.175   7.999  18.611  0.00  0.00    +0.000 A 
ATOM      7  C   UNL     1       1.549   9.161  18.151  0.00  0.00    +0.000 A 
ATOM      8  C   UNL     1       0.732   9.907  18.994  0.00  0.00    +0.000 A 
ATOM      9  C   UNL     1       0.574   9.507  20.322  0.00  0.00    +0.000 A 
ATOM     10  C   UNL     1       1.195   8.335  20.779  0.00  0.00    +0.000 A 
BRANCH   8  11
ATOM     11  O   UNL     1       0.175  11.017  18.426  0.00  0.00    +0.000 OA
BRANCH  11  12
ATOM     12  C   UNL     1      -1.230  10.970  18.252  0.00  0.00    +0.000 C 
ATOM     13  F   UNL     1      -1.617  12.054  17.537  0.00  0.00    +0.000 F 
ATOM     14  F   UNL     1      -1.506   9.881  17.491  0.00  0.00    +0.000 F 
ENDBRANCH  11  12
ENDBRANCH   8  11
ENDBRANCH   3   5
BRANCH   2  15
ATOM     15  C   UNL     1       2.833   4.078  21.192  0.00  0.00    +0.000 C 
BRANCH  15  16
ATOM     16  O   UNL     1       2.960   2.829  20.512  0.00  0.00    +0.000 OA
BRANCH  16  17
ATOM     17  C   UNL     1       4.121   2.690  19.815  0.00  0.00    +0.000 C 
ATOM     18  O   UNL     1       4.587   1.621  19.444  0.00  0.00    +0.000 OA
BRANCH  17  19
ATOM     19  C   UNL     1       4.785   4.029  19.587  0.00  0.00    +0.000 C 
BRANCH  19  20
ATOM     20  C   UNL     1       5.321   4.203  18.187  0.00  0.00    +0.000 A 
ATOM     21  C   UNL     1       6.684   4.500  18.018  0.00  0.00    +0.000 A 
ATOM     22  C   UNL     1       7.222   4.687  16.741  0.00  0.00    +0.000 A 
ATOM     23  C   UNL     1       6.403   4.567  15.622  0.00  0.00    +0.000 A 
ATOM     24 CL   UNL     1       7.061   4.817  14.052  0.00  0.00    +0.000 Cl
ATOM     25  C   UNL     1       5.054   4.255  15.766  0.00  0.00    +0.000 A 
ATOM     26  C   UNL     1       4.517   4.068  17.043  0.00  0.00    +0.000 A 
ATOM     27 CL   UNL     1       2.834   3.694  17.149  0.00  0.00    +0.000 Cl
ENDBRANCH  19  20
ENDBRANCH  17  19
ENDBRANCH  16  17
ENDBRANCH  15  16
ENDBRANCH   2  15
TORSDOF 8
ENDMDL
