MODEL 1
REMARK VINA RESULT:      -8.9      0.000      0.000
REMARK  Name = 
REMARK  13 active torsions:
REMARK  status: ('A' for Active; 'I' for Inactive)
REMARK    1  A    between atoms: C_1  and  C_2
REMARK    2  A    between atoms: C_2  and  O_3
REMARK    3  A    between atoms: O_3  and  C_4
REMARK    4  A    between atoms: C_4  and  C_6
REMARK    5  A    between atoms: C_7  and  C_8
REMARK    6  A    between atoms: C_10  and  C_11
REMARK    7  A    between atoms: C_12  and  C_13
REMARK    8  A    between atoms: C_13  and  O_15
REMARK    9  A    between atoms: O_15  and  C_16
REMARK   10  A    between atoms: C_17  and  C_18
REMARK   11  A    between atoms: C_22  and  O_23
REMARK   12  A    between atoms: O_23  and  C_24
REMARK   13  A    between atoms: C_24  and  C_25
REMARK                            x       y       z     vdW  Elec       q    Type
REMARK                         _______ _______ _______ _____ _____    ______ ____
ROOT
ATOM      1  C   UNL     1       3.657   4.233  18.357  0.00  0.00    +0.000 C 
ATOM      2  C   UNL     1       4.488   3.694  19.281  0.00  0.00    +0.000 C 
ATOM      3  C   UNL     1       4.249   2.442  20.090  0.00  0.00    +0.000 C 
ATOM      4  N   UNL     1       5.714   4.299  19.525  0.00  0.00    +0.000 N 
ATOM      5  C   UNL     1       6.283   5.277  18.726  0.00  0.00    +0.000 C 
ATOM      6  C   UNL     1       7.726   5.600  19.018  0.00  0.00    +0.000 C 
ATOM      7  C   UNL     1       5.540   5.880  17.767  0.00  0.00    +0.000 C 
ATOM      8  C   UNL     1       4.052   5.533  17.634  0.00  0.00    +0.000 C 
ATOM      9  H   UNL     1       6.330   3.829  20.186  0.00  0.00    +0.000 HD
ENDROOT
BRANCH   8  10
ATOM     10  C   UNL     1       3.191   6.692  18.154  0.00  0.00    +0.000 A 
ATOM     11  C   UNL     1       2.802   7.738  17.299  0.00  0.00    +0.000 A 
ATOM     12  C   UNL     1       2.037   8.799  17.775  0.00  0.00    +0.000 A 
ATOM     13  C   UNL     1       1.646   8.818  19.111  0.00  0.00    +0.000 A 
ATOM     14  C   UNL     1       2.001   7.776  19.973  0.00  0.00    +0.000 A 
ATOM     15  C   UNL     1       2.791   6.729  19.499  0.00  0.00    +0.000 A 
BRANCH  14  16
ATOM     16  O   UNL     1       1.535   7.911  21.250  0.00  0.00    +0.000 OA
BRANCH  16  17
ATOM     17  C   UNL     1       0.222   8.421  21.420  0.00  0.00    +0.000 C 
BRANCH  17  18
ATOM     18  C   UNL     1       0.085   9.714  22.234  0.00  0.00    +0.000 C 
ATOM     19  O   UNL     1       0.427   9.744  23.420  0.00  0.00    +0.000 OA
ATOM     20  N   UNL     1      -0.450  10.819  21.610  0.00  0.00    +0.000 N 
ATOM     21  C   UNL     1      -0.950  10.925  20.252  0.00  0.00    +0.000 C 
ATOM     22  C   UNL     1      -0.734  12.390  19.921  0.00  0.00    +0.000 C 
ATOM     23  C   UNL     1      -1.003  13.092  21.247  0.00  0.00    +0.000 C 
ATOM     24  C   UNL     1      -0.576  12.084  22.309  0.00  0.00    +0.000 C 
ENDBRANCH  17  18
ENDBRANCH  16  17
ENDBRANCH  14  16
ENDBRANCH   8  10
BRANCH   1  25
ATOM     25  C   UNL     1       2.353   3.615  17.995  0.00  0.00    +0.000 C 
ATOM     26  O   UNL     1       2.120   2.994  16.973  0.00  0.00    +0.000 OA
BRANCH  25  27
ATOM     27  O   UNL     1       1.431   3.954  18.932  0.00  0.00    +0.000 OA
BRANCH  27  29
ATOM     28  C   UNL     1       1.068   3.002  21.074  0.00  0.00    +0.000 C 
ATOM     29  C   UNL     1       0.770   2.866  19.591  0.00  0.00    +0.000 C 
ENDBRANCH  27  29
ENDBRANCH  25  27
ENDBRANCH   1  25
BRANCH   7  30
ATOM     30  C   UNL     1       6.145   6.867  16.826  0.00  0.00    +0.000 C 
ATOM     31  O   UNL     1       6.780   7.857  17.169  0.00  0.00    +0.000 OA
BRANCH  30  32
ATOM     32  O   UNL     1       5.937   6.518  15.531  0.00  0.00    +0.000 OA
ATOM     33  C   UNL     1       6.588   5.296  15.161  0.00  0.00    +0.000 C 
ENDBRANCH  30  32
ENDBRANCH   7  30
TORSDOF 9
ENDMDL
MODEL 2
REMARK VINA RESULT:      -8.7      1.680      2.260
REMARK  Name = 
REMARK  13 active torsions:
REMARK  status: ('A' for Active; 'I' for Inactive)
REMARK    1  A    between atoms: C_1  and  C_2
REMARK    2  A    between atoms: C_2  and  O_3
REMARK    3  A    between atoms: O_3  and  C_4
REMARK    4  A    between atoms: C_4  and  C_6
REMARK    5  A    between atoms: C_7  and  C_8
REMARK    6  A    between atoms: C_10  and  C_11
REMARK    7  A    between atoms: C_12  and  C_13
REMARK    8  A    between atoms: C_13  and  O_15
REMARK    9  A    between atoms: O_15  and  C_16
REMARK   10  A    between atoms: C_17  and  C_18
REMARK   11  A    between atoms: C_22  and  O_23
REMARK   12  A    between atoms: O_23  and  C_24
REMARK   13  A    between atoms: C_24  and  C_25
REMARK                            x       y       z     vdW  Elec       q    Type
REMARK                         _______ _______ _______ _____ _____    ______ ____
ROOT
ATOM      1  C   UNL     1       3.590   3.966  18.298  0.00  0.00    +0.000 C 
ATOM      2  C   UNL     1       4.515   3.349  19.073  0.00  0.00    +0.000 C 
ATOM      3  C   UNL     1       4.365   2.024  19.780  0.00  0.00    +0.000 C 
ATOM      4  N   UNL     1       5.760   3.942  19.243  0.00  0.00    +0.000 N 
ATOM      5  C   UNL     1       6.240   4.998  18.485  0.00  0.00    +0.000 C 
ATOM      6  C   UNL     1       7.706   5.307  18.651  0.00  0.00    +0.000 C 
ATOM      7  C   UNL     1       5.399   5.680  17.672  0.00  0.00    +0.000 C 
ATOM      8  C   UNL     1       3.905   5.332  17.665  0.00  0.00    +0.000 C 
ATOM      9  H   UNL     1       6.443   3.418  19.787  0.00  0.00    +0.000 HD
ENDROOT
BRANCH   8  10
ATOM     10  C   UNL     1       3.104   6.427  18.381  0.00  0.00    +0.000 A 
ATOM     11  C   UNL     1       2.839   6.337  19.760  0.00  0.00    +0.000 A 
ATOM     12  C   UNL     1       2.096   7.321  20.406  0.00  0.00    +0.000 A 
ATOM     13  C   UNL     1       1.617   8.408  19.680  0.00  0.00    +0.000 A 
ATOM     14  C   UNL     1       1.888   8.529  18.315  0.00  0.00    +0.000 A 
ATOM     15  C   UNL     1       2.610   7.528  17.664  0.00  0.00    +0.000 A 
BRANCH  14  16
ATOM     16  O   UNL     1       1.377   9.653  17.730  0.00  0.00    +0.000 OA
BRANCH  16  17
ATOM     17  C   UNL     1       0.550  10.488  18.525  0.00  0.00    +0.000 C 
BRANCH  17  18
ATOM     18  C   UNL     1      -0.936  10.547  18.146  0.00  0.00    +0.000 C 
ATOM     19  O   UNL     1      -1.380   9.826  17.248  0.00  0.00    +0.000 OA
ATOM     20  N   UNL     1      -1.741  11.440  18.818  0.00  0.00    +0.000 N 
ATOM     21  C   UNL     1      -1.359  12.389  19.847  0.00  0.00    +0.000 C 
ATOM     22  C   UNL     1      -2.634  12.547  20.657  0.00  0.00    +0.000 C 
ATOM     23  C   UNL     1      -3.732  12.452  19.603  0.00  0.00    +0.000 C 
ATOM     24  C   UNL     1      -3.161  11.524  18.536  0.00  0.00    +0.000 C 
ENDBRANCH  17  18
ENDBRANCH  16  17
ENDBRANCH  14  16
ENDBRANCH   8  10
BRANCH   1  25
ATOM     25  C   UNL     1       2.256   3.370  18.019  0.00  0.00    +0.000 C 
ATOM     26  O   UNL     1       1.964   2.706  17.041  0.00  0.00    +0.000 OA
BRANCH  25  27
ATOM     27  O   UNL     1       1.382   3.784  18.972  0.00  0.00    +0.000 OA
BRANCH  27  29
ATOM     28  C   UNL     1       1.231   3.079  21.231  0.00  0.00    +0.000 C 
ATOM     29  C   UNL     1       0.821   2.761  19.804  0.00  0.00    +0.000 C 
ENDBRANCH  27  29
ENDBRANCH  25  27
ENDBRANCH   1  25
BRANCH   7  30
ATOM     30  C   UNL     1       5.900   6.759  16.770  0.00  0.00    +0.000 C 
ATOM     31  O   UNL     1       6.563   7.722  17.138  0.00  0.00    +0.000 OA
BRANCH  30  32
ATOM     32  O   UNL     1       5.560   6.529  15.477  0.00  0.00    +0.000 OA
ATOM     33  C   UNL     1       6.170   5.354  14.929  0.00  0.00    +0.000 C 
ENDBRANCH  30  32
ENDBRANCH   7  30
TORSDOF 9
ENDMDL
MODEL 3
REMARK VINA RESULT:      -8.5      1.888      2.429
REMARK  Name = 
REMARK  13 active torsions:
REMARK  status: ('A' for Active; 'I' for Inactive)
REMARK    1  A    between atoms: C_1  and  C_2
REMARK    2  A    between atoms: C_2  and  O_3
REMARK    3  A    between atoms: O_3  and  C_4
REMARK    4  A    between atoms: C_4  and  C_6
REMARK    5  A    between atoms: C_7  and  C_8
REMARK    6  A    between atoms: C_10  and  C_11
REMARK    7  A    between atoms: C_12  and  C_13
REMARK    8  A    between atoms: C_13  and  O_15
REMARK    9  A    between atoms: O_15  and  C_16
REMARK   10  A    between atoms: C_17  and  C_18
REMARK   11  A    between atoms: C_22  and  O_23
REMARK   12  A    between atoms: O_23  and  C_24
REMARK   13  A    between atoms: C_24  and  C_25
REMARK                            x       y       z     vdW  Elec       q    Type
REMARK                         _______ _______ _______ _____ _____    ______ ____
ROOT
ATOM      1  C   UNL     1       3.621   3.938  18.248  0.00  0.00    +0.000 C 
ATOM      2  C   UNL     1       4.529   3.327  19.047  0.00  0.00    +0.000 C 
ATOM      3  C   UNL     1       4.346   2.029  19.796  0.00  0.00    +0.000 C 
ATOM      4  N   UNL     1       5.787   3.895  19.202  0.00  0.00    +0.000 N 
ATOM      5  C   UNL     1       6.293   4.915  18.412  0.00  0.00    +0.000 C 
ATOM      6  C   UNL     1       7.765   5.196  18.573  0.00  0.00    +0.000 C 
ATOM      7  C   UNL     1       5.471   5.589  17.572  0.00  0.00    +0.000 C 
ATOM      8  C   UNL     1       3.970   5.275  17.571  0.00  0.00    +0.000 C 
ATOM      9  H   UNL     1       6.455   3.375  19.765  0.00  0.00    +0.000 HD
ENDROOT
BRANCH   8  10
ATOM     10  C   UNL     1       3.192   6.411  18.248  0.00  0.00    +0.000 A 
ATOM     11  C   UNL     1       2.801   6.311  19.595  0.00  0.00    +0.000 A 
ATOM     12  C   UNL     1       2.079   7.334  20.204  0.00  0.00    +0.000 A 
ATOM     13  C   UNL     1       1.747   8.470  19.472  0.00  0.00    +0.000 A 
ATOM     14  C   UNL     1       2.145   8.601  18.139  0.00  0.00    +0.000 A 
ATOM     15  C   UNL     1       2.845   7.562  17.524  0.00  0.00    +0.000 A 
BRANCH  14  16
ATOM     16  O   UNL     1       1.772   9.773  17.545  0.00  0.00    +0.000 OA
BRANCH  16  17
ATOM     17  C   UNL     1       1.966  10.972  18.279  0.00  0.00    +0.000 C 
BRANCH  17  18
ATOM     18  C   UNL     1       0.719  11.823  18.552  0.00  0.00    +0.000 C 
ATOM     19  O   UNL     1      -0.380  11.285  18.714  0.00  0.00    +0.000 OA
ATOM     20  N   UNL     1       0.862  13.192  18.582  0.00  0.00    +0.000 N 
ATOM     21  C   UNL     1       2.065  13.971  18.351  0.00  0.00    +0.000 C 
ATOM     22  C   UNL     1       1.821  15.228  19.167  0.00  0.00    +0.000 C 
ATOM     23  C   UNL     1       0.321  15.456  19.018  0.00  0.00    +0.000 C 
ATOM     24  C   UNL     1      -0.267  14.056  18.868  0.00  0.00    +0.000 C 
ENDBRANCH  17  18
ENDBRANCH  16  17
ENDBRANCH  14  16
ENDBRANCH   8  10
BRANCH   1  25
ATOM     25  C   UNL     1       2.274   3.365  17.983  0.00  0.00    +0.000 C 
ATOM     26  O   UNL     1       1.978   2.650  17.043  0.00  0.00    +0.000 OA
BRANCH  25  27
ATOM     27  O   UNL     1       1.398   3.862  18.894  0.00  0.00    +0.000 OA
BRANCH  27  29
ATOM     28  C   UNL     1       1.300   3.208  21.171  0.00  0.00    +0.000 C 
ATOM     29  C   UNL     1       0.790   2.907  19.773  0.00  0.00    +0.000 C 
ENDBRANCH  27  29
ENDBRANCH  25  27
ENDBRANCH   1  25
BRANCH   7  30
ATOM     30  C   UNL     1       6.000   6.626  16.638  0.00  0.00    +0.000 C 
ATOM     31  O   UNL     1       6.618   7.625  16.984  0.00  0.00    +0.000 OA
BRANCH  30  32
ATOM     32  O   UNL     1       5.743   6.310  15.343  0.00  0.00    +0.000 OA
ATOM     33  C   UNL     1       6.483   5.176  14.877  0.00  0.00    +0.000 C 
ENDBRANCH  30  32
ENDBRANCH   7  30
TORSDOF 9
ENDMDL
MODEL 4
REMARK VINA RESULT:      -8.4      1.884      2.437
REMARK  Name = 
REMARK  13 active torsions:
REMARK  status: ('A' for Active; 'I' for Inactive)
REMARK    1  A    between atoms: C_1  and  C_2
REMARK    2  A    between atoms: C_2  and  O_3
REMARK    3  A    between atoms: O_3  and  C_4
REMARK    4  A    between atoms: C_4  and  C_6
REMARK    5  A    between atoms: C_7  and  C_8
REMARK    6  A    between atoms: C_10  and  C_11
REMARK    7  A    between atoms: C_12  and  C_13
REMARK    8  A    between atoms: C_13  and  O_15
REMARK    9  A    between atoms: O_15  and  C_16
REMARK   10  A    between atoms: C_17  and  C_18
REMARK   11  A    between atoms: C_22  and  O_23
REMARK   12  A    between atoms: O_23  and  C_24
REMARK   13  A    between atoms: C_24  and  C_25
REMARK                            x       y       z     vdW  Elec       q    Type
REMARK                         _______ _______ _______ _____ _____    ______ ____
ROOT
ATOM      1  C   UNL     1       3.566   3.986  18.320  0.00  0.00    +0.000 C 
ATOM      2  C   UNL     1       4.503   3.371  19.082  0.00  0.00    +0.000 C 
ATOM      3  C   UNL     1       4.362   2.050  19.798  0.00  0.00    +0.000 C 
ATOM      4  N   UNL     1       5.752   3.961  19.226  0.00  0.00    +0.000 N 
ATOM      5  C   UNL     1       6.221   5.012  18.454  0.00  0.00    +0.000 C 
ATOM      6  C   UNL     1       7.690   5.319  18.592  0.00  0.00    +0.000 C 
ATOM      7  C   UNL     1       5.367   5.693  17.652  0.00  0.00    +0.000 C 
ATOM      8  C   UNL     1       3.873   5.348  17.674  0.00  0.00    +0.000 C 
ATOM      9  H   UNL     1       6.443   3.439  19.760  0.00  0.00    +0.000 HD
ENDROOT
BRANCH   8  10
ATOM     10  C   UNL     1       3.087   6.449  18.400  0.00  0.00    +0.000 A 
ATOM     11  C   UNL     1       2.781   6.330  19.767  0.00  0.00    +0.000 A 
ATOM     12  C   UNL     1       2.052   7.320  20.421  0.00  0.00    +0.000 A 
ATOM     13  C   UNL     1       1.628   8.441  19.713  0.00  0.00    +0.000 A 
ATOM     14  C   UNL     1       1.941   8.590  18.359  0.00  0.00    +0.000 A 
ATOM     15  C   UNL     1       2.648   7.584  17.701  0.00  0.00    +0.000 A 
BRANCH  14  16
ATOM     16  O   UNL     1       1.482   9.745  17.793  0.00  0.00    +0.000 OA
BRANCH  16  17
ATOM     17  C   UNL     1       1.114  10.803  18.664  0.00  0.00    +0.000 C 
BRANCH  17  18
ATOM     18  C   UNL     1       1.837  12.142  18.467  0.00  0.00    +0.000 C 
ATOM     19  O   UNL     1       2.934  12.180  17.903  0.00  0.00    +0.000 OA
ATOM     20  N   UNL     1       1.239  13.280  18.959  0.00  0.00    +0.000 N 
ATOM     21  C   UNL     1      -0.009  13.390  19.692  0.00  0.00    +0.000 C 
ATOM     22  C   UNL     1      -0.485  14.790  19.349  0.00  0.00    +0.000 C 
ATOM     23  C   UNL     1       0.810  15.589  19.262  0.00  0.00    +0.000 C 
ATOM     24  C   UNL     1       1.849  14.583  18.778  0.00  0.00    +0.000 C 
ENDBRANCH  17  18
ENDBRANCH  16  17
ENDBRANCH  14  16
ENDBRANCH   8  10
BRANCH   1  25
ATOM     25  C   UNL     1       2.225   3.392  18.069  0.00  0.00    +0.000 C 
ATOM     26  O   UNL     1       1.922   2.699  17.114  0.00  0.00    +0.000 OA
BRANCH  25  27
ATOM     27  O   UNL     1       1.360   3.843  19.013  0.00  0.00    +0.000 OA
BRANCH  27  29
ATOM     28  C   UNL     1       1.331   3.097  21.264  0.00  0.00    +0.000 C 
ATOM     29  C   UNL     1       0.784   2.849  19.870  0.00  0.00    +0.000 C 
ENDBRANCH  27  29
ENDBRANCH  25  27
ENDBRANCH   1  25
BRANCH   7  30
ATOM     30  C   UNL     1       5.854   6.766  16.737  0.00  0.00    +0.000 C 
ATOM     31  O   UNL     1       6.496   7.747  17.092  0.00  0.00    +0.000 OA
BRANCH  30  32
ATOM     32  O   UNL     1       5.529   6.507  15.444  0.00  0.00    +0.000 OA
ATOM     33  C   UNL     1       6.142   5.318  14.931  0.00  0.00    +0.000 C 
ENDBRANCH  30  32
ENDBRANCH   7  30
TORSDOF 9
ENDMDL
MODEL 5
REMARK VINA RESULT:      -8.3      1.605      1.985
REMARK  Name = 
REMARK  13 active torsions:
REMARK  status: ('A' for Active; 'I' for Inactive)
REMARK    1  A    between atoms: C_1  and  C_2
REMARK    2  A    between atoms: C_2  and  O_3
REMARK    3  A    between atoms: O_3  and  C_4
REMARK    4  A    between atoms: C_4  and  C_6
REMARK    5  A    between atoms: C_7  and  C_8
REMARK    6  A    between atoms: C_10  and  C_11
REMARK    7  A    between atoms: C_12  and  C_13
REMARK    8  A    between atoms: C_13  and  O_15
REMARK    9  A    between atoms: O_15  and  C_16
REMARK   10  A    between atoms: C_17  and  C_18
REMARK   11  A    between atoms: C_22  and  O_23
REMARK   12  A    between atoms: O_23  and  C_24
REMARK   13  A    between atoms: C_24  and  C_25
REMARK                            x       y       z     vdW  Elec       q    Type
REMARK                         _______ _______ _______ _____ _____    ______ ____
ROOT
ATOM      1  C   UNL     1       3.609   3.891  18.206  0.00  0.00    +0.000 C 
ATOM      2  C   UNL     1       4.519   3.262  18.989  0.00  0.00    +0.000 C 
ATOM      3  C   UNL     1       4.336   1.949  19.712  0.00  0.00    +0.000 C 
ATOM      4  N   UNL     1       5.779   3.824  19.150  0.00  0.00    +0.000 N 
ATOM      5  C   UNL     1       6.284   4.858  18.378  0.00  0.00    +0.000 C 
ATOM      6  C   UNL     1       7.758   5.132  18.539  0.00  0.00    +0.000 C 
ATOM      7  C   UNL     1       5.460   5.551  17.556  0.00  0.00    +0.000 C 
ATOM      8  C   UNL     1       3.958   5.241  17.555  0.00  0.00    +0.000 C 
ATOM      9  H   UNL     1       6.449   3.291  19.699  0.00  0.00    +0.000 HD
ENDROOT
BRANCH   8  10
ATOM     10  C   UNL     1       3.186   6.365  18.259  0.00  0.00    +0.000 A 
ATOM     11  C   UNL     1       2.859   6.267  19.623  0.00  0.00    +0.000 A 
ATOM     12  C   UNL     1       2.142   7.278  20.256  0.00  0.00    +0.000 A 
ATOM     13  C   UNL     1       1.751   8.401  19.532  0.00  0.00    +0.000 A 
ATOM     14  C   UNL     1       2.085   8.529  18.181  0.00  0.00    +0.000 A 
ATOM     15  C   UNL     1       2.780   7.502  17.542  0.00  0.00    +0.000 A 
BRANCH  14  16
ATOM     16  O   UNL     1       1.658   9.688  17.597  0.00  0.00    +0.000 OA
BRANCH  16  17
ATOM     17  C   UNL     1       0.614  10.401  18.239  0.00  0.00    +0.000 C 
BRANCH  17  18
ATOM     18  C   UNL     1       0.973  11.775  18.821  0.00  0.00    +0.000 C 
ATOM     19  O   UNL     1       2.005  12.352  18.465  0.00  0.00    +0.000 OA
ATOM     20  N   UNL     1       0.129  12.322  19.760  0.00  0.00    +0.000 N 
ATOM     21  C   UNL     1      -1.079  11.746  20.321  0.00  0.00    +0.000 C 
ATOM     22  C   UNL     1      -1.902  12.967  20.691  0.00  0.00    +0.000 C 
ATOM     23  C   UNL     1      -0.850  13.972  21.148  0.00  0.00    +0.000 C 
ATOM     24  C   UNL     1       0.389  13.632  20.326  0.00  0.00    +0.000 C 
ENDBRANCH  17  18
ENDBRANCH  16  17
ENDBRANCH  14  16
ENDBRANCH   8  10
BRANCH   1  25
ATOM     25  C   UNL     1       2.260   3.326  17.936  0.00  0.00    +0.000 C 
ATOM     26  O   UNL     1       1.965   2.606  16.999  0.00  0.00    +0.000 OA
BRANCH  25  27
ATOM     27  O   UNL     1       1.381   3.838  18.836  0.00  0.00    +0.000 OA
BRANCH  27  29
ATOM     28  C   UNL     1       1.319   3.209  21.122  0.00  0.00    +0.000 C 
ATOM     29  C   UNL     1       0.780   2.898  19.737  0.00  0.00    +0.000 C 
ENDBRANCH  27  29
ENDBRANCH  25  27
ENDBRANCH   1  25
BRANCH   7  30
ATOM     30  C   UNL     1       5.987   6.605  16.641  0.00  0.00    +0.000 C 
ATOM     31  O   UNL     1       6.610   7.595  17.004  0.00  0.00    +0.000 OA
BRANCH  30  32
ATOM     32  O   UNL     1       5.722   6.318  15.341  0.00  0.00    +0.000 OA
ATOM     33  C   UNL     1       6.511   5.239  14.826  0.00  0.00    +0.000 C 
ENDBRANCH  30  32
ENDBRANCH   7  30
TORSDOF 9
ENDMDL
MODEL 6
REMARK VINA RESULT:      -8.3      1.711      2.237
REMARK  Name = 
REMARK  13 active torsions:
REMARK  status: ('A' for Active; 'I' for Inactive)
REMARK    1  A    between atoms: C_1  and  C_2
REMARK    2  A    between atoms: C_2  and  O_3
REMARK    3  A    between atoms: O_3  and  C_4
REMARK    4  A    between atoms: C_4  and  C_6
REMARK    5  A    between atoms: C_7  and  C_8
REMARK    6  A    between atoms: C_10  and  C_11
REMARK    7  A    between atoms: C_12  and  C_13
REMARK    8  A    between atoms: C_13  and  O_15
REMARK    9  A    between atoms: O_15  and  C_16
REMARK   10  A    between atoms: C_17  and  C_18
REMARK   11  A    between atoms: C_22  and  O_23
REMARK   12  A    between atoms: O_23  and  C_24
REMARK   13  A    between atoms: C_24  and  C_25
REMARK                            x       y       z     vdW  Elec       q    Type
REMARK                         _______ _______ _______ _____ _____    ______ ____
ROOT
ATOM      1  C   UNL     1       3.566   3.934  18.295  0.00  0.00    +0.000 C 
ATOM      2  C   UNL     1       4.508   3.318  19.050  0.00  0.00    +0.000 C 
ATOM      3  C   UNL     1       4.377   1.988  19.752  0.00  0.00    +0.000 C 
ATOM      4  N   UNL     1       5.753   3.915  19.200  0.00  0.00    +0.000 N 
ATOM      5  C   UNL     1       6.214   4.978  18.439  0.00  0.00    +0.000 C 
ATOM      6  C   UNL     1       7.681   5.293  18.579  0.00  0.00    +0.000 C 
ATOM      7  C   UNL     1       5.355   5.661  17.645  0.00  0.00    +0.000 C 
ATOM      8  C   UNL     1       3.863   5.305  17.664  0.00  0.00    +0.000 C 
ATOM      9  H   UNL     1       6.448   3.392  19.728  0.00  0.00    +0.000 HD
ENDROOT
BRANCH   8  10
ATOM     10  C   UNL     1       3.070   6.393  18.401  0.00  0.00    +0.000 A 
ATOM     11  C   UNL     1       2.856   6.309  19.788  0.00  0.00    +0.000 A 
ATOM     12  C   UNL     1       2.121   7.286  20.454  0.00  0.00    +0.000 A 
ATOM     13  C   UNL     1       1.599   8.360  19.738  0.00  0.00    +0.000 A 
ATOM     14  C   UNL     1       1.819   8.474  18.363  0.00  0.00    +0.000 A 
ATOM     15  C   UNL     1       2.533   7.480  17.694  0.00  0.00    +0.000 A 
BRANCH  14  16
ATOM     16  O   UNL     1       1.269   9.585  17.789  0.00  0.00    +0.000 OA
BRANCH  16  17
ATOM     17  C   UNL     1       1.444  10.825  18.458  0.00  0.00    +0.000 C 
BRANCH  17  18
ATOM     18  C   UNL     1       0.180  11.489  19.019  0.00  0.00    +0.000 C 
ATOM     19  O   UNL     1       0.262  12.307  19.940  0.00  0.00    +0.000 OA
ATOM     20  N   UNL     1      -1.035  11.126  18.484  0.00  0.00    +0.000 N 
ATOM     21  C   UNL     1      -1.300  10.143  17.449  0.00  0.00    +0.000 C 
ATOM     22  C   UNL     1      -2.578  10.655  16.810  0.00  0.00    +0.000 C 
ATOM     23  C   UNL     1      -3.348  11.242  17.987  0.00  0.00    +0.000 C 
ATOM     24  C   UNL     1      -2.267  11.739  18.942  0.00  0.00    +0.000 C 
ENDBRANCH  17  18
ENDBRANCH  16  17
ENDBRANCH  14  16
ENDBRANCH   8  10
BRANCH   1  25
ATOM     25  C   UNL     1       2.230   3.334  18.038  0.00  0.00    +0.000 C 
ATOM     26  O   UNL     1       1.936   2.633  17.086  0.00  0.00    +0.000 OA
BRANCH  25  27
ATOM     27  O   UNL     1       1.356   3.789  18.973  0.00  0.00    +0.000 OA
BRANCH  27  29
ATOM     28  C   UNL     1       1.327   3.155  21.258  0.00  0.00    +0.000 C 
ATOM     29  C   UNL     1       0.821   2.806  19.869  0.00  0.00    +0.000 C 
ENDBRANCH  27  29
ENDBRANCH  25  27
ENDBRANCH   1  25
BRANCH   7  30
ATOM     30  C   UNL     1       5.834   6.746  16.740  0.00  0.00    +0.000 C 
ATOM     31  O   UNL     1       6.478   7.723  17.104  0.00  0.00    +0.000 OA
BRANCH  30  32
ATOM     32  O   UNL     1       5.500   6.505  15.447  0.00  0.00    +0.000 OA
ATOM     33  C   UNL     1       6.109   5.324  14.914  0.00  0.00    +0.000 C 
ENDBRANCH  30  32
ENDBRANCH   7  30
TORSDOF 9
ENDMDL
MODEL 7
REMARK VINA RESULT:      -8.2      2.116      2.717
REMARK  Name = 
REMARK  13 active torsions:
REMARK  status: ('A' for Active; 'I' for Inactive)
REMARK    1  A    between atoms: C_1  and  C_2
REMARK    2  A    between atoms: C_2  and  O_3
REMARK    3  A    between atoms: O_3  and  C_4
REMARK    4  A    between atoms: C_4  and  C_6
REMARK    5  A    between atoms: C_7  and  C_8
REMARK    6  A    between atoms: C_10  and  C_11
REMARK    7  A    between atoms: C_12  and  C_13
REMARK    8  A    between atoms: C_13  and  O_15
REMARK    9  A    between atoms: O_15  and  C_16
REMARK   10  A    between atoms: C_17  and  C_18
REMARK   11  A    between atoms: C_22  and  O_23
REMARK   12  A    between atoms: O_23  and  C_24
REMARK   13  A    between atoms: C_24  and  C_25
REMARK                            x       y       z     vdW  Elec       q    Type
REMARK                         _______ _______ _______ _____ _____    ______ ____
ROOT
ATOM      1  C   UNL     1       3.375   3.885  18.144  0.00  0.00    +0.000 C 
ATOM      2  C   UNL     1       4.306   3.130  18.776  0.00  0.00    +0.000 C 
ATOM      3  C   UNL     1       4.122   1.731  19.313  0.00  0.00    +0.000 C 
ATOM      4  N   UNL     1       5.588   3.636  18.944  0.00  0.00    +0.000 N 
ATOM      5  C   UNL     1       6.082   4.759  18.301  0.00  0.00    +0.000 C 
ATOM      6  C   UNL     1       7.570   4.975  18.416  0.00  0.00    +0.000 C 
ATOM      7  C   UNL     1       5.236   5.581  17.634  0.00  0.00    +0.000 C 
ATOM      8  C   UNL     1       3.728   5.307  17.673  0.00  0.00    +0.000 C 
ATOM      9  H   UNL     1       6.270   3.014  19.373  0.00  0.00    +0.000 HD
ENDROOT
BRANCH   8  10
ATOM     10  C   UNL     1       3.027   6.334  18.572  0.00  0.00    +0.000 A 
ATOM     11  C   UNL     1       2.808   6.064  19.935  0.00  0.00    +0.000 A 
ATOM     12  C   UNL     1       2.155   6.988  20.746  0.00  0.00    +0.000 A 
ATOM     13  C   UNL     1       1.722   8.195  20.203  0.00  0.00    +0.000 A 
ATOM     14  C   UNL     1       1.951   8.493  18.857  0.00  0.00    +0.000 A 
ATOM     15  C   UNL     1       2.581   7.553  18.040  0.00  0.00    +0.000 A 
BRANCH  14  16
ATOM     16  O   UNL     1       1.493   9.717  18.459  0.00  0.00    +0.000 OA
BRANCH  16  17
ATOM     17  C   UNL     1       0.259   9.763  17.761  0.00  0.00    +0.000 C 
BRANCH  17  18
ATOM     18  C   UNL     1      -0.869  10.577  18.407  0.00  0.00    +0.000 C 
ATOM     19  O   UNL     1      -0.699  11.117  19.504  0.00  0.00    +0.000 OA
ATOM     20  N   UNL     1      -2.071  10.662  17.741  0.00  0.00    +0.000 N 
ATOM     21  C   UNL     1      -2.443  10.039  16.484  0.00  0.00    +0.000 C 
ATOM     22  C   UNL     1      -3.491  10.987  15.930  0.00  0.00    +0.000 C 
ATOM     23  C   UNL     1      -4.226  11.465  17.177  0.00  0.00    +0.000 C 
ATOM     24  C   UNL     1      -3.169  11.444  18.276  0.00  0.00    +0.000 C 
ENDBRANCH  17  18
ENDBRANCH  16  17
ENDBRANCH  14  16
ENDBRANCH   8  10
BRANCH   1  25
ATOM     25  C   UNL     1       1.997   3.394  17.872  0.00  0.00    +0.000 C 
ATOM     26  O   UNL     1       1.238   3.837  17.028  0.00  0.00    +0.000 OA
BRANCH  25  27
ATOM     27  O   UNL     1       1.676   2.452  18.795  0.00  0.00    +0.000 OA
BRANCH  27  29
ATOM     28  C   UNL     1       1.198   3.094  21.027  0.00  0.00    +0.000 C 
ATOM     29  C   UNL     1       0.589   2.771  19.674  0.00  0.00    +0.000 C 
ENDBRANCH  27  29
ENDBRANCH  25  27
ENDBRANCH   1  25
BRANCH   7  30
ATOM     30  C   UNL     1       5.746   6.745  16.851  0.00  0.00    +0.000 C 
ATOM     31  O   UNL     1       5.764   6.806  15.627  0.00  0.00    +0.000 OA
BRANCH  30  32
ATOM     32  O   UNL     1       6.159   7.752  17.661  0.00  0.00    +0.000 OA
ATOM     33  C   UNL     1       7.511   8.157  17.420  0.00  0.00    +0.000 C 
ENDBRANCH  30  32
ENDBRANCH   7  30
TORSDOF 9
ENDMDL
MODEL 8
REMARK VINA RESULT:      -8.2      1.911      2.289
REMARK  Name = 
REMARK  13 active torsions:
REMARK  status: ('A' for Active; 'I' for Inactive)
REMARK    1  A    between atoms: C_1  and  C_2
REMARK    2  A    between atoms: C_2  and  O_3
REMARK    3  A    between atoms: O_3  and  C_4
REMARK    4  A    between atoms: C_4  and  C_6
REMARK    5  A    between atoms: C_7  and  C_8
REMARK    6  A    between atoms: C_10  and  C_11
REMARK    7  A    between atoms: C_12  and  C_13
REMARK    8  A    between atoms: C_13  and  O_15
REMARK    9  A    between atoms: O_15  and  C_16
REMARK   10  A    between atoms: C_17  and  C_18
REMARK   11  A    between atoms: C_22  and  O_23
REMARK   12  A    between atoms: O_23  and  C_24
REMARK   13  A    between atoms: C_24  and  C_25
REMARK                            x       y       z     vdW  Elec       q    Type
REMARK                         _______ _______ _______ _____ _____    ______ ____
ROOT
ATOM      1  C   UNL     1       3.567   3.950  18.331  0.00  0.00    +0.000 C 
ATOM      2  C   UNL     1       4.505   3.311  19.072  0.00  0.00    +0.000 C 
ATOM      3  C   UNL     1       4.356   1.978  19.764  0.00  0.00    +0.000 C 
ATOM      4  N   UNL     1       5.762   3.884  19.215  0.00  0.00    +0.000 N 
ATOM      5  C   UNL     1       6.235   4.944  18.458  0.00  0.00    +0.000 C 
ATOM      6  C   UNL     1       7.709   5.232  18.588  0.00  0.00    +0.000 C 
ATOM      7  C   UNL     1       5.381   5.649  17.678  0.00  0.00    +0.000 C 
ATOM      8  C   UNL     1       3.883   5.321  17.708  0.00  0.00    +0.000 C 
ATOM      9  H   UNL     1       6.452   3.344  19.732  0.00  0.00    +0.000 HD
ENDROOT
BRANCH   8  10
ATOM     10  C   UNL     1       3.117   6.416  18.462  0.00  0.00    +0.000 A 
ATOM     11  C   UNL     1       2.691   6.213  19.787  0.00  0.00    +0.000 A 
ATOM     12  C   UNL     1       1.980   7.199  20.464  0.00  0.00    +0.000 A 
ATOM     13  C   UNL     1       1.695   8.402  19.824  0.00  0.00    +0.000 A 
ATOM     14  C   UNL     1       2.129   8.634  18.516  0.00  0.00    +0.000 A 
ATOM     15  C   UNL     1       2.818   7.634  17.831  0.00  0.00    +0.000 A 
BRANCH  14  16
ATOM     16  O   UNL     1       1.799   9.863  18.017  0.00  0.00    +0.000 OA
BRANCH  16  17
ATOM     17  C   UNL     1       0.751  10.573  18.657  0.00  0.00    +0.000 C 
BRANCH  17  18
ATOM     18  C   UNL     1       1.161  11.569  19.750  0.00  0.00    +0.000 C 
ATOM     19  O   UNL     1       0.878  11.349  20.931  0.00  0.00    +0.000 OA
ATOM     20  N   UNL     1       1.823  12.714  19.368  0.00  0.00    +0.000 N 
ATOM     21  C   UNL     1       2.170  13.140  18.025  0.00  0.00    +0.000 C 
ATOM     22  C   UNL     1       3.408  13.992  18.246  0.00  0.00    +0.000 C 
ATOM     23  C   UNL     1       3.127  14.679  19.577  0.00  0.00    +0.000 C 
ATOM     24  C   UNL     1       2.271  13.681  20.351  0.00  0.00    +0.000 C 
ENDBRANCH  17  18
ENDBRANCH  16  17
ENDBRANCH  14  16
ENDBRANCH   8  10
BRANCH   1  25
ATOM     25  C   UNL     1       2.218   3.377  18.082  0.00  0.00    +0.000 C 
ATOM     26  O   UNL     1       1.880   2.760  17.087  0.00  0.00    +0.000 OA
BRANCH  25  27
ATOM     27  O   UNL     1       1.387   3.752  19.089  0.00  0.00    +0.000 OA
BRANCH  27  29
ATOM     28  C   UNL     1       1.248   3.001  21.334  0.00  0.00    +0.000 C 
ATOM     29  C   UNL     1       0.858   2.694  19.899  0.00  0.00    +0.000 C 
ENDBRANCH  27  29
ENDBRANCH  25  27
ENDBRANCH   1  25
BRANCH   7  30
ATOM     30  C   UNL     1       5.872   6.734  16.778  0.00  0.00    +0.000 C 
ATOM     31  O   UNL     1       6.535   7.696  17.144  0.00  0.00    +0.000 OA
BRANCH  30  32
ATOM     32  O   UNL     1       5.522   6.509  15.486  0.00  0.00    +0.000 OA
ATOM     33  C   UNL     1       6.171   5.367  14.913  0.00  0.00    +0.000 C 
ENDBRANCH  30  32
ENDBRANCH   7  30
TORSDOF 9
ENDMDL
MODEL 9
REMARK VINA RESULT:      -8.0      1.473      2.119
REMARK  Name = 
REMARK  13 active torsions:
REMARK  status: ('A' for Active; 'I' for Inactive)
REMARK    1  A    between atoms: C_1  and  C_2
REMARK    2  A    between atoms: C_2  and  O_3
REMARK    3  A    between atoms: O_3  and  C_4
REMARK    4  A    between atoms: C_4  and  C_6
REMARK    5  A    between atoms: C_7  and  C_8
REMARK    6  A    between atoms: C_10  and  C_11
REMARK    7  A    between atoms: C_12  and  C_13
REMARK    8  A    between atoms: C_13  and  O_15
REMARK    9  A    between atoms: O_15  and  C_16
REMARK   10  A    between atoms: C_17  and  C_18
REMARK   11  A    between atoms: C_22  and  O_23
REMARK   12  A    between atoms: O_23  and  C_24
REMARK   13  A    between atoms: C_24  and  C_25
REMARK                            x       y       z     vdW  Elec       q    Type
REMARK                         _______ _______ _______ _____ _____    ______ ____
ROOT
ATOM      1  C   UNL     1       3.361   3.905  18.200  0.00  0.00    +0.000 C 
ATOM      2  C   UNL     1       4.301   3.175  18.847  0.00  0.00    +0.000 C 
ATOM      3  C   UNL     1       4.129   1.793  19.431  0.00  0.00    +0.000 C 
ATOM      4  N   UNL     1       5.583   3.691  18.987  0.00  0.00    +0.000 N 
ATOM      5  C   UNL     1       6.066   4.795  18.303  0.00  0.00    +0.000 C 
ATOM      6  C   UNL     1       7.553   5.022  18.398  0.00  0.00    +0.000 C 
ATOM      7  C   UNL     1       5.210   5.592  17.619  0.00  0.00    +0.000 C 
ATOM      8  C   UNL     1       3.704   5.312  17.681  0.00  0.00    +0.000 C 
ATOM      9  H   UNL     1       6.271   3.087  19.430  0.00  0.00    +0.000 HD
ENDROOT
BRANCH   8  10
ATOM     10  C   UNL     1       3.006   6.365  18.552  0.00  0.00    +0.000 A 
ATOM     11  C   UNL     1       2.760   6.120  19.915  0.00  0.00    +0.000 A 
ATOM     12  C   UNL     1       2.111   7.067  20.701  0.00  0.00    +0.000 A 
ATOM     13  C   UNL     1       1.708   8.272  20.133  0.00  0.00    +0.000 A 
ATOM     14  C   UNL     1       1.963   8.546  18.787  0.00  0.00    +0.000 A 
ATOM     15  C   UNL     1       2.590   7.583  17.995  0.00  0.00    +0.000 A 
BRANCH  14  16
ATOM     16  O   UNL     1       1.534   9.772  18.363  0.00  0.00    +0.000 OA
BRANCH  16  17
ATOM     17  C   UNL     1       0.227  10.177  18.742  0.00  0.00    +0.000 C 
BRANCH  17  18
ATOM     18  C   UNL     1       0.078  11.606  19.279  0.00  0.00    +0.000 C 
ATOM     19  O   UNL     1       0.216  12.573  18.525  0.00  0.00    +0.000 OA
ATOM     20  N   UNL     1      -0.187  11.770  20.620  0.00  0.00    +0.000 N 
ATOM     21  C   UNL     1      -0.316  10.744  21.638  0.00  0.00    +0.000 C 
ATOM     22  C   UNL     1      -1.249  11.383  22.651  0.00  0.00    +0.000 C 
ATOM     23  C   UNL     1      -0.847  12.853  22.620  0.00  0.00    +0.000 C 
ATOM     24  C   UNL     1      -0.375  13.091  21.189  0.00  0.00    +0.000 C 
ENDBRANCH  17  18
ENDBRANCH  16  17
ENDBRANCH  14  16
ENDBRANCH   8  10
BRANCH   1  25
ATOM     25  C   UNL     1       1.983   3.400  17.957  0.00  0.00    +0.000 C 
ATOM     26  O   UNL     1       1.253   3.737  17.043  0.00  0.00    +0.000 OA
BRANCH  25  27
ATOM     27  O   UNL     1       1.624   2.589  18.986  0.00  0.00    +0.000 OA
BRANCH  27  29
ATOM     28  C   UNL     1       1.306   2.850  21.321  0.00  0.00    +0.000 C 
ATOM     29  C   UNL     1       0.726   3.152  19.951  0.00  0.00    +0.000 C 
ENDBRANCH  27  29
ENDBRANCH  25  27
ENDBRANCH   1  25
BRANCH   7  30
ATOM     30  C   UNL     1       5.707   6.731  16.793  0.00  0.00    +0.000 C 
ATOM     31  O   UNL     1       5.734   6.744  15.568  0.00  0.00    +0.000 OA
BRANCH  30  32
ATOM     32  O   UNL     1       6.097   7.777  17.566  0.00  0.00    +0.000 OA
ATOM     33  C   UNL     1       7.478   8.118  17.404  0.00  0.00    +0.000 C 
ENDBRANCH  30  32
ENDBRANCH   7  30
TORSDOF 9
ENDMDL
