MODEL 1
REMARK VINA RESULT:      -7.9      0.000      0.000
REMARK  Name = 
REMARK  7 active torsions:
REMARK  status: ('A' for Active; 'I' for Inactive)
REMARK    1  A    between atoms: C_1  and  C_2
REMARK    2  A    between atoms: C_2  and  O_3
REMARK    3  A    between atoms: O_3  and  C_4
REMARK    4  A    between atoms: C_4  and  C_6
REMARK    5  A    between atoms: C_9  and  N_10
REMARK    6  A    between atoms: N_16  and  C_17
REMARK    7  A    between atoms: C_22  and  C_23
REMARK                            x       y       z     vdW  Elec       q    Type
REMARK                         _______ _______ _______ _____ _____    ______ ____
ROOT
ATOM      1  N   UNL     1       2.611   7.385  18.475  0.00  0.00    +0.000 N 
ATOM      2  C   UNL     1       1.955   7.020  19.738  0.00  0.00    +0.000 C 
ATOM      3  C   UNL     1       1.676   8.334  20.515  0.00  0.00    +0.000 C 
ATOM      4  N   UNL     1       0.976   9.334  19.679  0.00  0.00    +0.000 N 
ATOM      5  C   UNL     1      -0.078  10.046  20.219  0.00  0.00    +0.000 C 
ATOM      6  O   UNL     1      -0.405   9.918  21.400  0.00  0.00    +0.000 OA
ATOM      7  N   UNL     1      -0.760  10.839  19.321  0.00  0.00    +0.000 N 
ATOM      8  C   UNL     1       1.612   9.585  18.373  0.00  0.00    +0.000 C 
ATOM      9  C   UNL     1       1.792   8.256  17.624  0.00  0.00    +0.000 C 
ATOM     10  H   UNL     1      -0.816  10.446  18.396  0.00  0.00    +0.000 HD
ENDROOT
BRANCH   1  14
ATOM     11  C   UNL     1       5.633   5.048  16.836  0.00  0.00    +0.000 A 
ATOM     12  C   UNL     1       5.768   6.403  17.084  0.00  0.00    +0.000 A 
ATOM     13  N   UNL     1       4.781   7.183  17.607  0.00  0.00    +0.000 NA
ATOM     14  C   UNL     1       3.591   6.602  17.909  0.00  0.00    +0.000 A 
ATOM     15  C   UNL     1       3.373   5.237  17.615  0.00  0.00    +0.000 A 
ATOM     16 CL   UNL     1       1.829   4.458  17.751  0.00  0.00    +0.000 Cl
ATOM     17  C   UNL     1       4.402   4.460  17.096  0.00  0.00    +0.000 A 
BRANCH  11  18
ATOM     18  C   UNL     1       6.748   4.302  16.220  0.00  0.00    +0.000 C 
ATOM     19  O   UNL     1       7.906   4.371  16.613  0.00  0.00    +0.000 OA
BRANCH  18  20
ATOM     20  O   UNL     1       6.302   3.641  15.123  0.00  0.00    +0.000 OA
BRANCH  20  22
ATOM     21  C   UNL     1       5.722   3.641  12.812  0.00  0.00    +0.000 C 
ATOM     22  C   UNL     1       6.642   4.232  13.863  0.00  0.00    +0.000 C 
ENDBRANCH  20  22
ENDBRANCH  18  20
ENDBRANCH  11  18
ENDBRANCH   1  14
BRANCH   7  23
ATOM     23  C   UNL     1      -1.863  11.634  19.708  0.00  0.00    +0.000 A 
ATOM     24  C   UNL     1      -1.743  12.513  20.792  0.00  0.00    +0.000 A 
ATOM     25  C   UNL     1      -2.810  13.332  21.157  0.00  0.00    +0.000 A 
ATOM     26  C   UNL     1      -4.002  13.281  20.442  0.00  0.00    +0.000 A 
ATOM     27  C   UNL     1      -4.133  12.402  19.367  0.00  0.00    +0.000 A 
ATOM     28  C   UNL     1      -3.070  11.563  18.991  0.00  0.00    +0.000 A 
ATOM     29  C   UNL     1      -3.290  10.556  17.896  0.00  0.00    +0.000 C 
ENDBRANCH   7  23
TORSDOF 5
ENDMDL
MODEL 2
REMARK VINA RESULT:      -7.5      0.491      1.374
REMARK  Name = 
REMARK  7 active torsions:
REMARK  status: ('A' for Active; 'I' for Inactive)
REMARK    1  A    between atoms: C_1  and  C_2
REMARK    2  A    between atoms: C_2  and  O_3
REMARK    3  A    between atoms: O_3  and  C_4
REMARK    4  A    between atoms: C_4  and  C_6
REMARK    5  A    between atoms: C_9  and  N_10
REMARK    6  A    between atoms: N_16  and  C_17
REMARK    7  A    between atoms: C_22  and  C_23
REMARK                            x       y       z     vdW  Elec       q    Type
REMARK                         _______ _______ _______ _____ _____    ______ ____
ROOT
ATOM      1  N   UNL     1       2.632   7.527  18.436  0.00  0.00    +0.000 N 
ATOM      2  C   UNL     1       1.865   7.116  19.620  0.00  0.00    +0.000 C 
ATOM      3  C   UNL     1       1.618   8.385  20.480  0.00  0.00    +0.000 C 
ATOM      4  N   UNL     1       1.046   9.491  19.681  0.00  0.00    +0.000 N 
ATOM      5  C   UNL     1       0.005  10.233  20.207  0.00  0.00    +0.000 C 
ATOM      6  O   UNL     1      -0.411  10.041  21.349  0.00  0.00    +0.000 OA
ATOM      7  N   UNL     1      -0.558  11.138  19.331  0.00  0.00    +0.000 N 
ATOM      8  C   UNL     1       1.788   9.794  18.444  0.00  0.00    +0.000 C 
ATOM      9  C   UNL     1       1.933   8.515  17.605  0.00  0.00    +0.000 C 
ATOM     10  H   UNL     1      -0.574  10.820  18.377  0.00  0.00    +0.000 HD
ENDROOT
BRANCH   1  14
ATOM     11  C   UNL     1       5.606   5.121  16.810  0.00  0.00    +0.000 A 
ATOM     12  C   UNL     1       5.766   6.475  17.046  0.00  0.00    +0.000 A 
ATOM     13  N   UNL     1       4.795   7.277  17.564  0.00  0.00    +0.000 NA
ATOM     14  C   UNL     1       3.595   6.721  17.874  0.00  0.00    +0.000 A 
ATOM     15  C   UNL     1       3.352   5.358  17.593  0.00  0.00    +0.000 A 
ATOM     16 CL   UNL     1       1.794   4.609  17.740  0.00  0.00    +0.000 Cl
ATOM     17  C   UNL     1       4.365   4.558  17.079  0.00  0.00    +0.000 A 
BRANCH  11  18
ATOM     18  C   UNL     1       6.705   4.350  16.198  0.00  0.00    +0.000 C 
ATOM     19  O   UNL     1       7.859   4.373  16.611  0.00  0.00    +0.000 OA
BRANCH  18  20
ATOM     20  O   UNL     1       6.257   3.723  15.084  0.00  0.00    +0.000 OA
BRANCH  20  22
ATOM     21  C   UNL     1       6.084   3.458  12.722  0.00  0.00    +0.000 C 
ATOM     22  C   UNL     1       6.678   4.294  13.839  0.00  0.00    +0.000 C 
ENDBRANCH  20  22
ENDBRANCH  18  20
ENDBRANCH  11  18
ENDBRANCH   1  14
BRANCH   7  23
ATOM     23  C   UNL     1      -1.631  11.978  19.708  0.00  0.00    +0.000 A 
ATOM     24  C   UNL     1      -2.941  11.642  19.342  0.00  0.00    +0.000 A 
ATOM     25  C   UNL     1      -4.011  12.440  19.742  0.00  0.00    +0.000 A 
ATOM     26  C   UNL     1      -3.781  13.577  20.511  0.00  0.00    +0.000 A 
ATOM     27  C   UNL     1      -2.479  13.924  20.871  0.00  0.00    +0.000 A 
ATOM     28  C   UNL     1      -1.388  13.135  20.469  0.00  0.00    +0.000 A 
ATOM     29  C   UNL     1       0.005  13.602  20.787  0.00  0.00    +0.000 C 
ENDBRANCH   7  23
TORSDOF 5
ENDMDL
MODEL 3
REMARK VINA RESULT:      -7.5      2.197      3.450
REMARK  Name = 
REMARK  7 active torsions:
REMARK  status: ('A' for Active; 'I' for Inactive)
REMARK    1  A    between atoms: C_1  and  C_2
REMARK    2  A    between atoms: C_2  and  O_3
REMARK    3  A    between atoms: O_3  and  C_4
REMARK    4  A    between atoms: C_4  and  C_6
REMARK    5  A    between atoms: C_9  and  N_10
REMARK    6  A    between atoms: N_16  and  C_17
REMARK    7  A    between atoms: C_22  and  C_23
REMARK                            x       y       z     vdW  Elec       q    Type
REMARK                         _______ _______ _______ _____ _____    ______ ____
ROOT
ATOM      1  N   UNL     1       1.591   8.602  19.348  0.00  0.00    +0.000 N 
ATOM      2  C   UNL     1       1.108   9.723  18.531  0.00  0.00    +0.000 C 
ATOM      3  C   UNL     1      -0.347  10.031  18.975  0.00  0.00    +0.000 C 
ATOM      4  N   UNL     1      -0.454  10.197  20.442  0.00  0.00    +0.000 N 
ATOM      5  C   UNL     1      -1.213  11.234  20.950  0.00  0.00    +0.000 C 
ATOM      6  O   UNL     1      -1.858  11.982  20.213  0.00  0.00    +0.000 OA
ATOM      7  N   UNL     1      -1.128  11.396  22.316  0.00  0.00    +0.000 N 
ATOM      8  C   UNL     1       0.144   9.098  21.221  0.00  0.00    +0.000 C 
ATOM      9  C   UNL     1       1.603   8.893  20.786  0.00  0.00    +0.000 C 
ATOM     10  H   UNL     1      -0.221  11.181  22.693  0.00  0.00    +0.000 HD
ENDROOT
BRANCH   1  14
ATOM     11  C   UNL     1       4.198   5.747  17.820  0.00  0.00    +0.000 A 
ATOM     12  C   UNL     1       4.034   7.004  17.263  0.00  0.00    +0.000 A 
ATOM     13  N   UNL     1       3.172   7.943  17.746  0.00  0.00    +0.000 NA
ATOM     14  C   UNL     1       2.429   7.636  18.840  0.00  0.00    +0.000 A 
ATOM     15  C   UNL     1       2.505   6.345  19.410  0.00  0.00    +0.000 A 
ATOM     16 CL   UNL     1       1.442   5.780  20.659  0.00  0.00    +0.000 Cl
ATOM     17  C   UNL     1       3.404   5.410  18.908  0.00  0.00    +0.000 A 
BRANCH  11  18
ATOM     18  C   UNL     1       5.122   4.784  17.190  0.00  0.00    +0.000 C 
ATOM     19  O   UNL     1       4.816   3.626  16.930  0.00  0.00    +0.000 OA
BRANCH  18  20
ATOM     20  O   UNL     1       6.346   5.348  17.056  0.00  0.00    +0.000 OA
BRANCH  20  22
ATOM     21  C   UNL     1       7.775   6.105  18.807  0.00  0.00    +0.000 C 
ATOM     22  C   UNL     1       7.339   4.904  17.989  0.00  0.00    +0.000 C 
ENDBRANCH  20  22
ENDBRANCH  18  20
ENDBRANCH  11  18
ENDBRANCH   1  14
BRANCH   7  23
ATOM     23  C   UNL     1      -1.842  12.408  22.998  0.00  0.00    +0.000 A 
ATOM     24  C   UNL     1      -3.079  12.114  23.585  0.00  0.00    +0.000 A 
ATOM     25  C   UNL     1      -3.773  13.092  24.296  0.00  0.00    +0.000 A 
ATOM     26  C   UNL     1      -3.236  14.369  24.425  0.00  0.00    +0.000 A 
ATOM     27  C   UNL     1      -2.009  14.673  23.835  0.00  0.00    +0.000 A 
ATOM     28  C   UNL     1      -1.301  13.701  23.108  0.00  0.00    +0.000 A 
ATOM     29  C   UNL     1      -0.037  14.100  22.399  0.00  0.00    +0.000 C 
ENDBRANCH   7  23
TORSDOF 5
ENDMDL
MODEL 4
REMARK VINA RESULT:      -7.4      3.843     10.886
REMARK  Name = 
REMARK  7 active torsions:
REMARK  status: ('A' for Active; 'I' for Inactive)
REMARK    1  A    between atoms: C_1  and  C_2
REMARK    2  A    between atoms: C_2  and  O_3
REMARK    3  A    between atoms: O_3  and  C_4
REMARK    4  A    between atoms: C_4  and  C_6
REMARK    5  A    between atoms: C_9  and  N_10
REMARK    6  A    between atoms: N_16  and  C_17
REMARK    7  A    between atoms: C_22  and  C_23
REMARK                            x       y       z     vdW  Elec       q    Type
REMARK                         _______ _______ _______ _____ _____    ______ ____
ROOT
ATOM      1  N   UNL     1      -0.230  10.545  21.574  0.00  0.00    +0.000 N 
ATOM      2  C   UNL     1      -0.431  10.294  20.141  0.00  0.00    +0.000 C 
ATOM      3  C   UNL     1       0.923   9.809  19.557  0.00  0.00    +0.000 C 
ATOM      4  N   UNL     1       1.496   8.694  20.342  0.00  0.00    +0.000 N 
ATOM      5  C   UNL     1       2.040   7.612  19.677  0.00  0.00    +0.000 C 
ATOM      6  O   UNL     1       2.122   7.584  18.449  0.00  0.00    +0.000 OA
ATOM      7  N   UNL     1       2.409   6.561  20.490  0.00  0.00    +0.000 N 
ATOM      8  C   UNL     1       1.575   8.951  21.792  0.00  0.00    +0.000 C 
ATOM      9  C   UNL     1       0.190   9.353  22.319  0.00  0.00    +0.000 C 
ATOM     10  H   UNL     1       1.806   6.435  21.286  0.00  0.00    +0.000 HD
ENDROOT
BRANCH   1  14
ATOM     11  C   UNL     1      -2.143  13.600  23.645  0.00  0.00    +0.000 A 
ATOM     12  C   UNL     1      -2.589  12.290  23.637  0.00  0.00    +0.000 A 
ATOM     13  N   UNL     1      -1.980  11.283  22.950  0.00  0.00    +0.000 NA
ATOM     14  C   UNL     1      -0.865  11.573  22.232  0.00  0.00    +0.000 A 
ATOM     15  C   UNL     1      -0.402  12.906  22.149  0.00  0.00    +0.000 A 
ATOM     16 CL   UNL     1       0.869  13.419  21.086  0.00  0.00    +0.000 Cl
ATOM     17  C   UNL     1      -1.032  13.912  22.872  0.00  0.00    +0.000 A 
BRANCH  11  18
ATOM     18  C   UNL     1      -2.904  14.627  24.382  0.00  0.00    +0.000 C 
ATOM     19  O   UNL     1      -2.875  14.745  25.601  0.00  0.00    +0.000 OA
BRANCH  18  20
ATOM     20  O   UNL     1      -3.689  15.317  23.520  0.00  0.00    +0.000 OA
BRANCH  20  22
ATOM     21  C   UNL     1      -5.804  14.288  23.139  0.00  0.00    +0.000 C 
ATOM     22  C   UNL     1      -5.076  15.398  23.873  0.00  0.00    +0.000 C 
ENDBRANCH  20  22
ENDBRANCH  18  20
ENDBRANCH  11  18
ENDBRANCH   1  14
BRANCH   7  23
ATOM     23  C   UNL     1       2.983   5.377  19.973  0.00  0.00    +0.000 A 
ATOM     24  C   UNL     1       4.293   5.397  19.478  0.00  0.00    +0.000 A 
ATOM     25  C   UNL     1       4.885   4.227  19.004  0.00  0.00    +0.000 A 
ATOM     26  C   UNL     1       4.174   3.031  19.022  0.00  0.00    +0.000 A 
ATOM     27  C   UNL     1       2.866   3.005  19.504  0.00  0.00    +0.000 A 
ATOM     28  C   UNL     1       2.251   4.177  19.978  0.00  0.00    +0.000 A 
ATOM     29  C   UNL     1       0.806   4.125  20.389  0.00  0.00    +0.000 C 
ENDBRANCH   7  23
TORSDOF 5
ENDMDL
MODEL 5
REMARK VINA RESULT:      -7.3      2.477     10.313
REMARK  Name = 
REMARK  7 active torsions:
REMARK  status: ('A' for Active; 'I' for Inactive)
REMARK    1  A    between atoms: C_1  and  C_2
REMARK    2  A    between atoms: C_2  and  O_3
REMARK    3  A    between atoms: O_3  and  C_4
REMARK    4  A    between atoms: C_4  and  C_6
REMARK    5  A    between atoms: C_9  and  N_10
REMARK    6  A    between atoms: N_16  and  C_17
REMARK    7  A    between atoms: C_22  and  C_23
REMARK                            x       y       z     vdW  Elec       q    Type
REMARK                         _______ _______ _______ _____ _____    ______ ____
ROOT
ATOM      1  N   UNL     1       0.950   9.708  20.007  0.00  0.00    +0.000 N 
ATOM      2  C   UNL     1       1.549   8.772  20.967  0.00  0.00    +0.000 C 
ATOM      3  C   UNL     1       1.665   7.393  20.264  0.00  0.00    +0.000 C 
ATOM      4  N   UNL     1       2.333   7.498  18.948  0.00  0.00    +0.000 N 
ATOM      5  C   UNL     1       3.286   6.559  18.599  0.00  0.00    +0.000 C 
ATOM      6  O   UNL     1       3.543   5.600  19.328  0.00  0.00    +0.000 OA
ATOM      7  N   UNL     1       3.958   6.827  17.425  0.00  0.00    +0.000 N 
ATOM      8  C   UNL     1       1.766   8.529  18.060  0.00  0.00    +0.000 C 
ATOM      9  C   UNL     1       1.748   9.881  18.788  0.00  0.00    +0.000 C 
ATOM     10  H   UNL     1       4.107   7.808  17.260  0.00  0.00    +0.000 HD
ENDROOT
BRANCH   1  14
ATOM     11  C   UNL     1      -1.605  12.763  21.199  0.00  0.00    +0.000 A 
ATOM     12  C   UNL     1      -0.508  12.356  21.939  0.00  0.00    +0.000 A 
ATOM     13  N   UNL     1       0.328  11.347  21.566  0.00  0.00    +0.000 NA
ATOM     14  C   UNL     1       0.079  10.699  20.399  0.00  0.00    +0.000 A 
ATOM     15  C   UNL     1      -1.065  11.026  19.636  0.00  0.00    +0.000 A 
ATOM     16 CL   UNL     1      -1.595  10.117  18.258  0.00  0.00    +0.000 Cl
ATOM     17  C   UNL     1      -1.893  12.071  20.030  0.00  0.00    +0.000 A 
BRANCH  11  18
ATOM     18  C   UNL     1      -2.478  13.835  21.716  0.00  0.00    +0.000 C 
ATOM     19  O   UNL     1      -2.740  14.854  21.088  0.00  0.00    +0.000 OA
BRANCH  18  20
ATOM     20  O   UNL     1      -2.836  13.555  22.993  0.00  0.00    +0.000 OA
BRANCH  20  22
ATOM     21  C   UNL     1      -4.245  12.467  24.577  0.00  0.00    +0.000 C 
ATOM     22  C   UNL     1      -4.147  13.000  23.161  0.00  0.00    +0.000 C 
ENDBRANCH  20  22
ENDBRANCH  18  20
ENDBRANCH  11  18
ENDBRANCH   1  14
BRANCH   7  23
ATOM     23  C   UNL     1       4.962   5.969  16.922  0.00  0.00    +0.000 A 
ATOM     24  C   UNL     1       4.614   4.713  16.410  0.00  0.00    +0.000 A 
ATOM     25  C   UNL     1       5.590   3.875  15.873  0.00  0.00    +0.000 A 
ATOM     26  C   UNL     1       6.919   4.286  15.843  0.00  0.00    +0.000 A 
ATOM     27  C   UNL     1       7.276   5.531  16.360  0.00  0.00    +0.000 A 
ATOM     28  C   UNL     1       6.305   6.384  16.912  0.00  0.00    +0.000 A 
ATOM     29  C   UNL     1       6.747   7.670  17.555  0.00  0.00    +0.000 C 
ENDBRANCH   7  23
TORSDOF 5
ENDMDL
MODEL 6
REMARK VINA RESULT:      -7.3      3.033     10.598
REMARK  Name = 
REMARK  7 active torsions:
REMARK  status: ('A' for Active; 'I' for Inactive)
REMARK    1  A    between atoms: C_1  and  C_2
REMARK    2  A    between atoms: C_2  and  O_3
REMARK    3  A    between atoms: O_3  and  C_4
REMARK    4  A    between atoms: C_4  and  C_6
REMARK    5  A    between atoms: C_9  and  N_10
REMARK    6  A    between atoms: N_16  and  C_17
REMARK    7  A    between atoms: C_22  and  C_23
REMARK                            x       y       z     vdW  Elec       q    Type
REMARK                         _______ _______ _______ _____ _____    ______ ____
ROOT
ATOM      1  N   UNL     1      -0.279  10.191  20.465  0.00  0.00    +0.000 N 
ATOM      2  C   UNL     1      -0.227  10.380  19.010  0.00  0.00    +0.000 C 
ATOM      3  C   UNL     1       1.236  10.123  18.558  0.00  0.00    +0.000 C 
ATOM      4  N   UNL     1       1.754   8.835  19.069  0.00  0.00    +0.000 N 
ATOM      5  C   UNL     1       2.476   8.015  18.223  0.00  0.00    +0.000 C 
ATOM      6  O   UNL     1       2.757   8.361  17.075  0.00  0.00    +0.000 OA
ATOM      7  N   UNL     1       2.784   6.776  18.744  0.00  0.00    +0.000 N 
ATOM      8  C   UNL     1       1.579   8.644  20.520  0.00  0.00    +0.000 C 
ATOM      9  C   UNL     1       0.100   8.839  20.890  0.00  0.00    +0.000 C 
ATOM     10  H   UNL     1       2.072   6.403  19.348  0.00  0.00    +0.000 HD
ENDROOT
BRANCH   1  14
ATOM     11  C   UNL     1      -2.793  12.491  22.847  0.00  0.00    +0.000 A 
ATOM     12  C   UNL     1      -2.640  12.692  21.486  0.00  0.00    +0.000 A 
ATOM     13  N   UNL     1      -1.808  11.954  20.697  0.00  0.00    +0.000 NA
ATOM     14  C   UNL     1      -1.086  10.960  21.273  0.00  0.00    +0.000 A 
ATOM     15  C   UNL     1      -1.151  10.752  22.669  0.00  0.00    +0.000 A 
ATOM     16 CL   UNL     1      -0.109   9.666  23.531  0.00  0.00    +0.000 Cl
ATOM     17  C   UNL     1      -2.020  11.507  23.449  0.00  0.00    +0.000 A 
BRANCH  11  18
ATOM     18  C   UNL     1      -3.684  13.378  23.621  0.00  0.00    +0.000 C 
ATOM     19  O   UNL     1      -3.381  14.518  23.950  0.00  0.00    +0.000 OA
BRANCH  18  20
ATOM     20  O   UNL     1      -4.801  12.700  23.980  0.00  0.00    +0.000 OA
BRANCH  20  22
ATOM     21  C   UNL     1      -7.154  13.005  24.199  0.00  0.00    +0.000 C 
ATOM     22  C   UNL     1      -5.984  13.016  23.235  0.00  0.00    +0.000 C 
ENDBRANCH  20  22
ENDBRANCH  18  20
ENDBRANCH  11  18
ENDBRANCH   1  14
BRANCH   7  23
ATOM     23  C   UNL     1       3.520   5.816  18.012  0.00  0.00    +0.000 A 
ATOM     24  C   UNL     1       4.857   6.068  17.678  0.00  0.00    +0.000 A 
ATOM     25  C   UNL     1       5.605   5.112  16.993  0.00  0.00    +0.000 A 
ATOM     26  C   UNL     1       5.024   3.898  16.638  0.00  0.00    +0.000 A 
ATOM     27  C   UNL     1       3.690   3.643  16.958  0.00  0.00    +0.000 A 
ATOM     28  C   UNL     1       2.920   4.600  17.641  0.00  0.00    +0.000 A 
ATOM     29  C   UNL     1       1.459   4.328  17.871  0.00  0.00    +0.000 C 
ENDBRANCH   7  23
TORSDOF 5
ENDMDL
MODEL 7
REMARK VINA RESULT:      -7.3      1.991      3.060
REMARK  Name = 
REMARK  7 active torsions:
REMARK  status: ('A' for Active; 'I' for Inactive)
REMARK    1  A    between atoms: C_1  and  C_2
REMARK    2  A    between atoms: C_2  and  O_3
REMARK    3  A    between atoms: O_3  and  C_4
REMARK    4  A    between atoms: C_4  and  C_6
REMARK    5  A    between atoms: C_9  and  N_10
REMARK    6  A    between atoms: N_16  and  C_17
REMARK    7  A    between atoms: C_22  and  C_23
REMARK                            x       y       z     vdW  Elec       q    Type
REMARK                         _______ _______ _______ _____ _____    ______ ____
ROOT
ATOM      1  N   UNL     1       1.657   8.512  19.445  0.00  0.00    +0.000 N 
ATOM      2  C   UNL     1       1.208   9.620  18.591  0.00  0.00    +0.000 C 
ATOM      3  C   UNL     1      -0.257   9.949  18.985  0.00  0.00    +0.000 C 
ATOM      4  N   UNL     1      -0.406  10.146  20.444  0.00  0.00    +0.000 N 
ATOM      5  C   UNL     1      -1.170  11.200  20.907  0.00  0.00    +0.000 C 
ATOM      6  O   UNL     1      -1.786  11.938  20.137  0.00  0.00    +0.000 OA
ATOM      7  N   UNL     1      -1.124  11.390  22.272  0.00  0.00    +0.000 N 
ATOM      8  C   UNL     1       0.160   9.059  21.264  0.00  0.00    +0.000 C 
ATOM      9  C   UNL     1       1.629   8.834  20.877  0.00  0.00    +0.000 C 
ATOM     10  H   UNL     1      -0.230  11.176  22.680  0.00  0.00    +0.000 HD
ENDROOT
BRANCH   1  14
ATOM     11  C   UNL     1       4.282   5.604  18.056  0.00  0.00    +0.000 A 
ATOM     12  C   UNL     1       4.157   6.855  17.478  0.00  0.00    +0.000 A 
ATOM     13  N   UNL     1       3.290   7.812  17.915  0.00  0.00    +0.000 NA
ATOM     14  C   UNL     1       2.501   7.528  18.982  0.00  0.00    +0.000 A 
ATOM     15  C   UNL     1       2.537   6.244  19.571  0.00  0.00    +0.000 A 
ATOM     16 CL   UNL     1       1.419   5.710  20.785  0.00  0.00    +0.000 Cl
ATOM     17  C   UNL     1       3.442   5.292  19.117  0.00  0.00    +0.000 A 
BRANCH  11  18
ATOM     18  C   UNL     1       5.217   4.620  17.476  0.00  0.00    +0.000 C 
ATOM     19  O   UNL     1       6.145   4.120  18.101  0.00  0.00    +0.000 OA
BRANCH  18  20
ATOM     20  O   UNL     1       4.946   4.457  16.158  0.00  0.00    +0.000 OA
BRANCH  20  22
ATOM     21  C   UNL     1       6.606   4.832  14.490  0.00  0.00    +0.000 C 
ATOM     22  C   UNL     1       5.963   3.797  15.393  0.00  0.00    +0.000 C 
ENDBRANCH  20  22
ENDBRANCH  18  20
ENDBRANCH  11  18
ENDBRANCH   1  14
BRANCH   7  23
ATOM     23  C   UNL     1      -1.849  12.422  22.911  0.00  0.00    +0.000 A 
ATOM     24  C   UNL     1      -3.105  12.151  23.469  0.00  0.00    +0.000 A 
ATOM     25  C   UNL     1      -3.811  13.149  24.138  0.00  0.00    +0.000 A 
ATOM     26  C   UNL     1      -3.267  14.425  24.255  0.00  0.00    +0.000 A 
ATOM     27  C   UNL     1      -2.021  14.707  23.694  0.00  0.00    +0.000 A 
ATOM     28  C   UNL     1      -1.301  13.713  23.009  0.00  0.00    +0.000 A 
ATOM     29  C   UNL     1      -0.013  14.087  22.329  0.00  0.00    +0.000 C 
ENDBRANCH   7  23
TORSDOF 5
ENDMDL
MODEL 8
REMARK VINA RESULT:      -7.2      2.284      3.243
REMARK  Name = 
REMARK  7 active torsions:
REMARK  status: ('A' for Active; 'I' for Inactive)
REMARK    1  A    between atoms: C_1  and  C_2
REMARK    2  A    between atoms: C_2  and  O_3
REMARK    3  A    between atoms: O_3  and  C_4
REMARK    4  A    between atoms: C_4  and  C_6
REMARK    5  A    between atoms: C_9  and  N_10
REMARK    6  A    between atoms: N_16  and  C_17
REMARK    7  A    between atoms: C_22  and  C_23
REMARK                            x       y       z     vdW  Elec       q    Type
REMARK                         _______ _______ _______ _____ _____    ______ ____
ROOT
ATOM      1  N   UNL     1       1.543   8.520  19.888  0.00  0.00    +0.000 N 
ATOM      2  C   UNL     1       0.996   8.017  21.156  0.00  0.00    +0.000 C 
ATOM      3  C   UNL     1       0.958   9.206  22.152  0.00  0.00    +0.000 C 
ATOM      4  N   UNL     1       0.287  10.391  21.574  0.00  0.00    +0.000 N 
ATOM      5  C   UNL     1      -0.612  11.101  22.348  0.00  0.00    +0.000 C 
ATOM      6  O   UNL     1      -0.815  10.813  23.528  0.00  0.00    +0.000 OA
ATOM      7  N   UNL     1      -1.296  12.092  21.675  0.00  0.00    +0.000 N 
ATOM      8  C   UNL     1       0.796  10.791  20.250  0.00  0.00    +0.000 C 
ATOM      9  C   UNL     1       0.738   9.591  19.292  0.00  0.00    +0.000 C 
ATOM     10  H   UNL     1      -1.500  11.862  20.717  0.00  0.00    +0.000 HD
ENDROOT
BRANCH   1  14
ATOM     11  C   UNL     1       4.073   6.266  17.479  0.00  0.00    +0.000 A 
ATOM     12  C   UNL     1       3.733   7.580  17.207  0.00  0.00    +0.000 A 
ATOM     13  N   UNL     1       2.894   8.325  17.981  0.00  0.00    +0.000 NA
ATOM     14  C   UNL     1       2.357   7.751  19.088  0.00  0.00    +0.000 A 
ATOM     15  C   UNL     1       2.615   6.392  19.379  0.00  0.00    +0.000 A 
ATOM     16 CL   UNL     1       1.807   5.506  20.633  0.00  0.00    +0.000 Cl
ATOM     17  C   UNL     1       3.488   5.659  18.583  0.00  0.00    +0.000 A 
BRANCH  11  18
ATOM     18  C   UNL     1       4.952   5.531  16.549  0.00  0.00    +0.000 C 
ATOM     19  O   UNL     1       4.764   4.365  16.221  0.00  0.00    +0.000 OA
BRANCH  18  20
ATOM     20  O   UNL     1       6.016   6.303  16.222  0.00  0.00    +0.000 OA
BRANCH  20  22
ATOM     21  C   UNL     1       7.587   7.533  17.526  0.00  0.00    +0.000 C 
ATOM     22  C   UNL     1       7.172   6.152  17.056  0.00  0.00    +0.000 C 
ENDBRANCH  20  22
ENDBRANCH  18  20
ENDBRANCH  11  18
ENDBRANCH   1  14
BRANCH   7  23
ATOM     23  C   UNL     1      -2.250  12.913  22.317  0.00  0.00    +0.000 A 
ATOM     24  C   UNL     1      -3.589  12.507  22.383  0.00  0.00    +0.000 A 
ATOM     25  C   UNL     1      -4.531  13.288  23.050  0.00  0.00    +0.000 A 
ATOM     26  C   UNL     1      -4.143  14.479  23.656  0.00  0.00    +0.000 A 
ATOM     27  C   UNL     1      -2.814  14.896  23.586  0.00  0.00    +0.000 A 
ATOM     28  C   UNL     1      -1.853  14.124  22.911  0.00  0.00    +0.000 A 
ATOM     29  C   UNL     1      -0.456  14.663  22.768  0.00  0.00    +0.000 C 
ENDBRANCH   7  23
TORSDOF 5
ENDMDL
MODEL 9
REMARK VINA RESULT:      -7.2      3.078     10.636
REMARK  Name = 
REMARK  7 active torsions:
REMARK  status: ('A' for Active; 'I' for Inactive)
REMARK    1  A    between atoms: C_1  and  C_2
REMARK    2  A    between atoms: C_2  and  O_3
REMARK    3  A    between atoms: O_3  and  C_4
REMARK    4  A    between atoms: C_4  and  C_6
REMARK    5  A    between atoms: C_9  and  N_10
REMARK    6  A    between atoms: N_16  and  C_17
REMARK    7  A    between atoms: C_22  and  C_23
REMARK                            x       y       z     vdW  Elec       q    Type
REMARK                         _______ _______ _______ _____ _____    ______ ____
ROOT
ATOM      1  N   UNL     1      -0.395  10.404  20.388  0.00  0.00    +0.000 N 
ATOM      2  C   UNL     1      -0.262  10.637  18.944  0.00  0.00    +0.000 C 
ATOM      3  C   UNL     1       1.207  10.321  18.554  0.00  0.00    +0.000 C 
ATOM      4  N   UNL     1       1.636   8.993  19.045  0.00  0.00    +0.000 N 
ATOM      5  C   UNL     1       2.358   8.165  18.206  0.00  0.00    +0.000 C 
ATOM      6  O   UNL     1       2.712   8.533  17.085  0.00  0.00    +0.000 OA
ATOM      7  N   UNL     1       2.579   6.896  18.697  0.00  0.00    +0.000 N 
ATOM      8  C   UNL     1       1.380   8.764  20.478  0.00  0.00    +0.000 C 
ATOM      9  C   UNL     1      -0.104   9.022  20.783  0.00  0.00    +0.000 C 
ATOM     10  H   UNL     1       1.820   6.541  19.253  0.00  0.00    +0.000 HD
ENDROOT
BRANCH   1  14
ATOM     11  C   UNL     1      -2.911  12.744  22.729  0.00  0.00    +0.000 A 
ATOM     12  C   UNL     1      -2.751  12.926  21.366  0.00  0.00    +0.000 A 
ATOM     13  N   UNL     1      -1.919  12.176  20.591  0.00  0.00    +0.000 NA
ATOM     14  C   UNL     1      -1.202  11.186  21.183  0.00  0.00    +0.000 A 
ATOM     15  C   UNL     1      -1.273  10.998  22.581  0.00  0.00    +0.000 A 
ATOM     16 CL   UNL     1      -0.238   9.919  23.461  0.00  0.00    +0.000 Cl
ATOM     17  C   UNL     1      -2.142  11.766  23.348  0.00  0.00    +0.000 A 
BRANCH  11  18
ATOM     18  C   UNL     1      -3.801  13.644  23.488  0.00  0.00    +0.000 C 
ATOM     19  O   UNL     1      -4.806  14.158  23.013  0.00  0.00    +0.000 OA
BRANCH  18  20
ATOM     20  O   UNL     1      -3.274  13.876  24.716  0.00  0.00    +0.000 OA
BRANCH  20  22
ATOM     21  C   UNL     1      -1.829  15.436  25.790  0.00  0.00    +0.000 C 
ATOM     22  C   UNL     1      -3.163  15.254  25.092  0.00  0.00    +0.000 C 
ENDBRANCH  20  22
ENDBRANCH  18  20
ENDBRANCH  11  18
ENDBRANCH   1  14
BRANCH   7  23
ATOM     23  C   UNL     1       3.302   5.924  17.968  0.00  0.00    +0.000 A 
ATOM     24  C   UNL     1       4.558   6.243  17.437  0.00  0.00    +0.000 A 
ATOM     25  C   UNL     1       5.299   5.281  16.753  0.00  0.00    +0.000 A 
ATOM     26  C   UNL     1       4.791   3.995  16.595  0.00  0.00    +0.000 A 
ATOM     27  C   UNL     1       3.536   3.672  17.112  0.00  0.00    +0.000 A 
ATOM     28  C   UNL     1       2.773   4.633  17.797  0.00  0.00    +0.000 A 
ATOM     29  C   UNL     1       1.383   4.274  18.244  0.00  0.00    +0.000 C 
ENDBRANCH   7  23
TORSDOF 5
ENDMDL
