MODEL 1
REMARK VINA RESULT:      -7.6      0.000      0.000
REMARK  Name = 
REMARK  8 active torsions:
REMARK  status: ('A' for Active; 'I' for Inactive)
REMARK    1  A    between atoms: C_1  and  O_2
REMARK    2  A    between atoms: O_2  and  C_3
REMARK    3  A    between atoms: C_5  and  N_6
REMARK    4  A    between atoms: C_7  and  C_9
REMARK    5  A    between atoms: C_9  and  N_10
REMARK    6  A    between atoms: N_13  and  C_14
REMARK    7  A    between atoms: C_23  and  C_24
REMARK    8  A    between atoms: C_26  and  N_27
REMARK                            x       y       z     vdW  Elec       q    Type
REMARK                         _______ _______ _______ _____ _____    ______ ____
ROOT
ATOM      1  N   UNL     1       2.197   7.614  18.754  0.00  0.00    +0.000 N 
ATOM      2  C   UNL     1       1.738   8.850  18.317  0.00  0.00    +0.000 C 
ATOM      3  O   UNL     1       2.131   9.466  17.327  0.00  0.00    +0.000 OA
ATOM      4  H   UNL     1       1.925   7.382  19.703  0.00  0.00    +0.000 HD
ENDROOT
BRANCH   1   7
ATOM      5  C   UNL     1       5.334   6.590  16.977  0.00  0.00    +0.000 A 
ATOM      6  C   UNL     1       4.340   7.360  17.591  0.00  0.00    +0.000 A 
ATOM      7  C   UNL     1       3.153   6.798  18.099  0.00  0.00    +0.000 A 
ATOM      8  C   UNL     1       2.926   5.415  17.931  0.00  0.00    +0.000 A 
ATOM      9  C   UNL     1       1.689   4.699  18.400  0.00  0.00    +0.000 C 
ATOM     10  C   UNL     1       3.897   4.642  17.259  0.00  0.00    +0.000 A 
ATOM     11  C   UNL     1       5.086   5.232  16.811  0.00  0.00    +0.000 A 
BRANCH  11  12
ATOM     12  N   UNL     1       6.075   4.383  16.180  0.00  0.00    +0.000 N 
ATOM     13  O   UNL     1       5.849   3.997  15.024  0.00  0.00    +0.000 OA
ATOM     14  O   UNL     1       7.110   4.162  16.827  0.00  0.00    +0.000 OA
ENDBRANCH  11  12
BRANCH   5  16
ATOM     15  C   UNL     1       7.432   7.581  17.459  0.00  0.00    +0.000 C 
ATOM     16  O   UNL     1       6.498   7.117  16.486  0.00  0.00    +0.000 OA
ENDBRANCH   5  16
ENDBRANCH   1   7
BRANCH   2  17
ATOM     17  C   UNL     1       0.648   9.454  19.206  0.00  0.00    +0.000 C 
BRANCH  17  18
ATOM     18  N   UNL     1       1.062  10.744  19.804  0.00  0.00    +0.000 NA
ATOM     19  C   UNL     1       0.075  11.833  19.542  0.00  0.00    +0.000 C 
ATOM     20  C   UNL     1      -1.308  11.632  20.198  0.00  0.00    +0.000 C 
ATOM     21  N   UNL     1      -1.175  11.420  21.645  0.00  0.00    +0.000 N 
ATOM     22  C   UNL     1      -0.174  10.428  22.066  0.00  0.00    +0.000 C 
ATOM     23  C   UNL     1       1.163  10.597  21.284  0.00  0.00    +0.000 C 
BRANCH  21  24
ATOM     24  C   UNL     1      -1.678  12.337  22.558  0.00  0.00    +0.000 A 
ATOM     25  C   UNL     1      -2.942  12.125  23.139  0.00  0.00    +0.000 A 
ATOM     26  C   UNL     1      -3.511  13.045  24.030  0.00  0.00    +0.000 A 
ATOM     27  C   UNL     1      -2.825  14.204  24.372  0.00  0.00    +0.000 A 
ATOM     28  C   UNL     1      -1.569  14.441  23.823  0.00  0.00    +0.000 A 
ATOM     29  C   UNL     1      -1.013  13.520  22.933  0.00  0.00    +0.000 A 
ATOM     30  F   UNL     1       0.219  13.786  22.468  0.00  0.00    +0.000 F 
ENDBRANCH  21  24
ENDBRANCH  17  18
ENDBRANCH   2  17
TORSDOF 6
ENDMDL
MODEL 2
REMARK VINA RESULT:      -7.5      4.101      9.843
REMARK  Name = 
REMARK  8 active torsions:
REMARK  status: ('A' for Active; 'I' for Inactive)
REMARK    1  A    between atoms: C_1  and  O_2
REMARK    2  A    between atoms: O_2  and  C_3
REMARK    3  A    between atoms: C_5  and  N_6
REMARK    4  A    between atoms: C_7  and  C_9
REMARK    5  A    between atoms: C_9  and  N_10
REMARK    6  A    between atoms: N_13  and  C_14
REMARK    7  A    between atoms: C_23  and  C_24
REMARK    8  A    between atoms: C_26  and  N_27
REMARK                            x       y       z     vdW  Elec       q    Type
REMARK                         _______ _______ _______ _____ _____    ______ ____
ROOT
ATOM      1  N   UNL     1       2.428   6.872  20.367  0.00  0.00    +0.000 N 
ATOM      2  C   UNL     1       1.956   5.568  20.447  0.00  0.00    +0.000 C 
ATOM      3  O   UNL     1       0.776   5.218  20.461  0.00  0.00    +0.000 OA
ATOM      4  H   UNL     1       3.410   6.973  20.603  0.00  0.00    +0.000 HD
ENDROOT
BRANCH   1   7
ATOM      5  C   UNL     1       0.075   9.671  21.188  0.00  0.00    +0.000 A 
ATOM      6  C   UNL     1       0.836   8.501  21.274  0.00  0.00    +0.000 A 
ATOM      7  C   UNL     1       1.639   8.038  20.213  0.00  0.00    +0.000 A 
ATOM      8  C   UNL     1       1.629   8.747  18.992  0.00  0.00    +0.000 A 
ATOM      9  C   UNL     1       2.416   8.343  17.775  0.00  0.00    +0.000 C 
ATOM     10  C   UNL     1       0.817   9.895  18.877  0.00  0.00    +0.000 A 
ATOM     11  C   UNL     1       0.071  10.348  19.973  0.00  0.00    +0.000 A 
BRANCH  11  12
ATOM     12  N   UNL     1      -0.700  11.564  19.819  0.00  0.00    +0.000 N 
ATOM     13  O   UNL     1      -1.882  11.455  19.462  0.00  0.00    +0.000 OA
ATOM     14  O   UNL     1      -0.131  12.624  20.125  0.00  0.00    +0.000 OA
ENDBRANCH  11  12
BRANCH   5  16
ATOM     15  C   UNL     1      -0.279   9.789  23.528  0.00  0.00    +0.000 C 
ATOM     16  O   UNL     1      -0.702  10.141  22.211  0.00  0.00    +0.000 OA
ENDBRANCH   5  16
ENDBRANCH   1   7
BRANCH   2  17
ATOM     17  C   UNL     1       3.063   4.514  20.537  0.00  0.00    +0.000 C 
BRANCH  17  18
ATOM     18  N   UNL     1       3.065   3.601  19.371  0.00  0.00    +0.000 NA
ATOM     19  C   UNL     1       2.668   4.293  18.109  0.00  0.00    +0.000 C 
ATOM     20  C   UNL     1       3.644   5.388  17.629  0.00  0.00    +0.000 C 
ATOM     21  N   UNL     1       5.005   4.853  17.495  0.00  0.00    +0.000 N 
ATOM     22  C   UNL     1       5.510   4.072  18.634  0.00  0.00    +0.000 C 
ATOM     23  C   UNL     1       4.441   3.068  19.159  0.00  0.00    +0.000 C 
BRANCH  21  24
ATOM     24  C   UNL     1       5.629   4.769  16.258  0.00  0.00    +0.000 A 
ATOM     25  C   UNL     1       4.972   4.144  15.183  0.00  0.00    +0.000 A 
ATOM     26  C   UNL     1       5.579   3.995  13.929  0.00  0.00    +0.000 A 
ATOM     27  C   UNL     1       6.865   4.477  13.712  0.00  0.00    +0.000 A 
ATOM     28  C   UNL     1       7.541   5.108  14.751  0.00  0.00    +0.000 A 
ATOM     29  C   UNL     1       6.928   5.247  15.998  0.00  0.00    +0.000 A 
ATOM     30  F   UNL     1       7.617   5.901  16.949  0.00  0.00    +0.000 F 
ENDBRANCH  21  24
ENDBRANCH  17  18
ENDBRANCH   2  17
TORSDOF 6
ENDMDL
MODEL 3
REMARK VINA RESULT:      -7.4      1.212      1.388
REMARK  Name = 
REMARK  8 active torsions:
REMARK  status: ('A' for Active; 'I' for Inactive)
REMARK    1  A    between atoms: C_1  and  O_2
REMARK    2  A    between atoms: O_2  and  C_3
REMARK    3  A    between atoms: C_5  and  N_6
REMARK    4  A    between atoms: C_7  and  C_9
REMARK    5  A    between atoms: C_9  and  N_10
REMARK    6  A    between atoms: N_13  and  C_14
REMARK    7  A    between atoms: C_23  and  C_24
REMARK    8  A    between atoms: C_26  and  N_27
REMARK                            x       y       z     vdW  Elec       q    Type
REMARK                         _______ _______ _______ _____ _____    ______ ____
ROOT
ATOM      1  N   UNL     1       2.750   7.387  18.670  0.00  0.00    +0.000 N 
ATOM      2  C   UNL     1       2.153   8.552  18.206  0.00  0.00    +0.000 C 
ATOM      3  O   UNL     1       2.410   9.135  17.154  0.00  0.00    +0.000 OA
ATOM      4  H   UNL     1       2.576   7.192  19.650  0.00  0.00    +0.000 HD
ENDROOT
BRANCH   1   7
ATOM      5  C   UNL     1       5.966   6.433  16.999  0.00  0.00    +0.000 A 
ATOM      6  C   UNL     1       4.963   7.169  17.638  0.00  0.00    +0.000 A 
ATOM      7  C   UNL     1       3.716   6.612  17.981  0.00  0.00    +0.000 A 
ATOM      8  C   UNL     1       3.442   5.276  17.614  0.00  0.00    +0.000 A 
ATOM      9  C   UNL     1       2.141   4.574  17.895  0.00  0.00    +0.000 C 
ATOM     10  C   UNL     1       4.426   4.546  16.916  0.00  0.00    +0.000 A 
ATOM     11  C   UNL     1       5.671   5.123  16.636  0.00  0.00    +0.000 A 
BRANCH  11  12
ATOM     12  N   UNL     1       6.667   4.310  15.969  0.00  0.00    +0.000 N 
ATOM     13  O   UNL     1       6.422   3.932  14.815  0.00  0.00    +0.000 OA
ATOM     14  O   UNL     1       7.725   4.112  16.586  0.00  0.00    +0.000 OA
ENDBRANCH  11  12
BRANCH   5  16
ATOM     15  C   UNL     1       7.671   7.997  17.512  0.00  0.00    +0.000 C 
ATOM     16  O   UNL     1       7.187   6.954  16.666  0.00  0.00    +0.000 OA
ENDBRANCH   5  16
ENDBRANCH   1   7
BRANCH   2  17
ATOM     17  C   UNL     1       1.090   9.120  19.151  0.00  0.00    +0.000 C 
BRANCH  17  18
ATOM     18  N   UNL     1       1.135  10.599  19.223  0.00  0.00    +0.000 NA
ATOM     19  C   UNL     1      -0.105  11.230  18.682  0.00  0.00    +0.000 C 
ATOM     20  C   UNL     1      -1.391  10.933  19.482  0.00  0.00    +0.000 C 
ATOM     21  N   UNL     1      -1.224  11.297  20.895  0.00  0.00    +0.000 N 
ATOM     22  C   UNL     1       0.001  10.813  21.549  0.00  0.00    +0.000 C 
ATOM     23  C   UNL     1       1.254  11.024  20.646  0.00  0.00    +0.000 C 
BRANCH  21  24
ATOM     24  C   UNL     1      -1.966  12.320  21.470  0.00  0.00    +0.000 A 
ATOM     25  C   UNL     1      -2.197  13.507  20.751  0.00  0.00    +0.000 A 
ATOM     26  C   UNL     1      -2.901  14.584  21.306  0.00  0.00    +0.000 A 
ATOM     27  C   UNL     1      -3.403  14.500  22.600  0.00  0.00    +0.000 A 
ATOM     28  C   UNL     1      -3.200  13.337  23.336  0.00  0.00    +0.000 A 
ATOM     29  C   UNL     1      -2.493  12.272  22.775  0.00  0.00    +0.000 A 
ATOM     30  F   UNL     1      -2.366  11.161  23.521  0.00  0.00    +0.000 F 
ENDBRANCH  21  24
ENDBRANCH  17  18
ENDBRANCH   2  17
TORSDOF 6
ENDMDL
MODEL 4
REMARK VINA RESULT:      -7.4      0.975      1.393
REMARK  Name = 
REMARK  8 active torsions:
REMARK  status: ('A' for Active; 'I' for Inactive)
REMARK    1  A    between atoms: C_1  and  O_2
REMARK    2  A    between atoms: O_2  and  C_3
REMARK    3  A    between atoms: C_5  and  N_6
REMARK    4  A    between atoms: C_7  and  C_9
REMARK    5  A    between atoms: C_9  and  N_10
REMARK    6  A    between atoms: N_13  and  C_14
REMARK    7  A    between atoms: C_23  and  C_24
REMARK    8  A    between atoms: C_26  and  N_27
REMARK                            x       y       z     vdW  Elec       q    Type
REMARK                         _______ _______ _______ _____ _____    ______ ____
ROOT
ATOM      1  N   UNL     1       2.325   7.610  18.737  0.00  0.00    +0.000 N 
ATOM      2  C   UNL     1       1.795   8.811  18.284  0.00  0.00    +0.000 C 
ATOM      3  O   UNL     1       2.128   9.417  17.266  0.00  0.00    +0.000 OA
ATOM      4  H   UNL     1       2.092   7.391  19.701  0.00  0.00    +0.000 HD
ENDROOT
BRANCH   1   7
ATOM      5  C   UNL     1       5.504   6.660  16.994  0.00  0.00    +0.000 A 
ATOM      6  C   UNL     1       4.494   7.404  17.614  0.00  0.00    +0.000 A 
ATOM      7  C   UNL     1       3.296   6.821  18.074  0.00  0.00    +0.000 A 
ATOM      8  C   UNL     1       3.078   5.445  17.847  0.00  0.00    +0.000 A 
ATOM      9  C   UNL     1       1.832   4.709  18.260  0.00  0.00    +0.000 C 
ATOM     10  C   UNL     1       4.065   4.700  17.169  0.00  0.00    +0.000 A 
ATOM     11  C   UNL     1       5.262   5.309  16.771  0.00  0.00    +0.000 A 
BRANCH  11  12
ATOM     12  N   UNL     1       6.267   4.486  16.130  0.00  0.00    +0.000 N 
ATOM     13  O   UNL     1       7.274   4.190  16.789  0.00  0.00    +0.000 OA
ATOM     14  O   UNL     1       6.008   4.083  14.985  0.00  0.00    +0.000 OA
ENDBRANCH  11  12
BRANCH   5  16
ATOM     15  C   UNL     1       7.597   7.615  17.562  0.00  0.00    +0.000 C 
ATOM     16  O   UNL     1       6.676   7.207  16.550  0.00  0.00    +0.000 OA
ENDBRANCH   5  16
ENDBRANCH   1   7
BRANCH   2  17
ATOM     17  C   UNL     1       0.706   9.388  19.191  0.00  0.00    +0.000 C 
BRANCH  17  18
ATOM     18  N   UNL     1       1.149  10.617  19.889  0.00  0.00    +0.000 NA
ATOM     19  C   UNL     1       0.371  11.820  19.467  0.00  0.00    +0.000 C 
ATOM     20  C   UNL     1      -1.127  11.792  19.837  0.00  0.00    +0.000 C 
ATOM     21  N   UNL     1      -1.305  11.565  21.277  0.00  0.00    +0.000 N 
ATOM     22  C   UNL     1      -0.535  10.457  21.860  0.00  0.00    +0.000 C 
ATOM     23  C   UNL     1       0.940  10.459  21.356  0.00  0.00    +0.000 C 
BRANCH  21  24
ATOM     24  C   UNL     1      -1.862  12.538  22.098  0.00  0.00    +0.000 A 
ATOM     25  C   UNL     1      -1.038  13.280  22.962  0.00  0.00    +0.000 A 
ATOM     26  C   UNL     1      -1.559  14.239  23.840  0.00  0.00    +0.000 A 
ATOM     27  C   UNL     1      -2.927  14.489  23.873  0.00  0.00    +0.000 A 
ATOM     28  C   UNL     1      -3.770  13.779  23.025  0.00  0.00    +0.000 A 
ATOM     29  C   UNL     1      -3.240  12.822  22.157  0.00  0.00    +0.000 A 
ATOM     30  F   UNL     1      -4.101  12.198  21.335  0.00  0.00    +0.000 F 
ENDBRANCH  21  24
ENDBRANCH  17  18
ENDBRANCH   2  17
TORSDOF 6
ENDMDL
MODEL 5
REMARK VINA RESULT:      -7.3      7.196     10.165
REMARK  Name = 
REMARK  8 active torsions:
REMARK  status: ('A' for Active; 'I' for Inactive)
REMARK    1  A    between atoms: C_1  and  O_2
REMARK    2  A    between atoms: O_2  and  C_3
REMARK    3  A    between atoms: C_5  and  N_6
REMARK    4  A    between atoms: C_7  and  C_9
REMARK    5  A    between atoms: C_9  and  N_10
REMARK    6  A    between atoms: N_13  and  C_14
REMARK    7  A    between atoms: C_23  and  C_24
REMARK    8  A    between atoms: C_26  and  N_27
REMARK                            x       y       z     vdW  Elec       q    Type
REMARK                         _______ _______ _______ _____ _____    ______ ____
ROOT
ATOM      1  N   UNL     1       9.152   9.343  19.221  0.00  0.00    +0.000 N 
ATOM      2  C   UNL     1       8.315   8.724  18.301  0.00  0.00    +0.000 C 
ATOM      3  O   UNL     1       7.709   9.273  17.381  0.00  0.00    +0.000 OA
ATOM      4  H   UNL     1       9.368   8.775  20.034  0.00  0.00    +0.000 HD
ENDROOT
BRANCH   1   7
ATOM      5  C   UNL     1      10.375  12.669  18.001  0.00  0.00    +0.000 A 
ATOM      6  C   UNL     1      10.037  11.313  18.061  0.00  0.00    +0.000 A 
ATOM      7  C   UNL     1       9.523  10.710  19.226  0.00  0.00    +0.000 A 
ATOM      8  C   UNL     1       9.400  11.488  20.397  0.00  0.00    +0.000 A 
ATOM      9  C   UNL     1       8.894  10.959  21.712  0.00  0.00    +0.000 C 
ATOM     10  C   UNL     1       9.795  12.841  20.362  0.00  0.00    +0.000 A 
ATOM     11  C   UNL     1      10.257  13.413  19.170  0.00  0.00    +0.000 A 
BRANCH  11  12
ATOM     12  N   UNL     1      10.595  14.822  19.173  0.00  0.00    +0.000 N 
ATOM     13  O   UNL     1       9.731  15.622  18.784  0.00  0.00    +0.000 OA
ATOM     14  O   UNL     1      11.707  15.125  19.632  0.00  0.00    +0.000 OA
ENDBRANCH  11  12
BRANCH   5  16
ATOM     15  C   UNL     1      12.269  13.125  16.652  0.00  0.00    +0.000 C 
ATOM     16  O   UNL     1      10.867  13.273  16.876  0.00  0.00    +0.000 OA
ENDBRANCH   5  16
ENDBRANCH   1   7
BRANCH   2  17
ATOM     17  C   UNL     1       8.164   7.217  18.519  0.00  0.00    +0.000 C 
BRANCH  17  18
ATOM     18  N   UNL     1       7.529   6.543  17.363  0.00  0.00    +0.000 NA
ATOM     19  C   UNL     1       7.625   5.056  17.452  0.00  0.00    +0.000 C 
ATOM     20  C   UNL     1       6.852   4.420  18.627  0.00  0.00    +0.000 C 
ATOM     21  N   UNL     1       5.441   4.826  18.605  0.00  0.00    +0.000 N 
ATOM     22  C   UNL     1       5.182   6.264  18.440  0.00  0.00    +0.000 C 
ATOM     23  C   UNL     1       6.078   6.882  17.325  0.00  0.00    +0.000 C 
BRANCH  21  24
ATOM     24  C   UNL     1       4.427   3.903  18.385  0.00  0.00    +0.000 A 
ATOM     25  C   UNL     1       3.561   4.063  17.289  0.00  0.00    +0.000 A 
ATOM     26  C   UNL     1       2.496   3.183  17.051  0.00  0.00    +0.000 A 
ATOM     27  C   UNL     1       2.272   2.109  17.905  0.00  0.00    +0.000 A 
ATOM     28  C   UNL     1       3.115   1.916  18.994  0.00  0.00    +0.000 A 
ATOM     29  C   UNL     1       4.170   2.802  19.224  0.00  0.00    +0.000 A 
ATOM     30  F   UNL     1       4.974   2.539  20.269  0.00  0.00    +0.000 F 
ENDBRANCH  21  24
ENDBRANCH  17  18
ENDBRANCH   2  17
TORSDOF 6
ENDMDL
MODEL 6
REMARK VINA RESULT:      -7.3      1.501      1.605
REMARK  Name = 
REMARK  8 active torsions:
REMARK  status: ('A' for Active; 'I' for Inactive)
REMARK    1  A    between atoms: C_1  and  O_2
REMARK    2  A    between atoms: O_2  and  C_3
REMARK    3  A    between atoms: C_5  and  N_6
REMARK    4  A    between atoms: C_7  and  C_9
REMARK    5  A    between atoms: C_9  and  N_10
REMARK    6  A    between atoms: N_13  and  C_14
REMARK    7  A    between atoms: C_23  and  C_24
REMARK    8  A    between atoms: C_26  and  N_27
REMARK                            x       y       z     vdW  Elec       q    Type
REMARK                         _______ _______ _______ _____ _____    ______ ____
ROOT
ATOM      1  N   UNL     1       2.326   6.925  18.935  0.00  0.00    +0.000 N 
ATOM      2  C   UNL     1       2.031   6.565  20.243  0.00  0.00    +0.000 C 
ATOM      3  O   UNL     1       2.479   5.595  20.853  0.00  0.00    +0.000 OA
ATOM      4  H   UNL     1       1.690   7.608  18.537  0.00  0.00    +0.000 HD
ENDROOT
BRANCH   1   7
ATOM      5  C   UNL     1       5.403   6.338  16.876  0.00  0.00    +0.000 A 
ATOM      6  C   UNL     1       4.432   6.945  17.680  0.00  0.00    +0.000 A 
ATOM      7  C   UNL     1       3.256   6.281  18.081  0.00  0.00    +0.000 A 
ATOM      8  C   UNL     1       3.016   4.974  17.606  0.00  0.00    +0.000 A 
ATOM      9  C   UNL     1       1.788   4.169  17.934  0.00  0.00    +0.000 C 
ATOM     10  C   UNL     1       3.961   4.377  16.746  0.00  0.00    +0.000 A 
ATOM     11  C   UNL     1       5.140   5.054  16.410  0.00  0.00    +0.000 A 
BRANCH  11  12
ATOM     12  N   UNL     1       6.104   4.373  15.571  0.00  0.00    +0.000 N 
ATOM     13  O   UNL     1       5.831   4.243  14.369  0.00  0.00    +0.000 OA
ATOM     14  O   UNL     1       7.167   4.031  16.112  0.00  0.00    +0.000 OA
ENDBRANCH  11  12
BRANCH   5  16
ATOM     15  C   UNL     1       7.465   7.305  17.529  0.00  0.00    +0.000 C 
ATOM     16  O   UNL     1       6.555   6.963  16.484  0.00  0.00    +0.000 OA
ENDBRANCH   5  16
ENDBRANCH   1   7
BRANCH   2  17
ATOM     17  C   UNL     1       1.035   7.502  20.932  0.00  0.00    +0.000 C 
BRANCH  17  18
ATOM     18  N   UNL     1       1.579   8.868  21.111  0.00  0.00    +0.000 NA
ATOM     19  C   UNL     1       0.845   9.881  20.298  0.00  0.00    +0.000 C 
ATOM     20  C   UNL     1      -0.631  10.096  20.698  0.00  0.00    +0.000 C 
ATOM     21  N   UNL     1      -0.742  10.427  22.125  0.00  0.00    +0.000 N 
ATOM     22  C   UNL     1      -0.001   9.560  23.052  0.00  0.00    +0.000 C 
ATOM     23  C   UNL     1       1.442   9.274  22.539  0.00  0.00    +0.000 C 
BRANCH  21  24
ATOM     24  C   UNL     1      -1.202  11.669  22.543  0.00  0.00    +0.000 A 
ATOM     25  C   UNL     1      -2.428  11.768  23.225  0.00  0.00    +0.000 A 
ATOM     26  C   UNL     1      -2.954  13.003  23.626  0.00  0.00    +0.000 A 
ATOM     27  C   UNL     1      -2.261  14.179  23.362  0.00  0.00    +0.000 A 
ATOM     28  C   UNL     1      -1.041  14.116  22.697  0.00  0.00    +0.000 A 
ATOM     29  C   UNL     1      -0.528  12.880  22.297  0.00  0.00    +0.000 A 
ATOM     30  F   UNL     1       0.674  12.882  21.695  0.00  0.00    +0.000 F 
ENDBRANCH  21  24
ENDBRANCH  17  18
ENDBRANCH   2  17
TORSDOF 6
ENDMDL
MODEL 7
REMARK VINA RESULT:      -7.3      2.075      2.631
REMARK  Name = 
REMARK  8 active torsions:
REMARK  status: ('A' for Active; 'I' for Inactive)
REMARK    1  A    between atoms: C_1  and  O_2
REMARK    2  A    between atoms: O_2  and  C_3
REMARK    3  A    between atoms: C_5  and  N_6
REMARK    4  A    between atoms: C_7  and  C_9
REMARK    5  A    between atoms: C_9  and  N_10
REMARK    6  A    between atoms: N_13  and  C_14
REMARK    7  A    between atoms: C_23  and  C_24
REMARK    8  A    between atoms: C_26  and  N_27
REMARK                            x       y       z     vdW  Elec       q    Type
REMARK                         _______ _______ _______ _____ _____    ______ ____
ROOT
ATOM      1  N   UNL     1       2.497   7.202  19.886  0.00  0.00    +0.000 N 
ATOM      2  C   UNL     1       2.195   8.056  18.833  0.00  0.00    +0.000 C 
ATOM      3  O   UNL     1       2.333   7.814  17.635  0.00  0.00    +0.000 OA
ATOM      4  H   UNL     1       2.538   7.658  20.792  0.00  0.00    +0.000 HD
ENDROOT
BRANCH   1   7
ATOM      5  C   UNL     1       4.778   4.292  19.273  0.00  0.00    +0.000 A 
ATOM      6  C   UNL     1       4.268   5.592  19.356  0.00  0.00    +0.000 A 
ATOM      7  C   UNL     1       2.951   5.865  19.774  0.00  0.00    +0.000 A 
ATOM      8  C   UNL     1       2.091   4.783  20.064  0.00  0.00    +0.000 A 
ATOM      9  C   UNL     1       0.656   4.937  20.491  0.00  0.00    +0.000 C 
ATOM     10  C   UNL     1       2.579   3.468  19.924  0.00  0.00    +0.000 A 
ATOM     11  C   UNL     1       3.910   3.242  19.551  0.00  0.00    +0.000 A 
BRANCH  11  12
ATOM     12  N   UNL     1       4.377   1.873  19.479  0.00  0.00    +0.000 N 
ATOM     13  O   UNL     1       5.129   1.473  20.380  0.00  0.00    +0.000 OA
ATOM     14  O   UNL     1       3.930   1.182  18.551  0.00  0.00    +0.000 OA
ENDBRANCH  11  12
BRANCH   5  16
ATOM     15  C   UNL     1       6.546   4.759  17.766  0.00  0.00    +0.000 C 
ATOM     16  O   UNL     1       6.057   4.009  18.877  0.00  0.00    +0.000 OA
ENDBRANCH   5  16
ENDBRANCH   1   7
BRANCH   2  17
ATOM     17  C   UNL     1       1.656   9.418  19.277  0.00  0.00    +0.000 C 
BRANCH  17  18
ATOM     18  N   UNL     1       0.222   9.363  19.641  0.00  0.00    +0.000 NA
ATOM     19  C   UNL     1       0.017   9.180  21.109  0.00  0.00    +0.000 C 
ATOM     20  C   UNL     1       0.502  10.353  21.987  0.00  0.00    +0.000 C 
ATOM     21  N   UNL     1      -0.108  11.617  21.554  0.00  0.00    +0.000 N 
ATOM     22  C   UNL     1      -0.058  11.902  20.113  0.00  0.00    +0.000 C 
ATOM     23  C   UNL     1      -0.436  10.648  19.268  0.00  0.00    +0.000 C 
BRANCH  21  24
ATOM     24  C   UNL     1      -0.986  12.313  22.375  0.00  0.00    +0.000 A 
ATOM     25  C   UNL     1      -2.181  11.703  22.798  0.00  0.00    +0.000 A 
ATOM     26  C   UNL     1      -3.119  12.381  23.588  0.00  0.00    +0.000 A 
ATOM     27  C   UNL     1      -2.883  13.692  23.985  0.00  0.00    +0.000 A 
ATOM     28  C   UNL     1      -1.708  14.323  23.591  0.00  0.00    +0.000 A 
ATOM     29  C   UNL     1      -0.782  13.640  22.800  0.00  0.00    +0.000 A 
ATOM     30  F   UNL     1       0.353  14.289  22.486  0.00  0.00    +0.000 F 
ENDBRANCH  21  24
ENDBRANCH  17  18
ENDBRANCH   2  17
TORSDOF 6
ENDMDL
MODEL 8
REMARK VINA RESULT:      -7.3      1.266      1.550
REMARK  Name = 
REMARK  8 active torsions:
REMARK  status: ('A' for Active; 'I' for Inactive)
REMARK    1  A    between atoms: C_1  and  O_2
REMARK    2  A    between atoms: O_2  and  C_3
REMARK    3  A    between atoms: C_5  and  N_6
REMARK    4  A    between atoms: C_7  and  C_9
REMARK    5  A    between atoms: C_9  and  N_10
REMARK    6  A    between atoms: N_13  and  C_14
REMARK    7  A    between atoms: C_23  and  C_24
REMARK    8  A    between atoms: C_26  and  N_27
REMARK                            x       y       z     vdW  Elec       q    Type
REMARK                         _______ _______ _______ _____ _____    ______ ____
ROOT
ATOM      1  N   UNL     1       2.883   7.436  18.684  0.00  0.00    +0.000 N 
ATOM      2  C   UNL     1       2.193   8.534  18.184  0.00  0.00    +0.000 C 
ATOM      3  O   UNL     1       2.360   9.063  17.086  0.00  0.00    +0.000 OA
ATOM      4  H   UNL     1       2.771   7.295  19.682  0.00  0.00    +0.000 HD
ENDROOT
BRANCH   1   7
ATOM      5  C   UNL     1       6.119   6.523  17.027  0.00  0.00    +0.000 A 
ATOM      6  C   UNL     1       5.106   7.245  17.669  0.00  0.00    +0.000 A 
ATOM      7  C   UNL     1       3.859   6.677  17.992  0.00  0.00    +0.000 A 
ATOM      8  C   UNL     1       3.594   5.346  17.601  0.00  0.00    +0.000 A 
ATOM      9  C   UNL     1       2.294   4.634  17.859  0.00  0.00    +0.000 C 
ATOM     10  C   UNL     1       4.587   4.631  16.901  0.00  0.00    +0.000 A 
ATOM     11  C   UNL     1       5.832   5.218  16.641  0.00  0.00    +0.000 A 
BRANCH  11  12
ATOM     12  N   UNL     1       6.838   4.420  15.970  0.00  0.00    +0.000 N 
ATOM     13  O   UNL     1       6.642   4.126  14.782  0.00  0.00    +0.000 OA
ATOM     14  O   UNL     1       7.857   4.148  16.624  0.00  0.00    +0.000 OA
ENDBRANCH  11  12
BRANCH   5  16
ATOM     15  C   UNL     1       7.808   8.091  17.576  0.00  0.00    +0.000 C 
ATOM     16  O   UNL     1       7.340   7.054  16.714  0.00  0.00    +0.000 OA
ENDBRANCH   5  16
ENDBRANCH   1   7
BRANCH   2  17
ATOM     17  C   UNL     1       1.147   9.098  19.149  0.00  0.00    +0.000 C 
BRANCH  17  18
ATOM     18  N   UNL     1       0.496  10.318  18.620  0.00  0.00    +0.000 NA
ATOM     19  C   UNL     1      -0.886  10.500  19.156  0.00  0.00    +0.000 C 
ATOM     20  C   UNL     1      -0.969  10.754  20.676  0.00  0.00    +0.000 C 
ATOM     21  N   UNL     1      -0.133  11.898  21.061  0.00  0.00    +0.000 N 
ATOM     22  C   UNL     1       1.241  11.902  20.538  0.00  0.00    +0.000 C 
ATOM     23  C   UNL     1       1.281  11.518  19.029  0.00  0.00    +0.000 C 
BRANCH  21  24
ATOM     24  C   UNL     1      -0.693  13.064  21.567  0.00  0.00    +0.000 A 
ATOM     25  C   UNL     1      -0.949  13.177  22.945  0.00  0.00    +0.000 A 
ATOM     26  C   UNL     1      -1.554  14.315  23.495  0.00  0.00    +0.000 A 
ATOM     27  C   UNL     1      -1.916  15.380  22.677  0.00  0.00    +0.000 A 
ATOM     28  C   UNL     1      -1.670  15.304  21.310  0.00  0.00    +0.000 A 
ATOM     29  C   UNL     1      -1.070  14.164  20.772  0.00  0.00    +0.000 A 
ATOM     30  F   UNL     1      -0.822  14.167  19.451  0.00  0.00    +0.000 F 
ENDBRANCH  21  24
ENDBRANCH  17  18
ENDBRANCH   2  17
TORSDOF 6
ENDMDL
MODEL 9
REMARK VINA RESULT:      -7.3      0.899      1.100
REMARK  Name = 
REMARK  8 active torsions:
REMARK  status: ('A' for Active; 'I' for Inactive)
REMARK    1  A    between atoms: C_1  and  O_2
REMARK    2  A    between atoms: O_2  and  C_3
REMARK    3  A    between atoms: C_5  and  N_6
REMARK    4  A    between atoms: C_7  and  C_9
REMARK    5  A    between atoms: C_9  and  N_10
REMARK    6  A    between atoms: N_13  and  C_14
REMARK    7  A    between atoms: C_23  and  C_24
REMARK    8  A    between atoms: C_26  and  N_27
REMARK                            x       y       z     vdW  Elec       q    Type
REMARK                         _______ _______ _______ _____ _____    ______ ____
ROOT
ATOM      1  N   UNL     1       2.429   6.860  19.547  0.00  0.00    +0.000 N 
ATOM      2  C   UNL     1       1.718   8.048  19.430  0.00  0.00    +0.000 C 
ATOM      3  O   UNL     1       1.713   8.802  18.457  0.00  0.00    +0.000 OA
ATOM      4  H   UNL     1       2.491   6.506  20.496  0.00  0.00    +0.000 HD
ENDROOT
BRANCH   1   7
ATOM      5  C   UNL     1       5.186   6.358  17.059  0.00  0.00    +0.000 A 
ATOM      6  C   UNL     1       4.346   6.929  18.021  0.00  0.00    +0.000 A 
ATOM      7  C   UNL     1       3.222   6.257  18.540  0.00  0.00    +0.000 A 
ATOM      8  C   UNL     1       2.893   4.983  18.029  0.00  0.00    +0.000 A 
ATOM      9  C   UNL     1       1.705   4.175  18.475  0.00  0.00    +0.000 C 
ATOM     10  C   UNL     1       3.701   4.426  17.015  0.00  0.00    +0.000 A 
ATOM     11  C   UNL     1       4.837   5.108  16.561  0.00  0.00    +0.000 A 
BRANCH  11  12
ATOM     12  N   UNL     1       5.666   4.466  15.561  0.00  0.00    +0.000 N 
ATOM     13  O   UNL     1       6.654   3.831  15.955  0.00  0.00    +0.000 OA
ATOM     14  O   UNL     1       5.279   4.546  14.385  0.00  0.00    +0.000 OA
ENDBRANCH  11  12
BRANCH   5  16
ATOM     15  C   UNL     1       7.333   7.269  17.482  0.00  0.00    +0.000 C 
ATOM     16  O   UNL     1       6.287   6.992  16.551  0.00  0.00    +0.000 OA
ENDBRANCH   5  16
ENDBRANCH   1   7
BRANCH   2  17
ATOM     17  C   UNL     1       0.895   8.402  20.670  0.00  0.00    +0.000 C 
BRANCH  17  18
ATOM     18  N   UNL     1       1.383   9.631  21.337  0.00  0.00    +0.000 NA
ATOM     19  C   UNL     1       0.840  10.871  20.706  0.00  0.00    +0.000 C 
ATOM     20  C   UNL     1      -0.687  11.053  20.831  0.00  0.00    +0.000 C 
ATOM     21  N   UNL     1      -1.109  10.985  22.236  0.00  0.00    +0.000 N 
ATOM     22  C   UNL     1      -0.586   9.854  23.016  0.00  0.00    +0.000 C 
ATOM     23  C   UNL     1       0.936   9.636  22.759  0.00  0.00    +0.000 C 
BRANCH  21  24
ATOM     24  C   UNL     1      -1.653  12.088  22.880  0.00  0.00    +0.000 A 
ATOM     25  C   UNL     1      -2.916  11.991  23.490  0.00  0.00    +0.000 A 
ATOM     26  C   UNL     1      -3.525  13.089  24.112  0.00  0.00    +0.000 A 
ATOM     27  C   UNL     1      -2.880  14.319  24.148  0.00  0.00    +0.000 A 
ATOM     28  C   UNL     1      -1.625  14.449  23.562  0.00  0.00    +0.000 A 
ATOM     29  C   UNL     1      -1.030  13.349  22.941  0.00  0.00    +0.000 A 
ATOM     30  F   UNL     1       0.200  13.527  22.429  0.00  0.00    +0.000 F 
ENDBRANCH  21  24
ENDBRANCH  17  18
ENDBRANCH   2  17
TORSDOF 6
ENDMDL
