MODEL 1
REMARK VINA RESULT:      -8.7      0.000      0.000
REMARK  Name = 
REMARK  7 active torsions:
REMARK  status: ('A' for Active; 'I' for Inactive)
REMARK    1  A    between atoms: C_1  and  O_2
REMARK    2  A    between atoms: O_2  and  C_3
REMARK    3  A    between atoms: C_6  and  C_7
REMARK    4  A    between atoms: C_7  and  N_8
REMARK    5  A    between atoms: N_8  and  C_9
REMARK    6  A    between atoms: N_18  and  C_19
REMARK    7  A    between atoms: C_19  and  C_20
REMARK                            x       y       z     vdW  Elec       q    Type
REMARK                         _______ _______ _______ _____ _____    ______ ____
ROOT
ATOM      1  C   UNL     1      -1.435  12.494  21.645  0.00  0.00    +0.000 C 
ATOM      2  C   UNL     1      -0.820  11.603  22.754  0.00  0.00    +0.000 C 
ATOM      3  C   UNL     1      -0.321  10.253  22.216  0.00  0.00    +0.000 C 
ATOM      4  C   UNL     1       0.389  10.397  20.902  0.00  0.00    +0.000 A 
ATOM      5  C   UNL     1       0.364  11.571  20.173  0.00  0.00    +0.000 A 
ATOM      6  S   UNL     1       1.173  11.439  18.683  0.00  0.00    +0.000 S 
ATOM      7  C   UNL     1       1.547   9.797  18.969  0.00  0.00    +0.000 A 
ATOM      8  N   UNL     1       2.212   9.041  18.054  0.00  0.00    +0.000 NA
ATOM      9  C   UNL     1       2.447   7.827  18.438  0.00  0.00    +0.000 A 
ATOM     10  N   UNL     1       2.075   7.271  19.652  0.00  0.00    +0.000 N 
ATOM     11  C   UNL     1       1.358   8.001  20.595  0.00  0.00    +0.000 A 
ATOM     12  O   UNL     1       0.974   7.541  21.667  0.00  0.00    +0.000 OA
ATOM     13  C   UNL     1       1.094   9.374  20.200  0.00  0.00    +0.000 A 
ATOM     14  C   UNL     1      -0.317  12.833  20.619  0.00  0.00    +0.000 C 
ENDROOT
BRANCH   1  15
ATOM     15  N   UNL     1      -2.582  11.865  20.955  0.00  0.00    +0.000 NA
ATOM     16  H   UNL     1      -2.288  10.992  20.526  0.00  0.00    +0.000 HD
BRANCH  15  17
ATOM     17  C   UNL     1      -3.185  12.728  19.940  0.00  0.00    +0.000 C 
BRANCH  17  21
ATOM     18  C   UNL     1      -3.905  10.754  16.253  0.00  0.00    +0.000 A 
ATOM     19  C   UNL     1      -2.602  10.740  16.724  0.00  0.00    +0.000 A 
ATOM     20  C   UNL     1      -2.327  11.398  17.919  0.00  0.00    +0.000 A 
ATOM     21  C   UNL     1      -3.357  12.044  18.608  0.00  0.00    +0.000 A 
ATOM     22  C   UNL     1      -4.637  11.949  18.069  0.00  0.00    +0.000 A 
ATOM     23  N   UNL     1      -4.934  11.329  16.908  0.00  0.00    +0.000 NA
BRANCH  18  25
ATOM     24  C   UNL     1      -2.965  10.068  14.248  0.00  0.00    +0.000 C 
ATOM     25  O   UNL     1      -4.146  10.129  15.047  0.00  0.00    +0.000 OA
ENDBRANCH  18  25
ENDBRANCH  17  21
ENDBRANCH  15  17
ENDBRANCH   1  15
BRANCH  10  26
ATOM     26  C   UNL     1       2.482   5.914  19.993  0.00  0.00    +0.000 C 
BRANCH  26  27
ATOM     27  C   UNL     1       3.301   5.288  18.881  0.00  0.00    +0.000 A 
ATOM     28  C   UNL     1       2.728   4.329  18.040  0.00  0.00    +0.000 A 
ATOM     29  C   UNL     1       3.417   3.871  16.915  0.00  0.00    +0.000 A 
ATOM     30  C   UNL     1       4.693   4.361  16.608  0.00  0.00    +0.000 A 
ATOM     31  C   UNL     1       5.346   3.989  15.420  0.00  0.00    +0.000 A 
ATOM     32  C   UNL     1       6.618   4.476  15.123  0.00  0.00    +0.000 A 
ATOM     33  C   UNL     1       7.275   5.300  16.031  0.00  0.00    +0.000 A 
ATOM     34  C   UNL     1       6.633   5.690  17.212  0.00  0.00    +0.000 A 
ATOM     35  C   UNL     1       5.326   5.256  17.496  0.00  0.00    +0.000 A 
ATOM     36  C   UNL     1       4.616   5.718  18.622  0.00  0.00    +0.000 A 
ENDBRANCH  26  27
ENDBRANCH  10  26
TORSDOF 6
ENDMDL
MODEL 2
REMARK VINA RESULT:      -8.6      2.185      3.168
REMARK  Name = 
REMARK  7 active torsions:
REMARK  status: ('A' for Active; 'I' for Inactive)
REMARK    1  A    between atoms: C_1  and  O_2
REMARK    2  A    between atoms: O_2  and  C_3
REMARK    3  A    between atoms: C_6  and  C_7
REMARK    4  A    between atoms: C_7  and  N_8
REMARK    5  A    between atoms: N_8  and  C_9
REMARK    6  A    between atoms: N_18  and  C_19
REMARK    7  A    between atoms: C_19  and  C_20
REMARK                            x       y       z     vdW  Elec       q    Type
REMARK                         _______ _______ _______ _____ _____    ______ ____
ROOT
ATOM      1  C   UNL     1      -3.791  13.505  22.350  0.00  0.00    +0.000 C 
ATOM      2  C   UNL     1      -2.997  12.911  23.542  0.00  0.00    +0.000 C 
ATOM      3  C   UNL     1      -2.111  11.726  23.128  0.00  0.00    +0.000 C 
ATOM      4  C   UNL     1      -1.415  11.971  21.821  0.00  0.00    +0.000 A 
ATOM      5  C   UNL     1      -1.741  13.032  20.997  0.00  0.00    +0.000 A 
ATOM      6  S   UNL     1      -0.864  13.029  19.541  0.00  0.00    +0.000 S 
ATOM      7  C   UNL     1      -0.050  11.589  19.969  0.00  0.00    +0.000 A 
ATOM      8  N   UNL     1       0.842  10.991  19.134  0.00  0.00    +0.000 NA
ATOM      9  C   UNL     1       1.395   9.927  19.622  0.00  0.00    +0.000 A 
ATOM     10  N   UNL     1       1.145   9.378  20.869  0.00  0.00    +0.000 N 
ATOM     11  C   UNL     1       0.209   9.939  21.734  0.00  0.00    +0.000 A 
ATOM     12  O   UNL     1      -0.075   9.468  22.832  0.00  0.00    +0.000 OA
ATOM     13  C   UNL     1      -0.418  11.145  21.221  0.00  0.00    +0.000 A 
ATOM     14  C   UNL     1      -2.772  14.074  21.323  0.00  0.00    +0.000 C 
ENDROOT
BRANCH   1  15
ATOM     15  N   UNL     1      -4.680  12.523  21.691  0.00  0.00    +0.000 NA
ATOM     16  H   UNL     1      -4.137  11.723  21.379  0.00  0.00    +0.000 HD
BRANCH  15  17
ATOM     17  C   UNL     1      -5.413  13.086  20.557  0.00  0.00    +0.000 C 
BRANCH  17  21
ATOM     18  C   UNL     1      -4.604  11.342  16.774  0.00  0.00    +0.000 A 
ATOM     19  C   UNL     1      -3.841  10.897  17.842  0.00  0.00    +0.000 A 
ATOM     20  C   UNL     1      -4.066  11.465  19.092  0.00  0.00    +0.000 A 
ATOM     21  C   UNL     1      -5.043  12.453  19.241  0.00  0.00    +0.000 A 
ATOM     22  C   UNL     1      -5.785  12.785  18.110  0.00  0.00    +0.000 A 
ATOM     23  N   UNL     1      -5.584  12.261  16.882  0.00  0.00    +0.000 NA
BRANCH  18  25
ATOM     24  C   UNL     1      -2.961  10.434  15.413  0.00  0.00    +0.000 C 
ATOM     25  O   UNL     1      -4.337  10.793  15.536  0.00  0.00    +0.000 OA
ENDBRANCH  18  25
ENDBRANCH  17  21
ENDBRANCH  15  17
ENDBRANCH   1  15
BRANCH  10  26
ATOM     26  C   UNL     1       1.906   8.224  21.330  0.00  0.00    +0.000 C 
BRANCH  26  27
ATOM     27  C   UNL     1       1.872   7.100  20.313  0.00  0.00    +0.000 A 
ATOM     28  C   UNL     1       2.423   7.288  19.040  0.00  0.00    +0.000 A 
ATOM     29  C   UNL     1       2.547   6.213  18.157  0.00  0.00    +0.000 A 
ATOM     30  C   UNL     1       2.123   4.930  18.526  0.00  0.00    +0.000 A 
ATOM     31  C   UNL     1       2.346   3.824  17.688  0.00  0.00    +0.000 A 
ATOM     32  C   UNL     1       1.918   2.550  18.058  0.00  0.00    +0.000 A 
ATOM     33  C   UNL     1       1.218   2.373  19.247  0.00  0.00    +0.000 A 
ATOM     34  C   UNL     1       0.999   3.461  20.099  0.00  0.00    +0.000 A 
ATOM     35  C   UNL     1       1.480   4.741  19.767  0.00  0.00    +0.000 A 
ATOM     36  C   UNL     1       1.369   5.831  20.653  0.00  0.00    +0.000 A 
ENDBRANCH  26  27
ENDBRANCH  10  26
TORSDOF 6
ENDMDL
MODEL 3
REMARK VINA RESULT:      -8.6      2.780     10.058
REMARK  Name = 
REMARK  7 active torsions:
REMARK  status: ('A' for Active; 'I' for Inactive)
REMARK    1  A    between atoms: C_1  and  O_2
REMARK    2  A    between atoms: O_2  and  C_3
REMARK    3  A    between atoms: C_6  and  C_7
REMARK    4  A    between atoms: C_7  and  N_8
REMARK    5  A    between atoms: N_8  and  C_9
REMARK    6  A    between atoms: N_18  and  C_19
REMARK    7  A    between atoms: C_19  and  C_20
REMARK                            x       y       z     vdW  Elec       q    Type
REMARK                         _______ _______ _______ _____ _____    ______ ____
ROOT
ATOM      1  C   UNL     1       3.001   5.509  19.059  0.00  0.00    +0.000 C 
ATOM      2  C   UNL     1       1.873   5.372  20.114  0.00  0.00    +0.000 C 
ATOM      3  C   UNL     1       1.555   6.704  20.812  0.00  0.00    +0.000 C 
ATOM      4  C   UNL     1       1.535   7.855  19.850  0.00  0.00    +0.000 A 
ATOM      5  C   UNL     1       1.992   7.740  18.550  0.00  0.00    +0.000 A 
ATOM      6  S   UNL     1       1.940   9.213  17.702  0.00  0.00    +0.000 S 
ATOM      7  C   UNL     1       1.332  10.042  19.066  0.00  0.00    +0.000 A 
ATOM      8  N   UNL     1       1.091  11.380  19.045  0.00  0.00    +0.000 NA
ATOM      9  C   UNL     1       0.601  11.848  20.149  0.00  0.00    +0.000 A 
ATOM     10  N   UNL     1       0.330  11.117  21.295  0.00  0.00    +0.000 N 
ATOM     11  C   UNL     1       0.603   9.754  21.366  0.00  0.00    +0.000 A 
ATOM     12  O   UNL     1       0.416   9.071  22.370  0.00  0.00    +0.000 OA
ATOM     13  C   UNL     1       1.138   9.195  20.137  0.00  0.00    +0.000 A 
ATOM     14  C   UNL     1       2.505   6.468  17.940  0.00  0.00    +0.000 C 
ENDROOT
BRANCH   1  15
ATOM     15  N   UNL     1       4.275   6.004  19.623  0.00  0.00    +0.000 NA
ATOM     16  H   UNL     1       4.510   6.901  19.208  0.00  0.00    +0.000 HD
BRANCH  15  17
ATOM     17  C   UNL     1       5.387   5.073  19.431  0.00  0.00    +0.000 C 
BRANCH  17  21
ATOM     18  C   UNL     1       6.783   5.143  15.424  0.00  0.00    +0.000 A 
ATOM     19  C   UNL     1       5.849   4.169  15.742  0.00  0.00    +0.000 A 
ATOM     20  C   UNL     1       5.388   4.104  17.054  0.00  0.00    +0.000 A 
ATOM     21  C   UNL     1       5.866   5.011  18.004  0.00  0.00    +0.000 A 
ATOM     22  C   UNL     1       6.763   5.980  17.559  0.00  0.00    +0.000 A 
ATOM     23  N   UNL     1       7.237   6.062  16.299  0.00  0.00    +0.000 NA
BRANCH  18  25
ATOM     24  C   UNL     1       6.638   4.149  13.334  0.00  0.00    +0.000 C 
ATOM     25  O   UNL     1       7.254   5.163  14.127  0.00  0.00    +0.000 OA
ENDBRANCH  18  25
ENDBRANCH  17  21
ENDBRANCH  15  17
ENDBRANCH   1  15
BRANCH  10  26
ATOM     26  C   UNL     1      -0.306  11.755  22.440  0.00  0.00    +0.000 C 
BRANCH  26  27
ATOM     27  C   UNL     1      -1.718  12.197  22.111  0.00  0.00    +0.000 A 
ATOM     28  C   UNL     1      -2.129  12.302  20.778  0.00  0.00    +0.000 A 
ATOM     29  C   UNL     1      -3.468  12.545  20.467  0.00  0.00    +0.000 A 
ATOM     30  C   UNL     1      -4.424  12.690  21.480  0.00  0.00    +0.000 A 
ATOM     31  C   UNL     1      -5.789  12.823  21.175  0.00  0.00    +0.000 A 
ATOM     32  C   UNL     1      -6.736  12.973  22.188  0.00  0.00    +0.000 A 
ATOM     33  C   UNL     1      -6.325  13.039  23.516  0.00  0.00    +0.000 A 
ATOM     34  C   UNL     1      -4.971  12.895  23.837  0.00  0.00    +0.000 A 
ATOM     35  C   UNL     1      -4.013  12.682  22.829  0.00  0.00    +0.000 A 
ATOM     36  C   UNL     1      -2.660  12.426  23.131  0.00  0.00    +0.000 A 
ENDBRANCH  26  27
ENDBRANCH  10  26
TORSDOF 6
ENDMDL
MODEL 4
REMARK VINA RESULT:      -8.5      2.791      9.853
REMARK  Name = 
REMARK  7 active torsions:
REMARK  status: ('A' for Active; 'I' for Inactive)
REMARK    1  A    between atoms: C_1  and  O_2
REMARK    2  A    between atoms: O_2  and  C_3
REMARK    3  A    between atoms: C_6  and  C_7
REMARK    4  A    between atoms: C_7  and  N_8
REMARK    5  A    between atoms: N_8  and  C_9
REMARK    6  A    between atoms: N_18  and  C_19
REMARK    7  A    between atoms: C_19  and  C_20
REMARK                            x       y       z     vdW  Elec       q    Type
REMARK                         _______ _______ _______ _____ _____    ______ ____
ROOT
ATOM      1  C   UNL     1       2.700   5.458  19.440  0.00  0.00    +0.000 C 
ATOM      2  C   UNL     1       1.661   5.638  20.576  0.00  0.00    +0.000 C 
ATOM      3  C   UNL     1       1.537   7.100  21.034  0.00  0.00    +0.000 C 
ATOM      4  C   UNL     1       1.545   8.057  19.879  0.00  0.00    +0.000 A 
ATOM      5  C   UNL     1       1.874   7.663  18.594  0.00  0.00    +0.000 A 
ATOM      6  S   UNL     1       1.892   8.957  17.493  0.00  0.00    +0.000 S 
ATOM      7  C   UNL     1       1.490  10.078  18.717  0.00  0.00    +0.000 A 
ATOM      8  N   UNL     1       1.381  11.410  18.465  0.00  0.00    +0.000 NA
ATOM      9  C   UNL     1       1.036  12.119  19.492  0.00  0.00    +0.000 A 
ATOM     10  N   UNL     1       0.796  11.638  20.770  0.00  0.00    +0.000 N 
ATOM     11  C   UNL     1       0.939  10.287  21.074  0.00  0.00    +0.000 A 
ATOM     12  O   UNL     1       0.774   9.819  22.198  0.00  0.00    +0.000 OA
ATOM     13  C   UNL     1       1.308   9.463  19.937  0.00  0.00    +0.000 A 
ATOM     14  C   UNL     1       2.205   6.253  18.198  0.00  0.00    +0.000 C 
ENDROOT
BRANCH   1  15
ATOM     15  N   UNL     1       4.061   5.900  19.815  0.00  0.00    +0.000 NA
ATOM     16  H   UNL     1       4.312   6.729  19.284  0.00  0.00    +0.000 HD
BRANCH  15  17
ATOM     17  C   UNL     1       5.075   4.866  19.610  0.00  0.00    +0.000 C 
BRANCH  17  21
ATOM     18  C   UNL     1       6.886   5.198  15.787  0.00  0.00    +0.000 A 
ATOM     19  C   UNL     1       5.782   4.367  15.884  0.00  0.00    +0.000 A 
ATOM     20  C   UNL     1       5.178   4.217  17.129  0.00  0.00    +0.000 A 
ATOM     21  C   UNL     1       5.689   4.902  18.235  0.00  0.00    +0.000 A 
ATOM     22  C   UNL     1       6.769   5.752  18.010  0.00  0.00    +0.000 A 
ATOM     23  N   UNL     1       7.383   5.909  16.818  0.00  0.00    +0.000 NA
BRANCH  18  25
ATOM     24  C   UNL     1       6.868   4.443  13.595  0.00  0.00    +0.000 C 
ATOM     25  O   UNL     1       7.491   5.300  14.551  0.00  0.00    +0.000 OA
ENDBRANCH  18  25
ENDBRANCH  17  21
ENDBRANCH  15  17
ENDBRANCH   1  15
BRANCH  10  26
ATOM     26  C   UNL     1       0.328  12.536  21.817  0.00  0.00    +0.000 C 
BRANCH  26  27
ATOM     27  C   UNL     1      -1.177  12.457  21.979  0.00  0.00    +0.000 A 
ATOM     28  C   UNL     1      -1.741  12.321  23.252  0.00  0.00    +0.000 A 
ATOM     29  C   UNL     1      -3.122  12.414  23.428  0.00  0.00    +0.000 A 
ATOM     30  C   UNL     1      -3.970  12.643  22.337  0.00  0.00    +0.000 A 
ATOM     31  C   UNL     1      -5.348  12.849  22.520  0.00  0.00    +0.000 A 
ATOM     32  C   UNL     1      -6.188  13.071  21.429  0.00  0.00    +0.000 A 
ATOM     33  C   UNL     1      -5.669  13.042  20.138  0.00  0.00    +0.000 A 
ATOM     34  C   UNL     1      -4.297  12.852  19.940  0.00  0.00    +0.000 A 
ATOM     35  C   UNL     1      -3.429  12.687  21.035  0.00  0.00    +0.000 A 
ATOM     36  C   UNL     1      -2.032  12.603  20.871  0.00  0.00    +0.000 A 
ENDBRANCH  26  27
ENDBRANCH  10  26
TORSDOF 6
ENDMDL
MODEL 5
REMARK VINA RESULT:      -8.4      5.266      7.989
REMARK  Name = 
REMARK  7 active torsions:
REMARK  status: ('A' for Active; 'I' for Inactive)
REMARK    1  A    between atoms: C_1  and  O_2
REMARK    2  A    between atoms: O_2  and  C_3
REMARK    3  A    between atoms: C_6  and  C_7
REMARK    4  A    between atoms: C_7  and  N_8
REMARK    5  A    between atoms: N_8  and  C_9
REMARK    6  A    between atoms: N_18  and  C_19
REMARK    7  A    between atoms: C_19  and  C_20
REMARK                            x       y       z     vdW  Elec       q    Type
REMARK                         _______ _______ _______ _____ _____    ______ ____
ROOT
ATOM      1  C   UNL     1       4.903  16.547  19.474  0.00  0.00    +0.000 C 
ATOM      2  C   UNL     1       4.401  16.073  18.086  0.00  0.00    +0.000 C 
ATOM      3  C   UNL     1       3.808  14.655  18.127  0.00  0.00    +0.000 C 
ATOM      4  C   UNL     1       2.952  14.436  19.340  0.00  0.00    +0.000 A 
ATOM      5  C   UNL     1       2.920  15.330  20.394  0.00  0.00    +0.000 A 
ATOM      6  S   UNL     1       1.939  14.800  21.678  0.00  0.00    +0.000 S 
ATOM      7  C   UNL     1       1.560  13.348  20.862  0.00  0.00    +0.000 A 
ATOM      8  N   UNL     1       0.773  12.392  21.425  0.00  0.00    +0.000 NA
ATOM      9  C   UNL     1       0.555  11.368  20.662  0.00  0.00    +0.000 A 
ATOM     10  N   UNL     1       1.053  11.185  19.382  0.00  0.00    +0.000 N 
ATOM     11  C   UNL     1       1.894  12.123  18.790  0.00  0.00    +0.000 A 
ATOM     12  O   UNL     1       2.389  11.988  17.675  0.00  0.00    +0.000 OA
ATOM     13  C   UNL     1       2.144  13.292  19.615  0.00  0.00    +0.000 A 
ATOM     14  C   UNL     1       3.681  16.625  20.433  0.00  0.00    +0.000 C 
ENDROOT
BRANCH   1  15
ATOM     15  N   UNL     1       5.945  15.670  20.052  0.00  0.00    +0.000 NA
ATOM     16  H   UNL     1       5.955  15.769  21.063  0.00  0.00    +0.000 HD
BRANCH  15  17
ATOM     17  C   UNL     1       7.281  15.943  19.523  0.00  0.00    +0.000 C 
BRANCH  17  21
ATOM     18  C   UNL     1       9.509  12.542  18.306  0.00  0.00    +0.000 A 
ATOM     19  C   UNL     1       8.395  12.862  17.547  0.00  0.00    +0.000 A 
ATOM     20  C   UNL     1       7.628  13.958  17.933  0.00  0.00    +0.000 A 
ATOM     21  C   UNL     1       7.998  14.702  19.057  0.00  0.00    +0.000 A 
ATOM     22  C   UNL     1       9.166  14.322  19.712  0.00  0.00    +0.000 A 
ATOM     23  N   UNL     1       9.923  13.258  19.370  0.00  0.00    +0.000 NA
BRANCH  18  25
ATOM     24  C   UNL     1      11.635  11.665  18.013  0.00  0.00    +0.000 C 
ATOM     25  O   UNL     1      10.231  11.428  17.928  0.00  0.00    +0.000 OA
ENDBRANCH  18  25
ENDBRANCH  17  21
ENDBRANCH  15  17
ENDBRANCH   1  15
BRANCH  10  26
ATOM     26  C   UNL     1       0.655  10.022  18.599  0.00  0.00    +0.000 C 
BRANCH  26  27
ATOM     27  C   UNL     1       1.591   8.854  18.832  0.00  0.00    +0.000 A 
ATOM     28  C   UNL     1       1.495   8.099  20.007  0.00  0.00    +0.000 A 
ATOM     29  C   UNL     1       2.236   6.926  20.157  0.00  0.00    +0.000 A 
ATOM     30  C   UNL     1       3.090   6.481  19.139  0.00  0.00    +0.000 A 
ATOM     31  C   UNL     1       3.752   5.246  19.236  0.00  0.00    +0.000 A 
ATOM     32  C   UNL     1       4.605   4.812  18.222  0.00  0.00    +0.000 A 
ATOM     33  C   UNL     1       4.844   5.628  17.120  0.00  0.00    +0.000 A 
ATOM     34  C   UNL     1       4.181   6.854  17.003  0.00  0.00    +0.000 A 
ATOM     35  C   UNL     1       3.272   7.278  17.989  0.00  0.00    +0.000 A 
ATOM     36  C   UNL     1       2.511   8.455  17.844  0.00  0.00    +0.000 A 
ENDBRANCH  26  27
ENDBRANCH  10  26
TORSDOF 6
ENDMDL
MODEL 6
REMARK VINA RESULT:      -8.1      3.349      4.798
REMARK  Name = 
REMARK  7 active torsions:
REMARK  status: ('A' for Active; 'I' for Inactive)
REMARK    1  A    between atoms: C_1  and  O_2
REMARK    2  A    between atoms: O_2  and  C_3
REMARK    3  A    between atoms: C_6  and  C_7
REMARK    4  A    between atoms: C_7  and  N_8
REMARK    5  A    between atoms: N_8  and  C_9
REMARK    6  A    between atoms: N_18  and  C_19
REMARK    7  A    between atoms: C_19  and  C_20
REMARK                            x       y       z     vdW  Elec       q    Type
REMARK                         _______ _______ _______ _____ _____    ______ ____
ROOT
ATOM      1  C   UNL     1      -1.625  13.569  22.687  0.00  0.00    +0.000 C 
ATOM      2  C   UNL     1      -2.081  13.425  21.212  0.00  0.00    +0.000 C 
ATOM      3  C   UNL     1      -1.127  12.550  20.383  0.00  0.00    +0.000 C 
ATOM      4  C   UNL     1      -0.670  11.338  21.141  0.00  0.00    +0.000 A 
ATOM      5  C   UNL     1      -0.899  11.183  22.496  0.00  0.00    +0.000 A 
ATOM      6  S   UNL     1      -0.203   9.765  23.124  0.00  0.00    +0.000 S 
ATOM      7  C   UNL     1       0.446   9.343  21.601  0.00  0.00    +0.000 A 
ATOM      8  N   UNL     1       1.210   8.231  21.428  0.00  0.00    +0.000 NA
ATOM      9  C   UNL     1       1.595   8.036  20.207  0.00  0.00    +0.000 A 
ATOM     10  N   UNL     1       1.306   8.848  19.122  0.00  0.00    +0.000 N 
ATOM     11  C   UNL     1       0.561  10.015  19.269  0.00  0.00    +0.000 A 
ATOM     12  O   UNL     1       0.311  10.786  18.346  0.00  0.00    +0.000 OA
ATOM     13  C   UNL     1       0.100  10.253  20.625  0.00  0.00    +0.000 A 
ATOM     14  C   UNL     1      -1.658  12.161  23.346  0.00  0.00    +0.000 C 
ENDROOT
BRANCH   1  15
ATOM     15  N   UNL     1      -0.278  14.164  22.828  0.00  0.00    +0.000 NA
ATOM     16  H   UNL     1       0.083  13.979  23.760  0.00  0.00    +0.000 HD
BRANCH  15  17
ATOM     17  C   UNL     1      -0.259  15.605  22.577  0.00  0.00    +0.000 C 
BRANCH  17  21
ATOM     18  C   UNL     1       2.416  16.901  19.548  0.00  0.00    +0.000 A 
ATOM     19  C   UNL     1       1.296  16.199  19.132  0.00  0.00    +0.000 A 
ATOM     20  C   UNL     1       0.410  15.739  20.102  0.00  0.00    +0.000 A 
ATOM     21  C   UNL     1       0.665  15.997  21.452  0.00  0.00    +0.000 A 
ATOM     22  C   UNL     1       1.792  16.757  21.751  0.00  0.00    +0.000 A 
ATOM     23  N   UNL     1       2.676  17.207  20.835  0.00  0.00    +0.000 NA
BRANCH  18  25
ATOM     24  C   UNL     1       3.038  16.666  17.327  0.00  0.00    +0.000 C 
ATOM     25  O   UNL     1       3.300  17.313  18.572  0.00  0.00    +0.000 OA
ENDBRANCH  18  25
ENDBRANCH  17  21
ENDBRANCH  15  17
ENDBRANCH   1  15
BRANCH  10  26
ATOM     26  C   UNL     1       1.730   8.463  17.783  0.00  0.00    +0.000 C 
BRANCH  26  27
ATOM     27  C   UNL     1       2.769   7.360  17.829  0.00  0.00    +0.000 A 
ATOM     28  C   UNL     1       2.373   6.029  17.996  0.00  0.00    +0.000 A 
ATOM     29  C   UNL     1       3.302   4.994  17.874  0.00  0.00    +0.000 A 
ATOM     30  C   UNL     1       4.645   5.266  17.584  0.00  0.00    +0.000 A 
ATOM     31  C   UNL     1       5.562   4.227  17.349  0.00  0.00    +0.000 A 
ATOM     32  C   UNL     1       6.899   4.505  17.066  0.00  0.00    +0.000 A 
ATOM     33  C   UNL     1       7.347   5.822  17.062  0.00  0.00    +0.000 A 
ATOM     34  C   UNL     1       6.444   6.869  17.281  0.00  0.00    +0.000 A 
ATOM     35  C   UNL     1       5.081   6.606  17.506  0.00  0.00    +0.000 A 
ATOM     36  C   UNL     1       4.132   7.641  17.622  0.00  0.00    +0.000 A 
ENDBRANCH  26  27
ENDBRANCH  10  26
TORSDOF 6
ENDMDL
MODEL 7
REMARK VINA RESULT:      -8.0      3.757      5.817
REMARK  Name = 
REMARK  7 active torsions:
REMARK  status: ('A' for Active; 'I' for Inactive)
REMARK    1  A    between atoms: C_1  and  O_2
REMARK    2  A    between atoms: O_2  and  C_3
REMARK    3  A    between atoms: C_6  and  C_7
REMARK    4  A    between atoms: C_7  and  N_8
REMARK    5  A    between atoms: N_8  and  C_9
REMARK    6  A    between atoms: N_18  and  C_19
REMARK    7  A    between atoms: C_19  and  C_20
REMARK                            x       y       z     vdW  Elec       q    Type
REMARK                         _______ _______ _______ _____ _____    ______ ____
ROOT
ATOM      1  C   UNL     1      -1.680  13.117  22.675  0.00  0.00    +0.000 C 
ATOM      2  C   UNL     1      -1.900  13.123  21.140  0.00  0.00    +0.000 C 
ATOM      3  C   UNL     1      -0.825  12.323  20.388  0.00  0.00    +0.000 C 
ATOM      4  C   UNL     1      -0.489  11.037  21.084  0.00  0.00    +0.000 A 
ATOM      5  C   UNL     1      -0.925  10.753  22.365  0.00  0.00    +0.000 A 
ATOM      6  S   UNL     1      -0.330   9.272  22.950  0.00  0.00    +0.000 S 
ATOM      7  C   UNL     1       0.549   8.993  21.512  0.00  0.00    +0.000 A 
ATOM      8  N   UNL     1       1.334   7.894  21.352  0.00  0.00    +0.000 NA
ATOM      9  C   UNL     1       1.905   7.815  20.192  0.00  0.00    +0.000 A 
ATOM     10  N   UNL     1       1.786   8.733  19.161  0.00  0.00    +0.000 N 
ATOM     11  C   UNL     1       1.024   9.889  19.304  0.00  0.00    +0.000 A 
ATOM     12  O   UNL     1       0.918  10.749  18.434  0.00  0.00    +0.000 OA
ATOM     13  C   UNL     1       0.356   9.998  20.589  0.00  0.00    +0.000 A 
ATOM     14  C   UNL     1      -1.811  11.652  23.179  0.00  0.00    +0.000 C 
ENDROOT
BRANCH   1  15
ATOM     15  N   UNL     1      -0.373  13.679  23.082  0.00  0.00    +0.000 NA
ATOM     16  H   UNL     1      -0.246  13.563  24.084  0.00  0.00    +0.000 HD
BRANCH  15  17
ATOM     17  C   UNL     1      -0.223  15.092  22.733  0.00  0.00    +0.000 C 
BRANCH  17  21
ATOM     18  C   UNL     1      -2.903  17.477  24.999  0.00  0.00    +0.000 A 
ATOM     19  C   UNL     1      -3.136  17.402  23.635  0.00  0.00    +0.000 A 
ATOM     20  C   UNL     1      -2.262  16.646  22.859  0.00  0.00    +0.000 A 
ATOM     21  C   UNL     1      -1.188  15.988  23.465  0.00  0.00    +0.000 A 
ATOM     22  C   UNL     1      -1.083  16.090  24.850  0.00  0.00    +0.000 A 
ATOM     23  N   UNL     1      -1.906  16.824  25.628  0.00  0.00    +0.000 NA
BRANCH  18  25
ATOM     24  C   UNL     1      -5.122  18.021  25.393  0.00  0.00    +0.000 C 
ATOM     25  O   UNL     1      -3.760  18.264  25.741  0.00  0.00    +0.000 OA
ENDBRANCH  18  25
ENDBRANCH  17  21
ENDBRANCH  15  17
ENDBRANCH   1  15
BRANCH  10  26
ATOM     26  C   UNL     1       2.415   8.476  17.872  0.00  0.00    +0.000 C 
BRANCH  26  27
ATOM     27  C   UNL     1       2.831   7.024  17.742  0.00  0.00    +0.000 A 
ATOM     28  C   UNL     1       4.173   6.694  17.527  0.00  0.00    +0.000 A 
ATOM     29  C   UNL     1       4.591   5.362  17.572  0.00  0.00    +0.000 A 
ATOM     30  C   UNL     1       3.677   4.333  17.832  0.00  0.00    +0.000 A 
ATOM     31  C   UNL     1       4.107   3.004  17.989  0.00  0.00    +0.000 A 
ATOM     32  C   UNL     1       3.191   1.983  18.242  0.00  0.00    +0.000 A 
ATOM     33  C   UNL     1       1.831   2.269  18.293  0.00  0.00    +0.000 A 
ATOM     34  C   UNL     1       1.388   3.588  18.151  0.00  0.00    +0.000 A 
ATOM     35  C   UNL     1       2.305   4.637  17.956  0.00  0.00    +0.000 A 
ATOM     36  C   UNL     1       1.897   5.985  17.919  0.00  0.00    +0.000 A 
ENDBRANCH  26  27
ENDBRANCH  10  26
TORSDOF 6
ENDMDL
MODEL 8
REMARK VINA RESULT:      -7.9      3.540      5.387
REMARK  Name = 
REMARK  7 active torsions:
REMARK  status: ('A' for Active; 'I' for Inactive)
REMARK    1  A    between atoms: C_1  and  O_2
REMARK    2  A    between atoms: O_2  and  C_3
REMARK    3  A    between atoms: C_6  and  C_7
REMARK    4  A    between atoms: C_7  and  N_8
REMARK    5  A    between atoms: N_8  and  C_9
REMARK    6  A    between atoms: N_18  and  C_19
REMARK    7  A    between atoms: C_19  and  C_20
REMARK                            x       y       z     vdW  Elec       q    Type
REMARK                         _______ _______ _______ _____ _____    ______ ____
ROOT
ATOM      1  C   UNL     1      -1.285  13.618  20.456  0.00  0.00    +0.000 C 
ATOM      2  C   UNL     1      -1.243  13.273  18.946  0.00  0.00    +0.000 C 
ATOM      3  C   UNL     1      -0.136  12.262  18.603  0.00  0.00    +0.000 C 
ATOM      4  C   UNL     1      -0.042  11.162  19.619  0.00  0.00    +0.000 A 
ATOM      5  C   UNL     1      -0.712  11.212  20.827  0.00  0.00    +0.000 A 
ATOM      6  S   UNL     1      -0.365   9.882  21.828  0.00  0.00    +0.000 S 
ATOM      7  C   UNL     1       0.714   9.226  20.677  0.00  0.00    +0.000 A 
ATOM      8  N   UNL     1       1.410   8.082  20.914  0.00  0.00    +0.000 NA
ATOM      9  C   UNL     1       2.157   7.702  19.928  0.00  0.00    +0.000 A 
ATOM     10  N   UNL     1       2.299   8.355  18.714  0.00  0.00    +0.000 N 
ATOM     11  C   UNL     1       1.635   9.550  18.452  0.00  0.00    +0.000 A 
ATOM     12  O   UNL     1       1.757  10.184  17.408  0.00  0.00    +0.000 OA
ATOM     13  C   UNL     1       0.773   9.994  19.534  0.00  0.00    +0.000 A 
ATOM     14  C   UNL     1      -1.634  12.322  21.242  0.00  0.00    +0.000 C 
ENDROOT
BRANCH   1  15
ATOM     15  N   UNL     1      -0.019  14.192  20.962  0.00  0.00    +0.000 NA
ATOM     16  H   UNL     1      -0.051  14.256  21.976  0.00  0.00    +0.000 HD
BRANCH  15  17
ATOM     17  C   UNL     1       0.277  15.510  20.401  0.00  0.00    +0.000 C 
BRANCH  17  21
ATOM     18  C   UNL     1       4.197  16.012  18.854  0.00  0.00    +0.000 A 
ATOM     19  C   UNL     1       3.356  15.158  18.158  0.00  0.00    +0.000 A 
ATOM     20  C   UNL     1       2.071  14.953  18.652  0.00  0.00    +0.000 A 
ATOM     21  C   UNL     1       1.663  15.607  19.818  0.00  0.00    +0.000 A 
ATOM     22  C   UNL     1       2.573  16.483  20.404  0.00  0.00    +0.000 A 
ATOM     23  N   UNL     1       3.828  16.694  19.956  0.00  0.00    +0.000 NA
BRANCH  18  25
ATOM     24  C   UNL     1       6.057  14.914  18.013  0.00  0.00    +0.000 C 
ATOM     25  O   UNL     1       5.478  16.169  18.367  0.00  0.00    +0.000 OA
ENDBRANCH  18  25
ENDBRANCH  17  21
ENDBRANCH  15  17
ENDBRANCH   1  15
BRANCH  10  26
ATOM     26  C   UNL     1       3.109   7.768  17.654  0.00  0.00    +0.000 C 
BRANCH  26  27
ATOM     27  C   UNL     1       3.330   6.286  17.886  0.00  0.00    +0.000 A 
ATOM     28  C   UNL     1       4.612   5.802  18.167  0.00  0.00    +0.000 A 
ATOM     29  C   UNL     1       4.799   4.471  18.544  0.00  0.00    +0.000 A 
ATOM     30  C   UNL     1       3.710   3.596  18.649  0.00  0.00    +0.000 A 
ATOM     31  C   UNL     1       3.875   2.288  19.135  0.00  0.00    +0.000 A 
ATOM     32  C   UNL     1       2.789   1.419  19.231  0.00  0.00    +0.000 A 
ATOM     33  C   UNL     1       1.532   1.831  18.797  0.00  0.00    +0.000 A 
ATOM     34  C   UNL     1       1.349   3.134  18.323  0.00  0.00    +0.000 A 
ATOM     35  C   UNL     1       2.424   4.040  18.278  0.00  0.00    +0.000 A 
ATOM     36  C   UNL     1       2.246   5.388  17.908  0.00  0.00    +0.000 A 
ENDBRANCH  26  27
ENDBRANCH  10  26
TORSDOF 6
ENDMDL
MODEL 9
REMARK VINA RESULT:      -7.8      2.798      9.816
REMARK  Name = 
REMARK  7 active torsions:
REMARK  status: ('A' for Active; 'I' for Inactive)
REMARK    1  A    between atoms: C_1  and  O_2
REMARK    2  A    between atoms: O_2  and  C_3
REMARK    3  A    between atoms: C_6  and  C_7
REMARK    4  A    between atoms: C_7  and  N_8
REMARK    5  A    between atoms: N_8  and  C_9
REMARK    6  A    between atoms: N_18  and  C_19
REMARK    7  A    between atoms: C_19  and  C_20
REMARK                            x       y       z     vdW  Elec       q    Type
REMARK                         _______ _______ _______ _____ _____    ______ ____
ROOT
ATOM      1  C   UNL     1       3.501   4.028  18.989  0.00  0.00    +0.000 C 
ATOM      2  C   UNL     1       2.347   4.097  20.022  0.00  0.00    +0.000 C 
ATOM      3  C   UNL     1       2.090   5.528  20.524  0.00  0.00    +0.000 C 
ATOM      4  C   UNL     1       2.154   6.535  19.414  0.00  0.00    +0.000 A 
ATOM      5  C   UNL     1       2.630   6.219  18.154  0.00  0.00    +0.000 A 
ATOM      6  S   UNL     1       2.678   7.562  17.113  0.00  0.00    +0.000 S 
ATOM      7  C   UNL     1       2.091   8.602  18.334  0.00  0.00    +0.000 A 
ATOM      8  N   UNL     1       1.926   9.936  18.126  0.00  0.00    +0.000 NA
ATOM      9  C   UNL     1       1.441  10.576  19.141  0.00  0.00    +0.000 A 
ATOM     10  N   UNL     1       1.107  10.024  20.368  0.00  0.00    +0.000 N 
ATOM     11  C   UNL     1       1.300   8.671  20.631  0.00  0.00    +0.000 A 
ATOM     12  O   UNL     1       1.055   8.144  21.713  0.00  0.00    +0.000 OA
ATOM     13  C   UNL     1       1.828   7.922  19.504  0.00  0.00    +0.000 A 
ATOM     14  C   UNL     1       3.083   4.850  17.737  0.00  0.00    +0.000 C 
ENDROOT
BRANCH   1  15
ATOM     15  N   UNL     1       4.790   4.528  19.517  0.00  0.00    +0.000 NA
ATOM     16  H   UNL     1       4.686   5.491  19.823  0.00  0.00    +0.000 HD
BRANCH  15  17
ATOM     17  C   UNL     1       5.879   4.442  18.544  0.00  0.00    +0.000 C 
BRANCH  17  21
ATOM     18  C   UNL     1       7.914   8.094  17.815  0.00  0.00    +0.000 A 
ATOM     19  C   UNL     1       8.373   7.324  18.872  0.00  0.00    +0.000 A 
ATOM     20  C   UNL     1       7.713   6.131  19.153  0.00  0.00    +0.000 A 
ATOM     21  C   UNL     1       6.622   5.741  18.371  0.00  0.00    +0.000 A 
ATOM     22  C   UNL     1       6.281   6.566  17.302  0.00  0.00    +0.000 A 
ATOM     23  N   UNL     1       6.893   7.733  17.011  0.00  0.00    +0.000 NA
BRANCH  18  25
ATOM     24  C   UNL     1       9.007   9.887  18.797  0.00  0.00    +0.000 C 
ATOM     25  O   UNL     1       8.559   9.291  17.581  0.00  0.00    +0.000 OA
ENDBRANCH  18  25
ENDBRANCH  17  21
ENDBRANCH  15  17
ENDBRANCH   1  15
BRANCH  10  26
ATOM     26  C   UNL     1       0.485  10.846  21.398  0.00  0.00    +0.000 C 
BRANCH  26  27
ATOM     27  C   UNL     1      -0.795  11.484  20.895  0.00  0.00    +0.000 A 
ATOM     28  C   UNL     1      -1.251  11.220  19.599  0.00  0.00    +0.000 A 
ATOM     29  C   UNL     1      -2.507  11.667  19.186  0.00  0.00    +0.000 A 
ATOM     30  C   UNL     1      -3.334  12.387  20.057  0.00  0.00    +0.000 A 
ATOM     31  C   UNL     1      -4.642  12.743  19.686  0.00  0.00    +0.000 A 
ATOM     32  C   UNL     1      -5.459  13.464  20.556  0.00  0.00    +0.000 A 
ATOM     33  C   UNL     1      -4.963  13.882  21.787  0.00  0.00    +0.000 A 
ATOM     34  C   UNL     1      -3.667  13.524  22.176  0.00  0.00    +0.000 A 
ATOM     35  C   UNL     1      -2.854  12.744  21.334  0.00  0.00    +0.000 A 
ATOM     36  C   UNL     1      -1.588  12.279  21.744  0.00  0.00    +0.000 A 
ENDBRANCH  26  27
ENDBRANCH  10  26
TORSDOF 6
ENDMDL
