MODEL 1
REMARK VINA RESULT:      -8.9      0.000      0.000
REMARK  Name = 
REMARK  7 active torsions:
REMARK  status: ('A' for Active; 'I' for Inactive)
REMARK    1  A    between atoms: C_1  and  O_2
REMARK    2  A    between atoms: O_2  and  C_3
REMARK    3  A    between atoms: C_8  and  C_9
REMARK    4  A    between atoms: C_9  and  C_10
REMARK    5  A    between atoms: C_10  and  C_11
REMARK    6  A    between atoms: N_19  and  C_20
REMARK    7  A    between atoms: C_20  and  C_21
REMARK                            x       y       z     vdW  Elec       q    Type
REMARK                         _______ _______ _______ _____ _____    ______ ____
ROOT
ATOM      1  C   UNL     1      -0.427  10.958  22.681  0.00  0.00    +0.000 A 
ATOM      2  N   UNL     1       0.142   9.971  23.388  0.00  0.00    +0.000 NA
ATOM      3  C   UNL     1       0.812   9.048  22.673  0.00  0.00    +0.000 A 
ATOM      4  C   UNL     1       0.949   9.082  21.301  0.00  0.00    +0.000 A 
ATOM      5  N   UNL     1       1.671   8.084  20.629  0.00  0.00    +0.000 NA
ATOM      6  C   UNL     1       1.832   8.228  19.347  0.00  0.00    +0.000 A 
ATOM      7  C   UNL     1       1.333   9.455  18.584  0.00  0.00    +0.000 A 
ATOM      8  O   UNL     1       1.726   9.637  17.439  0.00  0.00    +0.000 OA
ATOM      9  N   UNL     1       0.465  10.288  19.273  0.00  0.00    +0.000 N 
ATOM     10  C   UNL     1       0.317  10.152  20.675  0.00  0.00    +0.000 A 
ATOM     11  N   UNL     1      -0.378  11.089  21.350  0.00  0.00    +0.000 NA
ENDROOT
BRANCH   1  13
ATOM     12  C   UNL     1      -2.521  11.894  23.067  0.00  0.00    +0.000 C 
ATOM     13  O   UNL     1      -1.125  11.951  23.331  0.00  0.00    +0.000 OA
ENDBRANCH   1  13
BRANCH   6  14
ATOM     14  C   UNL     1       2.584   7.189  18.546  0.00  0.00    +0.000 C 
BRANCH  14  15
ATOM     15  C   UNL     1       3.145   6.083  19.434  0.00  0.00    +0.000 C 
BRANCH  15  16
ATOM     16  C   UNL     1       2.405   4.785  19.239  0.00  0.00    +0.000 A 
ATOM     17  C   UNL     1       1.502   4.338  20.213  0.00  0.00    +0.000 A 
ATOM     18  C   UNL     1       0.797   3.149  20.029  0.00  0.00    +0.000 A 
ATOM     19  C   UNL     1       0.996   2.392  18.876  0.00  0.00    +0.000 A 
ATOM     20  C   UNL     1       1.912   2.814  17.914  0.00  0.00    +0.000 A 
ATOM     21  C   UNL     1       2.619   4.004  18.097  0.00  0.00    +0.000 A 
ENDBRANCH  15  16
ENDBRANCH  14  15
ENDBRANCH   6  14
BRANCH   9  22
ATOM     22  C   UNL     1      -0.132  11.430  18.597  0.00  0.00    +0.000 C 
BRANCH  22  23
ATOM     23  C   UNL     1      -1.605  11.275  18.259  0.00  0.00    +0.000 A 
ATOM     24  C   UNL     1      -2.033  10.245  17.403  0.00  0.00    +0.000 A 
ATOM     25  C   UNL     1      -3.397   9.993  17.218  0.00  0.00    +0.000 A 
ATOM     26  C   UNL     1      -4.339  10.780  17.882  0.00  0.00    +0.000 A 
ATOM     27  F   UNL     1      -5.642  10.498  17.746  0.00  0.00    +0.000 F 
ATOM     28  C   UNL     1      -3.938  11.819  18.709  0.00  0.00    +0.000 A 
ATOM     29  C   UNL     1      -2.576  12.083  18.884  0.00  0.00    +0.000 A 
ENDBRANCH  22  23
ENDBRANCH   9  22
TORSDOF 6
ENDMDL
MODEL 2
REMARK VINA RESULT:      -8.9      0.500      1.019
REMARK  Name = 
REMARK  7 active torsions:
REMARK  status: ('A' for Active; 'I' for Inactive)
REMARK    1  A    between atoms: C_1  and  O_2
REMARK    2  A    between atoms: O_2  and  C_3
REMARK    3  A    between atoms: C_8  and  C_9
REMARK    4  A    between atoms: C_9  and  C_10
REMARK    5  A    between atoms: C_10  and  C_11
REMARK    6  A    between atoms: N_19  and  C_20
REMARK    7  A    between atoms: C_20  and  C_21
REMARK                            x       y       z     vdW  Elec       q    Type
REMARK                         _______ _______ _______ _____ _____    ______ ____
ROOT
ATOM      1  C   UNL     1      -0.467  10.921  22.705  0.00  0.00    +0.000 A 
ATOM      2  N   UNL     1       0.137   9.948  23.401  0.00  0.00    +0.000 NA
ATOM      3  C   UNL     1       0.827   9.049  22.675  0.00  0.00    +0.000 A 
ATOM      4  C   UNL     1       0.949   9.093  21.302  0.00  0.00    +0.000 A 
ATOM      5  N   UNL     1       1.694   8.121  20.618  0.00  0.00    +0.000 NA
ATOM      6  C   UNL     1       1.839   8.276  19.335  0.00  0.00    +0.000 A 
ATOM      7  C   UNL     1       1.296   9.492  18.583  0.00  0.00    +0.000 A 
ATOM      8  O   UNL     1       1.672   9.691  17.436  0.00  0.00    +0.000 OA
ATOM      9  N   UNL     1       0.410  10.295  19.285  0.00  0.00    +0.000 N 
ATOM     10  C   UNL     1       0.280  10.148  20.688  0.00  0.00    +0.000 A 
ATOM     11  N   UNL     1      -0.435  11.060  21.374  0.00  0.00    +0.000 NA
ENDROOT
BRANCH   1  13
ATOM     12  C   UNL     1      -1.372  13.061  22.580  0.00  0.00    +0.000 C 
ATOM     13  O   UNL     1      -1.188  11.890  23.366  0.00  0.00    +0.000 OA
ENDBRANCH   1  13
BRANCH   6  14
ATOM     14  C   UNL     1       2.613   7.264  18.521  0.00  0.00    +0.000 C 
BRANCH  14  15
ATOM     15  C   UNL     1       3.228   6.179  19.399  0.00  0.00    +0.000 C 
BRANCH  15  16
ATOM     16  C   UNL     1       2.381   4.933  19.420  0.00  0.00    +0.000 A 
ATOM     17  C   UNL     1       1.908   4.425  20.637  0.00  0.00    +0.000 A 
ATOM     18  C   UNL     1       1.104   3.286  20.663  0.00  0.00    +0.000 A 
ATOM     19  C   UNL     1       0.775   2.640  19.473  0.00  0.00    +0.000 A 
ATOM     20  C   UNL     1       1.262   3.121  18.259  0.00  0.00    +0.000 A 
ATOM     21  C   UNL     1       2.067   4.262  18.232  0.00  0.00    +0.000 A 
ENDBRANCH  15  16
ENDBRANCH  14  15
ENDBRANCH   6  14
BRANCH   9  22
ATOM     22  C   UNL     1      -0.226  11.423  18.621  0.00  0.00    +0.000 C 
BRANCH  22  23
ATOM     23  C   UNL     1      -1.688  11.212  18.264  0.00  0.00    +0.000 A 
ATOM     24  C   UNL     1      -2.698  11.885  18.975  0.00  0.00    +0.000 A 
ATOM     25  C   UNL     1      -4.029  11.825  18.549  0.00  0.00    +0.000 A 
ATOM     26  C   UNL     1      -4.357  11.082  17.415  0.00  0.00    +0.000 A 
ATOM     27  F   UNL     1      -5.624  11.075  16.979  0.00  0.00    +0.000 F 
ATOM     28  C   UNL     1      -3.381  10.389  16.715  0.00  0.00    +0.000 A 
ATOM     29  C   UNL     1      -2.052  10.433  17.147  0.00  0.00    +0.000 A 
ENDBRANCH  22  23
ENDBRANCH   9  22
TORSDOF 6
ENDMDL
MODEL 3
REMARK VINA RESULT:      -8.7      0.864      1.263
REMARK  Name = 
REMARK  7 active torsions:
REMARK  status: ('A' for Active; 'I' for Inactive)
REMARK    1  A    between atoms: C_1  and  O_2
REMARK    2  A    between atoms: O_2  and  C_3
REMARK    3  A    between atoms: C_8  and  C_9
REMARK    4  A    between atoms: C_9  and  C_10
REMARK    5  A    between atoms: C_10  and  C_11
REMARK    6  A    between atoms: N_19  and  C_20
REMARK    7  A    between atoms: C_20  and  C_21
REMARK                            x       y       z     vdW  Elec       q    Type
REMARK                         _______ _______ _______ _____ _____    ______ ____
ROOT
ATOM      1  C   UNL     1      -0.009  10.761  22.487  0.00  0.00    +0.000 A 
ATOM      2  N   UNL     1       0.524   9.767  23.211  0.00  0.00    +0.000 NA
ATOM      3  C   UNL     1       1.139   8.795  22.512  0.00  0.00    +0.000 A 
ATOM      4  C   UNL     1       1.255   8.787  21.138  0.00  0.00    +0.000 A 
ATOM      5  N   UNL     1       1.919   7.739  20.482  0.00  0.00    +0.000 NA
ATOM      6  C   UNL     1       2.068   7.841  19.195  0.00  0.00    +0.000 A 
ATOM      7  C   UNL     1       1.615   9.071  18.407  0.00  0.00    +0.000 A 
ATOM      8  O   UNL     1       1.998   9.204  17.252  0.00  0.00    +0.000 OA
ATOM      9  N   UNL     1       0.797   9.961  19.085  0.00  0.00    +0.000 N 
ATOM     10  C   UNL     1       0.665   9.870  20.493  0.00  0.00    +0.000 A 
ATOM     11  N   UNL     1       0.026  10.855  21.152  0.00  0.00    +0.000 NA
ENDROOT
BRANCH   1  13
ATOM     12  C   UNL     1      -2.051  11.590  23.232  0.00  0.00    +0.000 C 
ATOM     13  O   UNL     1      -0.650  11.803  23.119  0.00  0.00    +0.000 OA
ENDBRANCH   1  13
BRANCH   6  14
ATOM     14  C   UNL     1       2.757   6.747  18.411  0.00  0.00    +0.000 C 
BRANCH  14  15
ATOM     15  C   UNL     1       1.850   5.539  18.205  0.00  0.00    +0.000 C 
BRANCH  15  16
ATOM     16  C   UNL     1       2.086   4.481  19.252  0.00  0.00    +0.000 A 
ATOM     17  C   UNL     1       3.316   3.812  19.309  0.00  0.00    +0.000 A 
ATOM     18  C   UNL     1       3.550   2.849  20.290  0.00  0.00    +0.000 A 
ATOM     19  C   UNL     1       2.554   2.540  21.214  0.00  0.00    +0.000 A 
ATOM     20  C   UNL     1       1.318   3.180  21.149  0.00  0.00    +0.000 A 
ATOM     21  C   UNL     1       1.082   4.145  20.168  0.00  0.00    +0.000 A 
ENDBRANCH  15  16
ENDBRANCH  14  15
ENDBRANCH   6  14
BRANCH   9  22
ATOM     22  C   UNL     1       0.245  11.113  18.387  0.00  0.00    +0.000 C 
BRANCH  22  23
ATOM     23  C   UNL     1      -1.243  11.026  18.089  0.00  0.00    +0.000 A 
ATOM     24  C   UNL     1      -1.750   9.975  17.304  0.00  0.00    +0.000 A 
ATOM     25  C   UNL     1      -3.130   9.795  17.163  0.00  0.00    +0.000 A 
ATOM     26  C   UNL     1      -4.009  10.674  17.798  0.00  0.00    +0.000 A 
ATOM     27  F   UNL     1      -5.329  10.462  17.706  0.00  0.00    +0.000 F 
ATOM     28  C   UNL     1      -3.529  11.733  18.554  0.00  0.00    +0.000 A 
ATOM     29  C   UNL     1      -2.150  11.925  18.685  0.00  0.00    +0.000 A 
ENDBRANCH  22  23
ENDBRANCH   9  22
TORSDOF 6
ENDMDL
MODEL 4
REMARK VINA RESULT:      -8.3      0.774      1.089
REMARK  Name = 
REMARK  7 active torsions:
REMARK  status: ('A' for Active; 'I' for Inactive)
REMARK    1  A    between atoms: C_1  and  O_2
REMARK    2  A    between atoms: O_2  and  C_3
REMARK    3  A    between atoms: C_8  and  C_9
REMARK    4  A    between atoms: C_9  and  C_10
REMARK    5  A    between atoms: C_10  and  C_11
REMARK    6  A    between atoms: N_19  and  C_20
REMARK    7  A    between atoms: C_20  and  C_21
REMARK                            x       y       z     vdW  Elec       q    Type
REMARK                         _______ _______ _______ _____ _____    ______ ____
ROOT
ATOM      1  C   UNL     1      -0.811  11.345  22.649  0.00  0.00    +0.000 A 
ATOM      2  N   UNL     1      -0.412  10.439  23.552  0.00  0.00    +0.000 NA
ATOM      3  C   UNL     1       0.274   9.388  23.066  0.00  0.00    +0.000 A 
ATOM      4  C   UNL     1       0.587   9.218  21.734  0.00  0.00    +0.000 A 
ATOM      5  N   UNL     1       1.313   8.096  21.306  0.00  0.00    +0.000 NA
ATOM      6  C   UNL     1       1.647   8.046  20.051  0.00  0.00    +0.000 A 
ATOM      7  C   UNL     1       1.341   9.178  19.069  0.00  0.00    +0.000 A 
ATOM      8  O   UNL     1       1.889   9.173  17.975  0.00  0.00    +0.000 OA
ATOM      9  N   UNL     1       0.456  10.147  19.515  0.00  0.00    +0.000 N 
ATOM     10  C   UNL     1       0.121  10.222  20.889  0.00  0.00    +0.000 A 
ATOM     11  N   UNL     1      -0.583  11.282  21.331  0.00  0.00    +0.000 NA
ENDROOT
BRANCH   1  13
ATOM     12  C   UNL     1      -2.831  12.143  23.485  0.00  0.00    +0.000 C 
ATOM     13  O   UNL     1      -1.512  12.458  23.057  0.00  0.00    +0.000 OA
ENDBRANCH   1  13
BRANCH   6  14
ATOM     14  C   UNL     1       2.416   6.864  19.506  0.00  0.00    +0.000 C 
BRANCH  14  15
ATOM     15  C   UNL     1       2.223   5.617  20.363  0.00  0.00    +0.000 C 
BRANCH  15  16
ATOM     16  C   UNL     1       2.382   4.356  19.554  0.00  0.00    +0.000 A 
ATOM     17  C   UNL     1       3.659   3.927  19.166  0.00  0.00    +0.000 A 
ATOM     18  C   UNL     1       3.817   2.749  18.438  0.00  0.00    +0.000 A 
ATOM     19  C   UNL     1       2.700   1.995  18.083  0.00  0.00    +0.000 A 
ATOM     20  C   UNL     1       1.423   2.427  18.441  0.00  0.00    +0.000 A 
ATOM     21  C   UNL     1       1.264   3.606  19.170  0.00  0.00    +0.000 A 
ENDBRANCH  15  16
ENDBRANCH  14  15
ENDBRANCH   6  14
BRANCH   9  22
ATOM     22  C   UNL     1       0.037  11.213  18.617  0.00  0.00    +0.000 C 
BRANCH  22  23
ATOM     23  C   UNL     1      -1.405  11.120  18.145  0.00  0.00    +0.000 A 
ATOM     24  C   UNL     1      -1.809  10.075  17.295  0.00  0.00    +0.000 A 
ATOM     25  C   UNL     1      -3.162   9.888  16.990  0.00  0.00    +0.000 A 
ATOM     26  C   UNL     1      -4.115  10.754  17.527  0.00  0.00    +0.000 A 
ATOM     27  F   UNL     1      -5.414  10.536  17.278  0.00  0.00    +0.000 F 
ATOM     28  C   UNL     1      -3.735  11.807  18.346  0.00  0.00    +0.000 A 
ATOM     29  C   UNL     1      -2.383  12.006  18.639  0.00  0.00    +0.000 A 
ENDBRANCH  22  23
ENDBRANCH   9  22
TORSDOF 6
ENDMDL
MODEL 5
REMARK VINA RESULT:      -8.3      1.749      2.621
REMARK  Name = 
REMARK  7 active torsions:
REMARK  status: ('A' for Active; 'I' for Inactive)
REMARK    1  A    between atoms: C_1  and  O_2
REMARK    2  A    between atoms: O_2  and  C_3
REMARK    3  A    between atoms: C_8  and  C_9
REMARK    4  A    between atoms: C_9  and  C_10
REMARK    5  A    between atoms: C_10  and  C_11
REMARK    6  A    between atoms: N_19  and  C_20
REMARK    7  A    between atoms: C_20  and  C_21
REMARK                            x       y       z     vdW  Elec       q    Type
REMARK                         _______ _______ _______ _____ _____    ______ ____
ROOT
ATOM      1  C   UNL     1       0.022  10.695  22.483  0.00  0.00    +0.000 A 
ATOM      2  N   UNL     1       0.605   9.725  23.201  0.00  0.00    +0.000 NA
ATOM      3  C   UNL     1       1.225   8.763  22.493  0.00  0.00    +0.000 A 
ATOM      4  C   UNL     1       1.298   8.742  21.116  0.00  0.00    +0.000 A 
ATOM      5  N   UNL     1       1.970   7.706  20.451  0.00  0.00    +0.000 NA
ATOM      6  C   UNL     1       2.075   7.797  19.158  0.00  0.00    +0.000 A 
ATOM      7  C   UNL     1       1.562   9.004  18.371  0.00  0.00    +0.000 A 
ATOM      8  O   UNL     1       1.904   9.135  17.204  0.00  0.00    +0.000 OA
ATOM      9  N   UNL     1       0.742   9.879  19.066  0.00  0.00    +0.000 N 
ATOM     10  C   UNL     1       0.657   9.800  20.478  0.00  0.00    +0.000 A 
ATOM     11  N   UNL     1       0.011  10.775  21.147  0.00  0.00    +0.000 NA
ENDROOT
BRANCH   1  13
ATOM     12  C   UNL     1      -2.035  11.528  23.184  0.00  0.00    +0.000 C 
ATOM     13  O   UNL     1      -0.628  11.727  23.124  0.00  0.00    +0.000 OA
ENDBRANCH   1  13
BRANCH   6  14
ATOM     14  C   UNL     1       2.770   6.714  18.364  0.00  0.00    +0.000 C 
BRANCH  14  15
ATOM     15  C   UNL     1       3.890   6.055  19.162  0.00  0.00    +0.000 C 
BRANCH  15  16
ATOM     16  C   UNL     1       4.987   5.545  18.264  0.00  0.00    +0.000 A 
ATOM     17  C   UNL     1       4.751   5.374  16.893  0.00  0.00    +0.000 A 
ATOM     18  C   UNL     1       5.767   4.924  16.052  0.00  0.00    +0.000 A 
ATOM     19  C   UNL     1       7.026   4.632  16.575  0.00  0.00    +0.000 A 
ATOM     20  C   UNL     1       7.263   4.773  17.942  0.00  0.00    +0.000 A 
ATOM     21  C   UNL     1       6.246   5.223  18.785  0.00  0.00    +0.000 A 
ENDBRANCH  15  16
ENDBRANCH  14  15
ENDBRANCH   6  14
BRANCH   9  22
ATOM     22  C   UNL     1       0.135  11.006  18.374  0.00  0.00    +0.000 C 
BRANCH  22  23
ATOM     23  C   UNL     1      -1.361  10.879  18.135  0.00  0.00    +0.000 A 
ATOM     24  C   UNL     1      -2.261  11.737  18.791  0.00  0.00    +0.000 A 
ATOM     25  C   UNL     1      -3.619  11.737  18.453  0.00  0.00    +0.000 A 
ATOM     26  C   UNL     1      -4.083  10.869  17.464  0.00  0.00    +0.000 A 
ATOM     27  F   UNL     1      -5.373  10.914  17.105  0.00  0.00    +0.000 F 
ATOM     28  C   UNL     1      -3.216   9.996  16.824  0.00  0.00    +0.000 A 
ATOM     29  C   UNL     1      -1.862   9.982  17.171  0.00  0.00    +0.000 A 
ENDBRANCH  22  23
ENDBRANCH   9  22
TORSDOF 6
ENDMDL
MODEL 6
REMARK VINA RESULT:      -8.1      2.528      3.506
REMARK  Name = 
REMARK  7 active torsions:
REMARK  status: ('A' for Active; 'I' for Inactive)
REMARK    1  A    between atoms: C_1  and  O_2
REMARK    2  A    between atoms: O_2  and  C_3
REMARK    3  A    between atoms: C_8  and  C_9
REMARK    4  A    between atoms: C_9  and  C_10
REMARK    5  A    between atoms: C_10  and  C_11
REMARK    6  A    between atoms: N_19  and  C_20
REMARK    7  A    between atoms: C_20  and  C_21
REMARK                            x       y       z     vdW  Elec       q    Type
REMARK                         _______ _______ _______ _____ _____    ______ ____
ROOT
ATOM      1  C   UNL     1      -0.654  11.295  22.561  0.00  0.00    +0.000 A 
ATOM      2  N   UNL     1      -0.164  10.306  23.320  0.00  0.00    +0.000 NA
ATOM      3  C   UNL     1       0.515   9.345  22.667  0.00  0.00    +0.000 A 
ATOM      4  C   UNL     1       0.735   9.343  21.305  0.00  0.00    +0.000 A 
ATOM      5  N   UNL     1       1.460   8.307  20.698  0.00  0.00    +0.000 NA
ATOM      6  C   UNL     1       1.703   8.416  19.426  0.00  0.00    +0.000 A 
ATOM      7  C   UNL     1       1.293   9.642  18.609  0.00  0.00    +0.000 A 
ATOM      8  O   UNL     1       1.760   9.785  17.487  0.00  0.00    +0.000 OA
ATOM      9  N   UNL     1       0.415  10.519  19.227  0.00  0.00    +0.000 N 
ATOM     10  C   UNL     1       0.179  10.420  20.620  0.00  0.00    +0.000 A 
ATOM     11  N   UNL     1      -0.521  11.394  21.233  0.00  0.00    +0.000 NA
ENDROOT
BRANCH   1  13
ATOM     12  C   UNL     1      -2.745  12.046  23.252  0.00  0.00    +0.000 C 
ATOM     13  O   UNL     1      -1.355  12.326  23.146  0.00  0.00    +0.000 OA
ENDBRANCH   1  13
BRANCH   6  14
ATOM     14  C   UNL     1       2.464   7.335  18.692  0.00  0.00    +0.000 C 
BRANCH  14  15
ATOM     15  C   UNL     1       3.000   6.272  19.646  0.00  0.00    +0.000 C 
BRANCH  15  16
ATOM     16  C   UNL     1       2.229   4.982  19.530  0.00  0.00    +0.000 A 
ATOM     17  C   UNL     1       2.013   4.402  18.273  0.00  0.00    +0.000 A 
ATOM     18  C   UNL     1       1.321   3.197  18.160  0.00  0.00    +0.000 A 
ATOM     19  C   UNL     1       0.831   2.567  19.302  0.00  0.00    +0.000 A 
ATOM     20  C   UNL     1       1.016   3.149  20.555  0.00  0.00    +0.000 A 
ATOM     21  C   UNL     1       1.709   4.355  20.669  0.00  0.00    +0.000 A 
ENDBRANCH  15  16
ENDBRANCH  14  15
ENDBRANCH   6  14
BRANCH   9  22
ATOM     22  C   UNL     1      -0.100  11.665  18.493  0.00  0.00    +0.000 C 
BRANCH  22  23
ATOM     23  C   UNL     1       0.722  12.936  18.637  0.00  0.00    +0.000 A 
ATOM     24  C   UNL     1       0.095  14.157  18.947  0.00  0.00    +0.000 A 
ATOM     25  C   UNL     1       0.856  15.292  19.243  0.00  0.00    +0.000 A 
ATOM     26  C   UNL     1       2.249  15.215  19.218  0.00  0.00    +0.000 A 
ATOM     27  F   UNL     1       2.972  16.290  19.557  0.00  0.00    +0.000 F 
ATOM     28  C   UNL     1       2.886  14.028  18.887  0.00  0.00    +0.000 A 
ATOM     29  C   UNL     1       2.129  12.895  18.576  0.00  0.00    +0.000 A 
ENDBRANCH  22  23
ENDBRANCH   9  22
TORSDOF 6
ENDMDL
MODEL 7
REMARK VINA RESULT:      -8.1      2.519      3.307
REMARK  Name = 
REMARK  7 active torsions:
REMARK  status: ('A' for Active; 'I' for Inactive)
REMARK    1  A    between atoms: C_1  and  O_2
REMARK    2  A    between atoms: O_2  and  C_3
REMARK    3  A    between atoms: C_8  and  C_9
REMARK    4  A    between atoms: C_9  and  C_10
REMARK    5  A    between atoms: C_10  and  C_11
REMARK    6  A    between atoms: N_19  and  C_20
REMARK    7  A    between atoms: C_20  and  C_21
REMARK                            x       y       z     vdW  Elec       q    Type
REMARK                         _______ _______ _______ _____ _____    ______ ____
ROOT
ATOM      1  C   UNL     1      -0.529  11.105  22.610  0.00  0.00    +0.000 A 
ATOM      2  N   UNL     1      -0.034  10.090  23.331  0.00  0.00    +0.000 NA
ATOM      3  C   UNL     1       0.636   9.149  22.640  0.00  0.00    +0.000 A 
ATOM      4  C   UNL     1       0.841   9.192  21.277  0.00  0.00    +0.000 A 
ATOM      5  N   UNL     1       1.557   8.175  20.628  0.00  0.00    +0.000 NA
ATOM      6  C   UNL     1       1.787   8.325  19.358  0.00  0.00    +0.000 A 
ATOM      7  C   UNL     1       1.373   9.579  18.586  0.00  0.00    +0.000 A 
ATOM      8  O   UNL     1       1.829   9.758  17.464  0.00  0.00    +0.000 OA
ATOM      9  N   UNL     1       0.504  10.437  19.242  0.00  0.00    +0.000 N 
ATOM     10  C   UNL     1       0.282  10.293  20.634  0.00  0.00    +0.000 A 
ATOM     11  N   UNL     1      -0.409  11.248  21.285  0.00  0.00    +0.000 NA
ENDROOT
BRANCH   1  13
ATOM     12  C   UNL     1      -1.688  13.102  22.322  0.00  0.00    +0.000 C 
ATOM     13  O   UNL     1      -1.220  12.118  23.237  0.00  0.00    +0.000 OA
ENDBRANCH   1  13
BRANCH   6  14
ATOM     14  C   UNL     1       2.538   7.266  18.581  0.00  0.00    +0.000 C 
BRANCH  14  15
ATOM     15  C   UNL     1       3.083   6.173  19.494  0.00  0.00    +0.000 C 
BRANCH  15  16
ATOM     16  C   UNL     1       2.328   4.879  19.323  0.00  0.00    +0.000 A 
ATOM     17  C   UNL     1       1.539   4.384  20.369  0.00  0.00    +0.000 A 
ATOM     18  C   UNL     1       0.820   3.200  20.211  0.00  0.00    +0.000 A 
ATOM     19  C   UNL     1       0.892   2.496  19.010  0.00  0.00    +0.000 A 
ATOM     20  C   UNL     1       1.696   2.966  17.973  0.00  0.00    +0.000 A 
ATOM     21  C   UNL     1       2.417   4.152  18.130  0.00  0.00    +0.000 A 
ENDBRANCH  15  16
ENDBRANCH  14  15
ENDBRANCH   6  14
BRANCH   9  22
ATOM     22  C   UNL     1      -0.014  11.609  18.552  0.00  0.00    +0.000 C 
BRANCH  22  23
ATOM     23  C   UNL     1       0.820  12.868  18.717  0.00  0.00    +0.000 A 
ATOM     24  C   UNL     1       2.165  12.889  18.305  0.00  0.00    +0.000 A 
ATOM     25  C   UNL     1       2.889  14.086  18.300  0.00  0.00    +0.000 A 
ATOM     26  C   UNL     1       2.274  15.266  18.719  0.00  0.00    +0.000 A 
ATOM     27  F   UNL     1       2.955  16.418  18.658  0.00  0.00    +0.000 F 
ATOM     28  C   UNL     1       0.957  15.262  19.155  0.00  0.00    +0.000 A 
ATOM     29  C   UNL     1       0.235  14.065  19.176  0.00  0.00    +0.000 A 
ENDBRANCH  22  23
ENDBRANCH   9  22
TORSDOF 6
ENDMDL
MODEL 8
REMARK VINA RESULT:      -8.0      1.260      1.907
REMARK  Name = 
REMARK  7 active torsions:
REMARK  status: ('A' for Active; 'I' for Inactive)
REMARK    1  A    between atoms: C_1  and  O_2
REMARK    2  A    between atoms: O_2  and  C_3
REMARK    3  A    between atoms: C_8  and  C_9
REMARK    4  A    between atoms: C_9  and  C_10
REMARK    5  A    between atoms: C_10  and  C_11
REMARK    6  A    between atoms: N_19  and  C_20
REMARK    7  A    between atoms: C_20  and  C_21
REMARK                            x       y       z     vdW  Elec       q    Type
REMARK                         _______ _______ _______ _____ _____    ______ ____
ROOT
ATOM      1  C   UNL     1      -0.628  10.983  22.817  0.00  0.00    +0.000 A 
ATOM      2  N   UNL     1      -0.043   9.922  23.388  0.00  0.00    +0.000 NA
ATOM      3  C   UNL     1       0.633   9.105  22.558  0.00  0.00    +0.000 A 
ATOM      4  C   UNL     1       0.758   9.315  21.201  0.00  0.00    +0.000 A 
ATOM      5  N   UNL     1       1.486   8.421  20.402  0.00  0.00    +0.000 NA
ATOM      6  C   UNL     1       1.637   8.728  19.149  0.00  0.00    +0.000 A 
ATOM      7  C   UNL     1       1.118  10.037  18.551  0.00  0.00    +0.000 A 
ATOM      8  O   UNL     1       1.500  10.368  17.437  0.00  0.00    +0.000 OA
ATOM      9  N   UNL     1       0.246  10.764  19.346  0.00  0.00    +0.000 N 
ATOM     10  C   UNL     1       0.110  10.449  20.720  0.00  0.00    +0.000 A 
ATOM     11  N   UNL     1      -0.590  11.284  21.513  0.00  0.00    +0.000 NA
ENDROOT
BRANCH   1  13
ATOM     12  C   UNL     1      -2.649  12.100  23.103  0.00  0.00    +0.000 C 
ATOM     13  O   UNL     1      -1.332  11.878  23.592  0.00  0.00    +0.000 OA
ENDBRANCH   1  13
BRANCH   6  14
ATOM     14  C   UNL     1       2.394   7.809  18.216  0.00  0.00    +0.000 C 
BRANCH  14  15
ATOM     15  C   UNL     1       2.863   6.543  18.925  0.00  0.00    +0.000 C 
BRANCH  15  16
ATOM     16  C   UNL     1       3.632   5.638  17.997  0.00  0.00    +0.000 A 
ATOM     17  C   UNL     1       4.515   6.184  17.056  0.00  0.00    +0.000 A 
ATOM     18  C   UNL     1       5.247   5.352  16.209  0.00  0.00    +0.000 A 
ATOM     19  C   UNL     1       5.095   3.970  16.289  0.00  0.00    +0.000 A 
ATOM     20  C   UNL     1       4.199   3.418  17.203  0.00  0.00    +0.000 A 
ATOM     21  C   UNL     1       3.465   4.249  18.052  0.00  0.00    +0.000 A 
ENDBRANCH  15  16
ENDBRANCH  14  15
ENDBRANCH   6  14
BRANCH   9  22
ATOM     22  C   UNL     1      -0.368  11.977  18.825  0.00  0.00    +0.000 C 
BRANCH  22  23
ATOM     23  C   UNL     1      -1.814  11.821  18.381  0.00  0.00    +0.000 A 
ATOM     24  C   UNL     1      -2.118  11.192  17.160  0.00  0.00    +0.000 A 
ATOM     25  C   UNL     1      -3.444  10.897  16.823  0.00  0.00    +0.000 A 
ATOM     26  C   UNL     1      -4.472  11.242  17.702  0.00  0.00    +0.000 A 
ATOM     27  F   UNL     1      -5.733  10.906  17.400  0.00  0.00    +0.000 F 
ATOM     28  C   UNL     1      -4.195  11.887  18.898  0.00  0.00    +0.000 A 
ATOM     29  C   UNL     1      -2.873  12.197  19.231  0.00  0.00    +0.000 A 
ENDBRANCH  22  23
ENDBRANCH   9  22
TORSDOF 6
ENDMDL
MODEL 9
REMARK VINA RESULT:      -7.9      6.311     10.095
REMARK  Name = 
REMARK  7 active torsions:
REMARK  status: ('A' for Active; 'I' for Inactive)
REMARK    1  A    between atoms: C_1  and  O_2
REMARK    2  A    between atoms: O_2  and  C_3
REMARK    3  A    between atoms: C_8  and  C_9
REMARK    4  A    between atoms: C_9  and  C_10
REMARK    5  A    between atoms: C_10  and  C_11
REMARK    6  A    between atoms: N_19  and  C_20
REMARK    7  A    between atoms: C_20  and  C_21
REMARK                            x       y       z     vdW  Elec       q    Type
REMARK                         _______ _______ _______ _____ _____    ______ ____
ROOT
ATOM      1  C   UNL     1       5.984   3.894  14.241  0.00  0.00    +0.000 A 
ATOM      2  N   UNL     1       6.824   4.728  13.613  0.00  0.00    +0.000 NA
ATOM      3  C   UNL     1       7.407   5.666  14.384  0.00  0.00    +0.000 A 
ATOM      4  C   UNL     1       7.199   5.789  15.741  0.00  0.00    +0.000 A 
ATOM      5  N   UNL     1       7.851   6.789  16.477  0.00  0.00    +0.000 NA
ATOM      6  C   UNL     1       7.676   6.791  17.765  0.00  0.00    +0.000 A 
ATOM      7  C   UNL     1       6.860   5.719  18.489  0.00  0.00    +0.000 A 
ATOM      8  O   UNL     1       6.935   5.644  19.708  0.00  0.00    +0.000 OA
ATOM      9  N   UNL     1       6.091   4.893  17.684  0.00  0.00    +0.000 N 
ATOM     10  C   UNL     1       6.308   4.867  16.284  0.00  0.00    +0.000 A 
ATOM     11  N   UNL     1       5.690   3.924  15.547  0.00  0.00    +0.000 NA
ENDROOT
BRANCH   1  13
ATOM     12  C   UNL     1       5.584   2.993  12.134  0.00  0.00    +0.000 C 
ATOM     13  O   UNL     1       5.349   2.898  13.533  0.00  0.00    +0.000 OA
ENDBRANCH   1  13
BRANCH   6  14
ATOM     14  C   UNL     1       8.330   7.845  18.630  0.00  0.00    +0.000 C 
BRANCH  14  15
ATOM     15  C   UNL     1       8.205   9.237  18.018  0.00  0.00    +0.000 C 
BRANCH  15  16
ATOM     16  C   UNL     1       9.157  10.213  18.660  0.00  0.00    +0.000 A 
ATOM     17  C   UNL     1      10.065  10.931  17.870  0.00  0.00    +0.000 A 
ATOM     18  C   UNL     1      10.933  11.853  18.453  0.00  0.00    +0.000 A 
ATOM     19  C   UNL     1      10.908  12.058  19.831  0.00  0.00    +0.000 A 
ATOM     20  C   UNL     1      10.027  11.329  20.629  0.00  0.00    +0.000 A 
ATOM     21  C   UNL     1       9.158  10.406  20.047  0.00  0.00    +0.000 A 
ENDBRANCH  15  16
ENDBRANCH  14  15
ENDBRANCH   6  14
BRANCH   9  22
ATOM     22  C   UNL     1       5.213   3.903  18.291  0.00  0.00    +0.000 C 
BRANCH  22  23
ATOM     23  C   UNL     1       3.953   4.470  18.924  0.00  0.00    +0.000 A 
ATOM     24  C   UNL     1       3.316   3.786  19.975  0.00  0.00    +0.000 A 
ATOM     25  C   UNL     1       2.257   4.378  20.671  0.00  0.00    +0.000 A 
ATOM     26  C   UNL     1       1.823   5.654  20.311  0.00  0.00    +0.000 A 
ATOM     27  F   UNL     1       0.847   6.239  21.019  0.00  0.00    +0.000 F 
ATOM     28  C   UNL     1       2.420   6.335  19.261  0.00  0.00    +0.000 A 
ATOM     29  C   UNL     1       3.468   5.740  18.552  0.00  0.00    +0.000 A 
ENDBRANCH  22  23
ENDBRANCH   9  22
TORSDOF 6
ENDMDL
