MODEL 1
REMARK VINA RESULT:      -8.0      0.000      0.000
REMARK  Name = 
REMARK  8 active torsions:
REMARK  status: ('A' for Active; 'I' for Inactive)
REMARK    1  A    between atoms: C_1  and  C_2
REMARK    2  A    between atoms: C_2  and  S_3
REMARK    3  A    between atoms: C_2  and  C_10
REMARK    4  A    between atoms: S_3  and  C_4
REMARK    5  A    between atoms: N_8  and  C_9
REMARK    6  A    between atoms: C_14  and  N_15
REMARK    7  A    between atoms: C_16  and  C_18
REMARK    8  A    between atoms: C_22  and  C_23
REMARK                            x       y       z     vdW  Elec       q    Type
REMARK                         _______ _______ _______ _____ _____    ______ ____
ROOT
ATOM      1  C   UNL     1      -0.081  10.292  20.301  0.00  0.00    +0.000 A 
ATOM      2  C   UNL     1      -0.082  10.318  21.705  0.00  0.00    +0.000 A 
ATOM      3  C   UNL     1       0.657   9.394  22.439  0.00  0.00    +0.000 A 
ATOM      4  C   UNL     1       1.436   8.441  21.789  0.00  0.00    +0.000 A 
ATOM      5  C   UNL     1       1.501   8.400  20.396  0.00  0.00    +0.000 A 
ATOM      6  C   UNL     1       0.748   9.338  19.660  0.00  0.00    +0.000 A 
ENDROOT
BRANCH   5   7
ATOM      7  N   UNL     1       2.267   7.432  19.701  0.00  0.00    +0.000 N 
ATOM      8  C   UNL     1       2.182   6.052  19.836  0.00  0.00    +0.000 C 
ATOM      9  O   UNL     1       1.480   5.429  20.628  0.00  0.00    +0.000 OA
ATOM     10  H   UNL     1       2.930   7.758  19.003  0.00  0.00    +0.000 HD
BRANCH   8  11
ATOM     11  C   UNL     1       3.041   5.265  18.892  0.00  0.00    +0.000 A 
ATOM     12  C   UNL     1       3.071   3.877  19.000  0.00  0.00    +0.000 A 
ATOM     13  C   UNL     1       3.836   3.158  18.091  0.00  0.00    +0.000 A 
ATOM     14  C   UNL     1       4.542   3.842  17.106  0.00  0.00    +0.000 A 
ATOM     15  C   UNL     1       4.469   5.240  17.054  0.00  0.00    +0.000 A 
ATOM     16  N   UNL     1       3.727   5.964  17.947  0.00  0.00    +0.000 NA
BRANCH  15  17
ATOM     17  C   UNL     1       5.230   5.982  15.960  0.00  0.00    +0.000 C 
ATOM     18  F   UNL     1       4.684   7.195  15.644  0.00  0.00    +0.000 F 
ATOM     19  F   UNL     1       6.524   6.245  16.302  0.00  0.00    +0.000 F 
ATOM     20  F   UNL     1       5.281   5.289  14.787  0.00  0.00    +0.000 F 
ENDBRANCH  15  17
ENDBRANCH   8  11
ENDBRANCH   5   7
BRANCH   1  22
ATOM     21  C   UNL     1      -0.355  12.598  19.236  0.00  0.00    +0.000 C 
ATOM     22  C   UNL     1      -0.991  11.218  19.485  0.00  0.00    +0.000 C 
BRANCH  22  23
ATOM     23  S   UNL     1      -1.485  10.474  17.874  0.00  0.00    +0.000 S 
BRANCH  23  24
ATOM     24  C   UNL     1      -3.091  11.117  17.700  0.00  0.00    +0.000 A 
ATOM     25  N   UNL     1      -3.809  11.667  18.651  0.00  0.00    +0.000 NA
ATOM     26  N   UNL     1      -4.998  12.087  18.097  0.00  0.00    +0.000 NA
ATOM     27  C   UNL     1      -4.975  11.773  16.823  0.00  0.00    +0.000 A 
ATOM     28  N   UNL     1      -3.791  11.157  16.527  0.00  0.00    +0.000 N 
ATOM     29  C   UNL     1      -3.418  10.687  15.221  0.00  0.00    +0.000 C 
ENDBRANCH  23  24
ENDBRANCH  22  23
ENDBRANCH   1  22
TORSDOF 6
ENDMDL
MODEL 2
REMARK VINA RESULT:      -7.9      4.680      9.381
REMARK  Name = 
REMARK  8 active torsions:
REMARK  status: ('A' for Active; 'I' for Inactive)
REMARK    1  A    between atoms: C_1  and  C_2
REMARK    2  A    between atoms: C_2  and  S_3
REMARK    3  A    between atoms: C_2  and  C_10
REMARK    4  A    between atoms: S_3  and  C_4
REMARK    5  A    between atoms: N_8  and  C_9
REMARK    6  A    between atoms: C_14  and  N_15
REMARK    7  A    between atoms: C_16  and  C_18
REMARK    8  A    between atoms: C_22  and  C_23
REMARK                            x       y       z     vdW  Elec       q    Type
REMARK                         _______ _______ _______ _____ _____    ______ ____
ROOT
ATOM      1  C   UNL     1       4.552   5.585  17.088  0.00  0.00    +0.000 A 
ATOM      2  C   UNL     1       3.871   4.357  17.099  0.00  0.00    +0.000 A 
ATOM      3  C   UNL     1       2.649   4.220  17.750  0.00  0.00    +0.000 A 
ATOM      4  C   UNL     1       2.063   5.314  18.382  0.00  0.00    +0.000 A 
ATOM      5  C   UNL     1       2.681   6.565  18.365  0.00  0.00    +0.000 A 
ATOM      6  C   UNL     1       3.921   6.694  17.705  0.00  0.00    +0.000 A 
ENDROOT
BRANCH   5   7
ATOM      7  N   UNL     1       2.125   7.694  19.014  0.00  0.00    +0.000 N 
ATOM      8  C   UNL     1       1.764   8.899  18.423  0.00  0.00    +0.000 C 
ATOM      9  O   UNL     1       1.924   9.223  17.249  0.00  0.00    +0.000 OA
ATOM     10  H   UNL     1       1.932   7.626  20.010  0.00  0.00    +0.000 HD
BRANCH   8  11
ATOM     11  C   UNL     1       1.096   9.882  19.337  0.00  0.00    +0.000 A 
ATOM     12  C   UNL     1       0.605   9.440  20.564  0.00  0.00    +0.000 A 
ATOM     13  C   UNL     1       0.028  10.369  21.420  0.00  0.00    +0.000 A 
ATOM     14  C   UNL     1      -0.040  11.703  21.029  0.00  0.00    +0.000 A 
ATOM     15  C   UNL     1       0.472  12.080  19.780  0.00  0.00    +0.000 A 
ATOM     16  N   UNL     1       1.035  11.176  18.921  0.00  0.00    +0.000 NA
BRANCH  15  17
ATOM     17  C   UNL     1       0.412  13.547  19.366  0.00  0.00    +0.000 C 
ATOM     18  F   UNL     1       1.566  13.998  18.791  0.00  0.00    +0.000 F 
ATOM     19  F   UNL     1      -0.570  13.797  18.453  0.00  0.00    +0.000 F 
ATOM     20  F   UNL     1       0.175  14.384  20.416  0.00  0.00    +0.000 F 
ENDBRANCH  15  17
ENDBRANCH   8  11
ENDBRANCH   5   7
BRANCH   1  22
ATOM     21  C   UNL     1       6.995   6.196  17.519  0.00  0.00    +0.000 C 
ATOM     22  C   UNL     1       5.958   5.714  16.488  0.00  0.00    +0.000 C 
BRANCH  22  23
ATOM     23  S   UNL     1       6.541   4.141  15.726  0.00  0.00    +0.000 S 
BRANCH  23  24
ATOM     24  C   UNL     1       7.168   4.727  14.214  0.00  0.00    +0.000 A 
ATOM     25  N   UNL     1       8.126   5.612  14.068  0.00  0.00    +0.000 NA
ATOM     26  N   UNL     1       8.357   5.770  12.720  0.00  0.00    +0.000 NA
ATOM     27  C   UNL     1       7.524   4.981  12.080  0.00  0.00    +0.000 A 
ATOM     28  N   UNL     1       6.752   4.305  12.982  0.00  0.00    +0.000 N 
ATOM     29  C   UNL     1       5.740   3.346  12.636  0.00  0.00    +0.000 C 
ENDBRANCH  23  24
ENDBRANCH  22  23
ENDBRANCH   1  22
TORSDOF 6
ENDMDL
MODEL 3
REMARK VINA RESULT:      -7.9      0.926      1.252
REMARK  Name = 
REMARK  8 active torsions:
REMARK  status: ('A' for Active; 'I' for Inactive)
REMARK    1  A    between atoms: C_1  and  C_2
REMARK    2  A    between atoms: C_2  and  S_3
REMARK    3  A    between atoms: C_2  and  C_10
REMARK    4  A    between atoms: S_3  and  C_4
REMARK    5  A    between atoms: N_8  and  C_9
REMARK    6  A    between atoms: C_14  and  N_15
REMARK    7  A    between atoms: C_16  and  C_18
REMARK    8  A    between atoms: C_22  and  C_23
REMARK                            x       y       z     vdW  Elec       q    Type
REMARK                         _______ _______ _______ _____ _____    ______ ____
ROOT
ATOM      1  C   UNL     1      -0.127  10.249  20.123  0.00  0.00    +0.000 A 
ATOM      2  C   UNL     1      -0.253  10.141  21.518  0.00  0.00    +0.000 A 
ATOM      3  C   UNL     1       0.457   9.178  22.229  0.00  0.00    +0.000 A 
ATOM      4  C   UNL     1       1.328   8.316  21.568  0.00  0.00    +0.000 A 
ATOM      5  C   UNL     1       1.517   8.410  20.189  0.00  0.00    +0.000 A 
ATOM      6  C   UNL     1       0.793   9.387  19.475  0.00  0.00    +0.000 A 
ENDROOT
BRANCH   5   7
ATOM      7  N   UNL     1       2.380   7.538  19.481  0.00  0.00    +0.000 N 
ATOM      8  C   UNL     1       2.417   6.151  19.571  0.00  0.00    +0.000 C 
ATOM      9  O   UNL     1       1.758   5.442  20.327  0.00  0.00    +0.000 OA
ATOM     10  H   UNL     1       3.025   7.944  18.809  0.00  0.00    +0.000 HD
BRANCH   8  11
ATOM     11  C   UNL     1       3.362   5.476  18.622  0.00  0.00    +0.000 A 
ATOM     12  C   UNL     1       2.941   4.332  17.948  0.00  0.00    +0.000 A 
ATOM     13  C   UNL     1       3.810   3.742  17.038  0.00  0.00    +0.000 A 
ATOM     14  C   UNL     1       5.063   4.310  16.829  0.00  0.00    +0.000 A 
ATOM     15  C   UNL     1       5.424   5.461  17.542  0.00  0.00    +0.000 A 
ATOM     16  N   UNL     1       4.584   6.049  18.448  0.00  0.00    +0.000 NA
BRANCH  15  17
ATOM     17  C   UNL     1       6.791   6.089  17.294  0.00  0.00    +0.000 C 
ATOM     18  F   UNL     1       7.749   5.673  18.174  0.00  0.00    +0.000 F 
ATOM     19  F   UNL     1       7.287   5.803  16.056  0.00  0.00    +0.000 F 
ATOM     20  F   UNL     1       6.774   7.449  17.389  0.00  0.00    +0.000 F 
ENDBRANCH  15  17
ENDBRANCH   8  11
ENDBRANCH   5   7
BRANCH   1  22
ATOM     21  C   UNL     1      -0.266  12.527  18.975  0.00  0.00    +0.000 C 
ATOM     22  C   UNL     1      -1.001  11.217  19.315  0.00  0.00    +0.000 C 
BRANCH  22  23
ATOM     23  S   UNL     1      -1.640  10.456  17.764  0.00  0.00    +0.000 S 
BRANCH  23  24
ATOM     24  C   UNL     1      -3.240  11.135  17.708  0.00  0.00    +0.000 A 
ATOM     25  N   UNL     1      -3.868  11.713  18.705  0.00  0.00    +0.000 NA
ATOM     26  N   UNL     1      -5.088  12.153  18.240  0.00  0.00    +0.000 NA
ATOM     27  C   UNL     1      -5.172  11.822  16.973  0.00  0.00    +0.000 A 
ATOM     28  N   UNL     1      -4.030  11.175  16.593  0.00  0.00    +0.000 N 
ATOM     29  C   UNL     1      -3.772  10.680  15.269  0.00  0.00    +0.000 C 
ENDBRANCH  23  24
ENDBRANCH  22  23
ENDBRANCH   1  22
TORSDOF 6
ENDMDL
MODEL 4
REMARK VINA RESULT:      -7.8      4.270      9.164
REMARK  Name = 
REMARK  8 active torsions:
REMARK  status: ('A' for Active; 'I' for Inactive)
REMARK    1  A    between atoms: C_1  and  C_2
REMARK    2  A    between atoms: C_2  and  S_3
REMARK    3  A    between atoms: C_2  and  C_10
REMARK    4  A    between atoms: S_3  and  C_4
REMARK    5  A    between atoms: N_8  and  C_9
REMARK    6  A    between atoms: C_14  and  N_15
REMARK    7  A    between atoms: C_16  and  C_18
REMARK    8  A    between atoms: C_22  and  C_23
REMARK                            x       y       z     vdW  Elec       q    Type
REMARK                         _______ _______ _______ _____ _____    ______ ____
ROOT
ATOM      1  C   UNL     1       4.704   5.495  17.993  0.00  0.00    +0.000 A 
ATOM      2  C   UNL     1       4.483   4.579  19.034  0.00  0.00    +0.000 A 
ATOM      3  C   UNL     1       3.458   4.774  19.955  0.00  0.00    +0.000 A 
ATOM      4  C   UNL     1       2.612   5.874  19.842  0.00  0.00    +0.000 A 
ATOM      5  C   UNL     1       2.766   6.791  18.801  0.00  0.00    +0.000 A 
ATOM      6  C   UNL     1       3.808   6.587  17.874  0.00  0.00    +0.000 A 
ENDROOT
BRANCH   5   7
ATOM      7  N   UNL     1       1.937   7.931  18.667  0.00  0.00    +0.000 N 
ATOM      8  C   UNL     1       1.456   8.735  19.694  0.00  0.00    +0.000 C 
ATOM      9  O   UNL     1       1.608   8.562  20.901  0.00  0.00    +0.000 OA
ATOM     10  H   UNL     1       1.681   8.229  17.730  0.00  0.00    +0.000 HD
BRANCH   8  11
ATOM     11  C   UNL     1       0.687   9.943  19.250  0.00  0.00    +0.000 A 
ATOM     12  C   UNL     1       1.187  11.210  19.542  0.00  0.00    +0.000 A 
ATOM     13  C   UNL     1       0.488  12.320  19.087  0.00  0.00    +0.000 A 
ATOM     14  C   UNL     1      -0.682  12.133  18.358  0.00  0.00    +0.000 A 
ATOM     15  C   UNL     1      -1.132  10.831  18.100  0.00  0.00    +0.000 A 
ATOM     16  N   UNL     1      -0.459   9.727  18.549  0.00  0.00    +0.000 NA
BRANCH  15  17
ATOM     17  C   UNL     1      -2.405  10.633  17.283  0.00  0.00    +0.000 C 
ATOM     18  F   UNL     1      -3.159  11.767  17.168  0.00  0.00    +0.000 F 
ATOM     19  F   UNL     1      -2.153  10.232  16.004  0.00  0.00    +0.000 F 
ATOM     20  F   UNL     1      -3.236   9.695  17.818  0.00  0.00    +0.000 F 
ENDBRANCH  15  17
ENDBRANCH   8  11
ENDBRANCH   5   7
BRANCH   1  22
ATOM     21  C   UNL     1       7.209   5.027  17.808  0.00  0.00    +0.000 C 
ATOM     22  C   UNL     1       5.909   5.359  17.053  0.00  0.00    +0.000 C 
BRANCH  22  23
ATOM     23  S   UNL     1       5.630   4.104  15.734  0.00  0.00    +0.000 S 
BRANCH  23  24
ATOM     24  C   UNL     1       6.710   4.686  14.501  0.00  0.00    +0.000 A 
ATOM     25  N   UNL     1       7.691   5.540  14.676  0.00  0.00    +0.000 NA
ATOM     26  N   UNL     1       8.331   5.705  13.468  0.00  0.00    +0.000 NA
ATOM     27  C   UNL     1       7.715   4.952  12.587  0.00  0.00    +0.000 A 
ATOM     28  N   UNL     1       6.683   4.292  13.193  0.00  0.00    +0.000 N 
ATOM     29  C   UNL     1       5.800   3.371  12.532  0.00  0.00    +0.000 C 
ENDBRANCH  23  24
ENDBRANCH  22  23
ENDBRANCH   1  22
TORSDOF 6
ENDMDL
MODEL 5
REMARK VINA RESULT:      -7.8      4.845      9.365
REMARK  Name = 
REMARK  8 active torsions:
REMARK  status: ('A' for Active; 'I' for Inactive)
REMARK    1  A    between atoms: C_1  and  C_2
REMARK    2  A    between atoms: C_2  and  S_3
REMARK    3  A    between atoms: C_2  and  C_10
REMARK    4  A    between atoms: S_3  and  C_4
REMARK    5  A    between atoms: N_8  and  C_9
REMARK    6  A    between atoms: C_14  and  N_15
REMARK    7  A    between atoms: C_16  and  C_18
REMARK    8  A    between atoms: C_22  and  C_23
REMARK                            x       y       z     vdW  Elec       q    Type
REMARK                         _______ _______ _______ _____ _____    ______ ____
ROOT
ATOM      1  C   UNL     1       4.700   5.832  16.911  0.00  0.00    +0.000 A 
ATOM      2  C   UNL     1       4.136   4.547  16.943  0.00  0.00    +0.000 A 
ATOM      3  C   UNL     1       2.959   4.298  17.645  0.00  0.00    +0.000 A 
ATOM      4  C   UNL     1       2.304   5.333  18.307  0.00  0.00    +0.000 A 
ATOM      5  C   UNL     1       2.804   6.635  18.271  0.00  0.00    +0.000 A 
ATOM      6  C   UNL     1       3.997   6.878  17.560  0.00  0.00    +0.000 A 
ENDROOT
BRANCH   5   7
ATOM      7  N   UNL     1       2.175   7.708  18.950  0.00  0.00    +0.000 N 
ATOM      8  C   UNL     1       1.809   8.934  18.407  0.00  0.00    +0.000 C 
ATOM      9  O   UNL     1       2.026   9.331  17.265  0.00  0.00    +0.000 OA
ATOM     10  H   UNL     1       1.928   7.576  19.926  0.00  0.00    +0.000 HD
BRANCH   8  11
ATOM     11  C   UNL     1       1.059   9.842  19.335  0.00  0.00    +0.000 A 
ATOM     12  C   UNL     1       0.697  11.112  18.893  0.00  0.00    +0.000 A 
ATOM     13  C   UNL     1      -0.036  11.927  19.747  0.00  0.00    +0.000 A 
ATOM     14  C   UNL     1      -0.385  11.451  21.007  0.00  0.00    +0.000 A 
ATOM     15  C   UNL     1       0.013  10.163  21.390  0.00  0.00    +0.000 A 
ATOM     16  N   UNL     1       0.743   9.351  20.564  0.00  0.00    +0.000 NA
BRANCH  15  17
ATOM     17  C   UNL     1      -0.389   9.640  22.765  0.00  0.00    +0.000 C 
ATOM     18  F   UNL     1      -1.007   8.422  22.725  0.00  0.00    +0.000 F 
ATOM     19  F   UNL     1       0.677   9.478  23.600  0.00  0.00    +0.000 F 
ATOM     20  F   UNL     1      -1.256  10.468  23.413  0.00  0.00    +0.000 F 
ENDBRANCH  15  17
ENDBRANCH   8  11
ENDBRANCH   5   7
BRANCH   1  22
ATOM     21  C   UNL     1       6.918   7.094  17.047  0.00  0.00    +0.000 C 
ATOM     22  C   UNL     1       6.062   6.090  16.253  0.00  0.00    +0.000 C 
BRANCH  22  23
ATOM     23  S   UNL     1       7.021   4.538  15.998  0.00  0.00    +0.000 S 
BRANCH  23  24
ATOM     24  C   UNL     1       6.659   4.205  14.330  0.00  0.00    +0.000 A 
ATOM     25  N   UNL     1       5.699   3.424  13.890  0.00  0.00    +0.000 NA
ATOM     26  N   UNL     1       5.718   3.463  12.514  0.00  0.00    +0.000 NA
ATOM     27  C   UNL     1       6.696   4.261  12.152  0.00  0.00    +0.000 A 
ATOM     28  N   UNL     1       7.319   4.751  13.265  0.00  0.00    +0.000 N 
ATOM     29  C   UNL     1       8.428   5.665  13.246  0.00  0.00    +0.000 C 
ENDBRANCH  23  24
ENDBRANCH  22  23
ENDBRANCH   1  22
TORSDOF 6
ENDMDL
MODEL 6
REMARK VINA RESULT:      -7.7      2.708      3.693
REMARK  Name = 
REMARK  8 active torsions:
REMARK  status: ('A' for Active; 'I' for Inactive)
REMARK    1  A    between atoms: C_1  and  C_2
REMARK    2  A    between atoms: C_2  and  S_3
REMARK    3  A    between atoms: C_2  and  C_10
REMARK    4  A    between atoms: S_3  and  C_4
REMARK    5  A    between atoms: N_8  and  C_9
REMARK    6  A    between atoms: C_14  and  N_15
REMARK    7  A    between atoms: C_16  and  C_18
REMARK    8  A    between atoms: C_22  and  C_23
REMARK                            x       y       z     vdW  Elec       q    Type
REMARK                         _______ _______ _______ _____ _____    ______ ____
ROOT
ATOM      1  C   UNL     1       0.085  10.211  19.895  0.00  0.00    +0.000 A 
ATOM      2  C   UNL     1      -0.351   9.942  21.203  0.00  0.00    +0.000 A 
ATOM      3  C   UNL     1       0.130   8.841  21.906  0.00  0.00    +0.000 A 
ATOM      4  C   UNL     1       1.077   7.998  21.330  0.00  0.00    +0.000 A 
ATOM      5  C   UNL     1       1.570   8.246  20.049  0.00  0.00    +0.000 A 
ATOM      6  C   UNL     1       1.076   9.362  19.343  0.00  0.00    +0.000 A 
ENDROOT
BRANCH   5   7
ATOM      7  N   UNL     1       2.519   7.400  19.424  0.00  0.00    +0.000 N 
ATOM      8  C   UNL     1       2.597   6.016  19.533  0.00  0.00    +0.000 C 
ATOM      9  O   UNL     1       1.903   5.291  20.241  0.00  0.00    +0.000 OA
ATOM     10  H   UNL     1       3.202   7.823  18.803  0.00  0.00    +0.000 HD
BRANCH   8  11
ATOM     11  C   UNL     1       3.639   5.367  18.673  0.00  0.00    +0.000 A 
ATOM     12  C   UNL     1       3.235   4.572  17.604  0.00  0.00    +0.000 A 
ATOM     13  C   UNL     1       4.210   4.012  16.788  0.00  0.00    +0.000 A 
ATOM     14  C   UNL     1       5.550   4.264  17.062  0.00  0.00    +0.000 A 
ATOM     15  C   UNL     1       5.889   5.073  18.154  0.00  0.00    +0.000 A 
ATOM     16  N   UNL     1       4.941   5.624  18.973  0.00  0.00    +0.000 NA
BRANCH  15  17
ATOM     17  C   UNL     1       7.360   5.361  18.437  0.00  0.00    +0.000 C 
ATOM     18  F   UNL     1       8.198   4.361  18.032  0.00  0.00    +0.000 F 
ATOM     19  F   UNL     1       7.807   6.486  17.809  0.00  0.00    +0.000 F 
ATOM     20  F   UNL     1       7.619   5.539  19.764  0.00  0.00    +0.000 F 
ENDBRANCH  15  17
ENDBRANCH   8  11
ENDBRANCH   5   7
BRANCH   1  22
ATOM     21  C   UNL     1      -1.545  10.824  18.026  0.00  0.00    +0.000 C 
ATOM     22  C   UNL     1      -0.534  11.343  19.065  0.00  0.00    +0.000 C 
BRANCH  22  23
ATOM     23  S   UNL     1      -1.341  12.622  20.116  0.00  0.00    +0.000 S 
BRANCH  23  24
ATOM     24  C   UNL     1       0.042  13.554  20.610  0.00  0.00    +0.000 A 
ATOM     25  N   UNL     1       0.838  13.279  21.617  0.00  0.00    +0.000 NA
ATOM     26  N   UNL     1       1.832  14.231  21.644  0.00  0.00    +0.000 NA
ATOM     27  C   UNL     1       1.610  15.066  20.656  0.00  0.00    +0.000 A 
ATOM     28  N   UNL     1       0.489  14.680  19.977  0.00  0.00    +0.000 N 
ATOM     29  C   UNL     1      -0.045  15.357  18.827  0.00  0.00    +0.000 C 
ENDBRANCH  23  24
ENDBRANCH  22  23
ENDBRANCH   1  22
TORSDOF 6
ENDMDL
MODEL 7
REMARK VINA RESULT:      -7.7      5.687      9.828
REMARK  Name = 
REMARK  8 active torsions:
REMARK  status: ('A' for Active; 'I' for Inactive)
REMARK    1  A    between atoms: C_1  and  C_2
REMARK    2  A    between atoms: C_2  and  S_3
REMARK    3  A    between atoms: C_2  and  C_10
REMARK    4  A    between atoms: S_3  and  C_4
REMARK    5  A    between atoms: N_8  and  C_9
REMARK    6  A    between atoms: C_14  and  N_15
REMARK    7  A    between atoms: C_16  and  C_18
REMARK    8  A    between atoms: C_22  and  C_23
REMARK                            x       y       z     vdW  Elec       q    Type
REMARK                         _______ _______ _______ _____ _____    ______ ____
ROOT
ATOM      1  C   UNL     1       2.347   7.294  19.425  0.00  0.00    +0.000 A 
ATOM      2  C   UNL     1       2.559   7.720  18.104  0.00  0.00    +0.000 A 
ATOM      3  C   UNL     1       2.017   8.915  17.641  0.00  0.00    +0.000 A 
ATOM      4  C   UNL     1       1.274   9.727  18.493  0.00  0.00    +0.000 A 
ATOM      5  C   UNL     1       1.070   9.367  19.826  0.00  0.00    +0.000 A 
ATOM      6  C   UNL     1       1.620   8.154  20.286  0.00  0.00    +0.000 A 
ENDROOT
BRANCH   5   7
ATOM      7  N   UNL     1       0.303  10.159  20.716  0.00  0.00    +0.000 N 
ATOM      8  C   UNL     1       0.628  11.423  21.195  0.00  0.00    +0.000 C 
ATOM      9  O   UNL     1       1.664  12.048  20.986  0.00  0.00    +0.000 OA
ATOM     10  H   UNL     1      -0.595   9.798  21.024  0.00  0.00    +0.000 HD
BRANCH   8  11
ATOM     11  C   UNL     1      -0.425  12.072  22.041  0.00  0.00    +0.000 A 
ATOM     12  C   UNL     1      -1.549  11.336  22.408  0.00  0.00    +0.000 A 
ATOM     13  C   UNL     1      -2.496  11.935  23.228  0.00  0.00    +0.000 A 
ATOM     14  C   UNL     1      -2.292  13.243  23.657  0.00  0.00    +0.000 A 
ATOM     15  C   UNL     1      -1.140  13.929  23.250  0.00  0.00    +0.000 A 
ATOM     16  N   UNL     1      -0.202  13.356  22.435  0.00  0.00    +0.000 NA
BRANCH  15  17
ATOM     17  C   UNL     1      -0.913  15.355  23.740  0.00  0.00    +0.000 C 
ATOM     18  F   UNL     1      -0.778  15.450  25.096  0.00  0.00    +0.000 F 
ATOM     19  F   UNL     1       0.217  15.917  23.222  0.00  0.00    +0.000 F 
ATOM     20  F   UNL     1      -1.937  16.195  23.416  0.00  0.00    +0.000 F 
ENDBRANCH  15  17
ENDBRANCH   8  11
ENDBRANCH   5   7
BRANCH   1  22
ATOM     21  C   UNL     1       1.712   5.117  20.603  0.00  0.00    +0.000 C 
ATOM     22  C   UNL     1       2.827   5.919  19.907  0.00  0.00    +0.000 C 
BRANCH  22  23
ATOM     23  S   UNL     1       3.545   4.910  18.543  0.00  0.00    +0.000 S 
BRANCH  23  24
ATOM     24  C   UNL     1       5.235   5.284  18.720  0.00  0.00    +0.000 A 
ATOM     25  N   UNL     1       5.984   4.997  19.759  0.00  0.00    +0.000 NA
ATOM     26  N   UNL     1       7.266   5.420  19.488  0.00  0.00    +0.000 NA
ATOM     27  C   UNL     1       7.260   5.962  18.292  0.00  0.00    +0.000 A 
ATOM     28  N   UNL     1       5.999   5.901  17.769  0.00  0.00    +0.000 N 
ATOM     29  C   UNL     1       5.627   6.390  16.470  0.00  0.00    +0.000 C 
ENDBRANCH  23  24
ENDBRANCH  22  23
ENDBRANCH   1  22
TORSDOF 6
ENDMDL
MODEL 8
REMARK VINA RESULT:      -7.7      2.411      3.519
REMARK  Name = 
REMARK  8 active torsions:
REMARK  status: ('A' for Active; 'I' for Inactive)
REMARK    1  A    between atoms: C_1  and  C_2
REMARK    2  A    between atoms: C_2  and  S_3
REMARK    3  A    between atoms: C_2  and  C_10
REMARK    4  A    between atoms: S_3  and  C_4
REMARK    5  A    between atoms: N_8  and  C_9
REMARK    6  A    between atoms: C_14  and  N_15
REMARK    7  A    between atoms: C_16  and  C_18
REMARK    8  A    between atoms: C_22  and  C_23
REMARK                            x       y       z     vdW  Elec       q    Type
REMARK                         _______ _______ _______ _____ _____    ______ ____
ROOT
ATOM      1  C   UNL     1      -0.072  10.099  19.555  0.00  0.00    +0.000 A 
ATOM      2  C   UNL     1      -0.334  10.052  20.933  0.00  0.00    +0.000 A 
ATOM      3  C   UNL     1       0.328   9.147  21.758  0.00  0.00    +0.000 A 
ATOM      4  C   UNL     1       1.287   8.287  21.231  0.00  0.00    +0.000 A 
ATOM      5  C   UNL     1       1.612   8.323  19.874  0.00  0.00    +0.000 A 
ATOM      6  C   UNL     1       0.934   9.241  19.045  0.00  0.00    +0.000 A 
ENDROOT
BRANCH   5   7
ATOM      7  N   UNL     1       2.567   7.449  19.300  0.00  0.00    +0.000 N 
ATOM      8  C   UNL     1       2.569   6.061  19.365  0.00  0.00    +0.000 C 
ATOM      9  O   UNL     1       1.784   5.350  19.987  0.00  0.00    +0.000 OA
ATOM     10  H   UNL     1       3.319   7.857  18.751  0.00  0.00    +0.000 HD
BRANCH   8  11
ATOM     11  C   UNL     1       3.647   5.388  18.570  0.00  0.00    +0.000 A 
ATOM     12  C   UNL     1       3.289   4.549  17.517  0.00  0.00    +0.000 A 
ATOM     13  C   UNL     1       4.297   3.967  16.761  0.00  0.00    +0.000 A 
ATOM     14  C   UNL     1       5.625   4.238  17.076  0.00  0.00    +0.000 A 
ATOM     15  C   UNL     1       5.917   5.090  18.149  0.00  0.00    +0.000 A 
ATOM     16  N   UNL     1       4.936   5.665  18.910  0.00  0.00    +0.000 NA
BRANCH  15  17
ATOM     17  C   UNL     1       7.375   5.399  18.477  0.00  0.00    +0.000 C 
ATOM     18  F   UNL     1       8.239   4.413  18.093  0.00  0.00    +0.000 F 
ATOM     19  F   UNL     1       7.823   6.533  17.866  0.00  0.00    +0.000 F 
ATOM     20  F   UNL     1       7.591   5.576  19.811  0.00  0.00    +0.000 F 
ENDBRANCH  15  17
ENDBRANCH   8  11
ENDBRANCH   5   7
BRANCH   1  22
ATOM     21  C   UNL     1      -1.846  10.196  17.718  0.00  0.00    +0.000 C 
ATOM     22  C   UNL     1      -0.887  10.999  18.617  0.00  0.00    +0.000 C 
BRANCH  22  23
ATOM     23  S   UNL     1      -1.841  12.282  19.533  0.00  0.00    +0.000 S 
BRANCH  23  24
ATOM     24  C   UNL     1      -0.663  13.559  19.619  0.00  0.00    +0.000 A 
ATOM     25  N   UNL     1      -0.185  14.236  18.601  0.00  0.00    +0.000 NA
ATOM     26  N   UNL     1       0.686  15.183  19.093  0.00  0.00    +0.000 NA
ATOM     27  C   UNL     1       0.720  15.050  20.399  0.00  0.00    +0.000 A 
ATOM     28  N   UNL     1      -0.114  14.036  20.776  0.00  0.00    +0.000 N 
ATOM     29  C   UNL     1      -0.335  13.619  22.133  0.00  0.00    +0.000 C 
ENDBRANCH  23  24
ENDBRANCH  22  23
ENDBRANCH   1  22
TORSDOF 6
ENDMDL
MODEL 9
REMARK VINA RESULT:      -7.7      4.558      9.264
REMARK  Name = 
REMARK  8 active torsions:
REMARK  status: ('A' for Active; 'I' for Inactive)
REMARK    1  A    between atoms: C_1  and  C_2
REMARK    2  A    between atoms: C_2  and  S_3
REMARK    3  A    between atoms: C_2  and  C_10
REMARK    4  A    between atoms: S_3  and  C_4
REMARK    5  A    between atoms: N_8  and  C_9
REMARK    6  A    between atoms: C_14  and  N_15
REMARK    7  A    between atoms: C_16  and  C_18
REMARK    8  A    between atoms: C_22  and  C_23
REMARK                            x       y       z     vdW  Elec       q    Type
REMARK                         _______ _______ _______ _____ _____    ______ ____
ROOT
ATOM      1  C   UNL     1       4.421   5.001  17.693  0.00  0.00    +0.000 A 
ATOM      2  C   UNL     1       4.275   3.675  18.133  0.00  0.00    +0.000 A 
ATOM      3  C   UNL     1       3.486   3.371  19.239  0.00  0.00    +0.000 A 
ATOM      4  C   UNL     1       2.804   4.379  19.915  0.00  0.00    +0.000 A 
ATOM      5  C   UNL     1       2.885   5.706  19.491  0.00  0.00    +0.000 A 
ATOM      6  C   UNL     1       3.688   6.006  18.372  0.00  0.00    +0.000 A 
ENDROOT
BRANCH   5   7
ATOM      7  N   UNL     1       2.221   6.759  20.166  0.00  0.00    +0.000 N 
ATOM      8  C   UNL     1       1.839   7.982  19.627  0.00  0.00    +0.000 C 
ATOM      9  O   UNL     1       2.068   8.392  18.492  0.00  0.00    +0.000 OA
ATOM     10  H   UNL     1       1.959   6.615  21.137  0.00  0.00    +0.000 HD
BRANCH   8  11
ATOM     11  C   UNL     1       1.052   8.866  20.547  0.00  0.00    +0.000 A 
ATOM     12  C   UNL     1       1.206   8.718  21.923  0.00  0.00    +0.000 A 
ATOM     13  C   UNL     1       0.505   9.573  22.764  0.00  0.00    +0.000 A 
ATOM     14  C   UNL     1      -0.322  10.544  22.209  0.00  0.00    +0.000 A 
ATOM     15  C   UNL     1      -0.433  10.638  20.815  0.00  0.00    +0.000 A 
ATOM     16  N   UNL     1       0.244   9.798  19.973  0.00  0.00    +0.000 NA
BRANCH  15  17
ATOM     17  C   UNL     1      -1.326  11.718  20.213  0.00  0.00    +0.000 C 
ATOM     18  F   UNL     1      -2.101  11.270  19.180  0.00  0.00    +0.000 F 
ATOM     19  F   UNL     1      -2.199  12.246  21.118  0.00  0.00    +0.000 F 
ATOM     20  F   UNL     1      -0.620  12.769  19.709  0.00  0.00    +0.000 F 
ENDBRANCH  15  17
ENDBRANCH   8  11
ENDBRANCH   5   7
BRANCH   1  22
ATOM     21  C   UNL     1       6.516   6.302  17.026  0.00  0.00    +0.000 C 
ATOM     22  C   UNL     1       5.389   5.363  16.559  0.00  0.00    +0.000 C 
BRANCH  22  23
ATOM     23  S   UNL     1       6.126   3.873  15.766  0.00  0.00    +0.000 S 
BRANCH  23  24
ATOM     24  C   UNL     1       6.931   4.597  14.404  0.00  0.00    +0.000 A 
ATOM     25  N   UNL     1       7.874   5.508  14.461  0.00  0.00    +0.000 NA
ATOM     26  N   UNL     1       8.276   5.784  13.173  0.00  0.00    +0.000 NA
ATOM     27  C   UNL     1       7.560   5.037  12.366  0.00  0.00    +0.000 A 
ATOM     28  N   UNL     1       6.695   4.273  13.098  0.00  0.00    +0.000 N 
ATOM     29  C   UNL     1       5.766   3.328  12.542  0.00  0.00    +0.000 C 
ENDBRANCH  23  24
ENDBRANCH  22  23
ENDBRANCH   1  22
TORSDOF 6
ENDMDL
