MODEL 1
REMARK VINA RESULT:      -7.8      0.000      0.000
REMARK  Name = 
REMARK  15 active torsions:
REMARK  status: ('A' for Active; 'I' for Inactive)
REMARK    1  A    between atoms: C_1  and  O_2
REMARK    2  A    between atoms: O_2  and  C_3
REMARK    3  A    between atoms: C_3  and  C_5
REMARK    4  A    between atoms: C_5  and  C_6
REMARK    5  A    between atoms: C_5  and  N_7
REMARK    6  A    between atoms: N_7  and  P_8
REMARK    7  A    between atoms: P_8  and  O_10
REMARK    8  A    between atoms: P_8  and  O_26
REMARK    9  A    between atoms: O_10  and  C_11
REMARK   10  A    between atoms: C_11  and  C_12
REMARK   11  A    between atoms: C_12  and  O_13
REMARK   12  A    between atoms: O_13  and  C_14
REMARK   13  A    between atoms: C_14  and  N_15
REMARK   14  A    between atoms: C_19  and  O_20
REMARK   15  A    between atoms: O_26  and  C_27
REMARK                            x       y       z     vdW  Elec       q    Type
REMARK                         _______ _______ _______ _____ _____    ______ ____
ROOT
ATOM      1  O   UNL     1       4.355   5.714  16.772  0.00  0.00    +0.000 OA
ENDROOT
BRANCH   1   2
ATOM      2  P   UNL     1       3.960   4.129  17.132  0.00  0.00    +0.000 P 
ATOM      3  O   UNL     1       4.614   3.739  18.462  0.00  0.00    +0.000 OA
BRANCH   2   4
ATOM      4  N   UNL     1       5.441   3.623  16.284  0.00  0.00    +0.000 NA
ATOM      5  H   UNL     1       6.061   3.106  16.885  0.00  0.00    +0.000 HD
BRANCH   4   6
ATOM      6  C   UNL     1       6.140   4.759  15.650  0.00  0.00    +0.000 C 
ATOM      7  C   UNL     1       6.581   4.386  14.241  0.00  0.00    +0.000 C 
BRANCH   6   8
ATOM      8  C   UNL     1       7.346   5.178  16.503  0.00  0.00    +0.000 C 
ATOM      9  O   UNL     1       7.983   4.404  17.214  0.00  0.00    +0.000 OA
BRANCH   8  11
ATOM     10  C   UNL     1       7.689   7.202  17.656  0.00  0.00    +0.000 C 
ATOM     11  O   UNL     1       7.562   6.517  16.409  0.00  0.00    +0.000 OA
ENDBRANCH   8  11
ENDBRANCH   6   8
ENDBRANCH   4   6
ENDBRANCH   2   4
BRANCH   2  12
ATOM     12  O   UNL     1       2.521   4.621  17.956  0.00  0.00    +0.000 OA
BRANCH  12  13
ATOM     13  C   UNL     1       2.111   4.155  19.175  0.00  0.00    +0.000 A 
ATOM     14  C   UNL     1       2.387   4.782  20.382  0.00  0.00    +0.000 A 
ATOM     15  C   UNL     1       2.209   4.082  21.582  0.00  0.00    +0.000 A 
ATOM     16  C   UNL     1       1.605   2.827  21.578  0.00  0.00    +0.000 A 
ATOM     17  C   UNL     1       1.153   2.285  20.377  0.00  0.00    +0.000 A 
ATOM     18  C   UNL     1       1.419   2.944  19.175  0.00  0.00    +0.000 A 
ENDBRANCH  12  13
ENDBRANCH   2  12
ENDBRANCH   1   2
BRANCH   1  19
ATOM     19  C   UNL     1       4.193   6.719  17.779  0.00  0.00    +0.000 C 
BRANCH  19  20
ATOM     20  C   UNL     1       3.089   7.706  17.438  0.00  0.00    +0.000 C 
BRANCH  20  21
ATOM     21  O   UNL     1       2.344   7.931  18.628  0.00  0.00    +0.000 OA
BRANCH  21  22
ATOM     22  C   UNL     1       1.541   9.099  18.541  0.00  0.00    +0.000 C 
BRANCH  22  23
ATOM     23  N   UNL     1       1.014   9.371  19.858  0.00  0.00    +0.000 N 
ATOM     24  C   UNL     1       1.220   8.637  20.997  0.00  0.00    +0.000 A 
ATOM     25  N   UNL     1       0.592   9.154  22.034  0.00  0.00    +0.000 NA
ATOM     26  C   UNL     1      -0.043  10.262  21.526  0.00  0.00    +0.000 A 
ATOM     27  C   UNL     1      -0.857  11.224  22.096  0.00  0.00    +0.000 A 
ATOM     28  N   UNL     1      -1.363  12.224  21.347  0.00  0.00    +0.000 NA
ATOM     29  C   UNL     1      -1.051  12.249  20.037  0.00  0.00    +0.000 A 
ATOM     30  N   UNL     1      -1.581  13.290  19.297  0.00  0.00    +0.000 N 
ATOM     31  N   UNL     1      -0.254  11.388  19.374  0.00  0.00    +0.000 NA
ATOM     32  C   UNL     1       0.204  10.418  20.177  0.00  0.00    +0.000 A 
ATOM     33  H   UNL     1      -1.818  14.047  19.923  0.00  0.00    +0.000 HD
ATOM     34  H   UNL     1      -0.968  13.507  18.513  0.00  0.00    +0.000 HD
BRANCH  27  35
ATOM     35  O   UNL     1      -1.188  11.200  23.429  0.00  0.00    +0.000 OA
ATOM     36  H   UNL     1      -0.547  10.578  23.821  0.00  0.00    +0.000 HD
ENDBRANCH  27  35
ENDBRANCH  22  23
ENDBRANCH  21  22
ENDBRANCH  20  21
ENDBRANCH  19  20
ENDBRANCH   1  19
TORSDOF 13
ENDMDL
MODEL 2
REMARK VINA RESULT:      -7.7      5.591      8.664
REMARK  Name = 
REMARK  15 active torsions:
REMARK  status: ('A' for Active; 'I' for Inactive)
REMARK    1  A    between atoms: C_1  and  O_2
REMARK    2  A    between atoms: O_2  and  C_3
REMARK    3  A    between atoms: C_3  and  C_5
REMARK    4  A    between atoms: C_5  and  C_6
REMARK    5  A    between atoms: C_5  and  N_7
REMARK    6  A    between atoms: N_7  and  P_8
REMARK    7  A    between atoms: P_8  and  O_10
REMARK    8  A    between atoms: P_8  and  O_26
REMARK    9  A    between atoms: O_10  and  C_11
REMARK   10  A    between atoms: C_11  and  C_12
REMARK   11  A    between atoms: C_12  and  O_13
REMARK   12  A    between atoms: O_13  and  C_14
REMARK   13  A    between atoms: C_14  and  N_15
REMARK   14  A    between atoms: C_19  and  O_20
REMARK   15  A    between atoms: O_26  and  C_27
REMARK                            x       y       z     vdW  Elec       q    Type
REMARK                         _______ _______ _______ _____ _____    ______ ____
ROOT
ATOM      1  O   UNL     1       7.822   6.899  17.262  0.00  0.00    +0.000 OA
ENDROOT
BRANCH   1   2
ATOM      2  P   UNL     1       6.564   5.958  16.688  0.00  0.00    +0.000 P 
ATOM      3  O   UNL     1       5.635   6.829  15.835  0.00  0.00    +0.000 OA
BRANCH   2   4
ATOM      4  N   UNL     1       5.630   6.419  18.131  0.00  0.00    +0.000 NA
ATOM      5  H   UNL     1       6.204   6.871  18.823  0.00  0.00    +0.000 HD
BRANCH   4   6
ATOM      6  C   UNL     1       4.897   5.276  18.713  0.00  0.00    +0.000 C 
ATOM      7  C   UNL     1       5.237   3.995  17.960  0.00  0.00    +0.000 C 
BRANCH   6   8
ATOM      8  C   UNL     1       3.386   5.543  18.673  0.00  0.00    +0.000 C 
ATOM      9  O   UNL     1       2.792   6.239  19.492  0.00  0.00    +0.000 OA
BRANCH   8  11
ATOM     10  C   UNL     1       1.566   4.218  17.981  0.00  0.00    +0.000 C 
ATOM     11  O   UNL     1       2.802   4.856  17.655  0.00  0.00    +0.000 OA
ENDBRANCH   8  11
ENDBRANCH   6   8
ENDBRANCH   4   6
ENDBRANCH   2   4
BRANCH   2  12
ATOM     12  O   UNL     1       7.472   5.511  15.285  0.00  0.00    +0.000 OA
BRANCH  12  13
ATOM     13  C   UNL     1       6.955   4.913  14.168  0.00  0.00    +0.000 A 
ATOM     14  C   UNL     1       5.811   4.127  14.164  0.00  0.00    +0.000 A 
ATOM     15  C   UNL     1       5.539   3.308  13.061  0.00  0.00    +0.000 A 
ATOM     16  C   UNL     1       6.317   3.403  11.909  0.00  0.00    +0.000 A 
ATOM     17  C   UNL     1       7.348   4.337  11.851  0.00  0.00    +0.000 A 
ATOM     18  C   UNL     1       7.675   5.081  12.986  0.00  0.00    +0.000 A 
ENDBRANCH  12  13
ENDBRANCH   2  12
ENDBRANCH   1   2
BRANCH   1  19
ATOM     19  C   UNL     1       7.577   8.275  17.579  0.00  0.00    +0.000 C 
BRANCH  19  20
ATOM     20  C   UNL     1       8.623   8.845  18.522  0.00  0.00    +0.000 C 
BRANCH  20  21
ATOM     21  O   UNL     1       8.860  10.189  18.121  0.00  0.00    +0.000 OA
BRANCH  21  22
ATOM     22  C   UNL     1       9.482  10.948  19.147  0.00  0.00    +0.000 C 
BRANCH  22  23
ATOM     23  N   UNL     1      10.321  11.939  18.514  0.00  0.00    +0.000 N 
ATOM     24  C   UNL     1      11.618  11.782  18.102  0.00  0.00    +0.000 A 
ATOM     25  N   UNL     1      12.101  12.885  17.566  0.00  0.00    +0.000 NA
ATOM     26  C   UNL     1      11.063  13.782  17.647  0.00  0.00    +0.000 A 
ATOM     27  C   UNL     1      10.928  15.102  17.261  0.00  0.00    +0.000 A 
ATOM     28  N   UNL     1       9.773  15.763  17.471  0.00  0.00    +0.000 NA
ATOM     29  C   UNL     1       8.765  15.095  18.064  0.00  0.00    +0.000 A 
ATOM     30  N   UNL     1       7.591  15.798  18.260  0.00  0.00    +0.000 N 
ATOM     31  N   UNL     1       8.765  13.807  18.461  0.00  0.00    +0.000 NA
ATOM     32  C   UNL     1       9.946  13.219  18.232  0.00  0.00    +0.000 A 
ATOM     33  H   UNL     1       7.563  16.574  17.613  0.00  0.00    +0.000 HD
ATOM     34  H   UNL     1       6.798  15.159  18.256  0.00  0.00    +0.000 HD
BRANCH  27  35
ATOM     35  O   UNL     1      11.954  15.794  16.665  0.00  0.00    +0.000 OA
ATOM     36  H   UNL     1      12.625  15.110  16.478  0.00  0.00    +0.000 HD
ENDBRANCH  27  35
ENDBRANCH  22  23
ENDBRANCH  21  22
ENDBRANCH  20  21
ENDBRANCH  19  20
ENDBRANCH   1  19
TORSDOF 13
ENDMDL
MODEL 3
REMARK VINA RESULT:      -7.7      1.783      2.766
REMARK  Name = 
REMARK  15 active torsions:
REMARK  status: ('A' for Active; 'I' for Inactive)
REMARK    1  A    between atoms: C_1  and  O_2
REMARK    2  A    between atoms: O_2  and  C_3
REMARK    3  A    between atoms: C_3  and  C_5
REMARK    4  A    between atoms: C_5  and  C_6
REMARK    5  A    between atoms: C_5  and  N_7
REMARK    6  A    between atoms: N_7  and  P_8
REMARK    7  A    between atoms: P_8  and  O_10
REMARK    8  A    between atoms: P_8  and  O_26
REMARK    9  A    between atoms: O_10  and  C_11
REMARK   10  A    between atoms: C_11  and  C_12
REMARK   11  A    between atoms: C_12  and  O_13
REMARK   12  A    between atoms: O_13  and  C_14
REMARK   13  A    between atoms: C_14  and  N_15
REMARK   14  A    between atoms: C_19  and  O_20
REMARK   15  A    between atoms: O_26  and  C_27
REMARK                            x       y       z     vdW  Elec       q    Type
REMARK                         _______ _______ _______ _____ _____    ______ ____
ROOT
ATOM      1  O   UNL     1       4.744   5.948  18.771  0.00  0.00    +0.000 OA
ENDROOT
BRANCH   1   2
ATOM      2  P   UNL     1       5.544   4.560  18.289  0.00  0.00    +0.000 P 
ATOM      3  O   UNL     1       6.924   4.520  18.954  0.00  0.00    +0.000 OA
BRANCH   2   4
ATOM      4  N   UNL     1       6.246   5.495  16.946  0.00  0.00    +0.000 NA
ATOM      5  H   UNL     1       6.177   6.487  17.101  0.00  0.00    +0.000 HD
BRANCH   4   6
ATOM      6  C   UNL     1       5.667   5.119  15.640  0.00  0.00    +0.000 C 
ATOM      7  C   UNL     1       4.716   3.941  15.805  0.00  0.00    +0.000 C 
BRANCH   6   8
ATOM      8  C   UNL     1       6.787   4.776  14.647  0.00  0.00    +0.000 C 
ATOM      9  O   UNL     1       7.800   5.455  14.497  0.00  0.00    +0.000 OA
BRANCH   8  11
ATOM     10  C   UNL     1       6.588   3.809  12.509  0.00  0.00    +0.000 C 
ATOM     11  O   UNL     1       6.470   3.669  13.926  0.00  0.00    +0.000 OA
ENDBRANCH   8  11
ENDBRANCH   6   8
ENDBRANCH   4   6
ENDBRANCH   2   4
BRANCH   2  12
ATOM     12  O   UNL     1       4.862   3.652  19.593  0.00  0.00    +0.000 OA
BRANCH  12  13
ATOM     13  C   UNL     1       3.561   3.236  19.670  0.00  0.00    +0.000 A 
ATOM     14  C   UNL     1       2.931   2.467  18.702  0.00  0.00    +0.000 A 
ATOM     15  C   UNL     1       1.535   2.357  18.705  0.00  0.00    +0.000 A 
ATOM     16  C   UNL     1       0.794   2.878  19.764  0.00  0.00    +0.000 A 
ATOM     17  C   UNL     1       1.452   3.482  20.832  0.00  0.00    +0.000 A 
ATOM     18  C   UNL     1       2.835   3.673  20.778  0.00  0.00    +0.000 A 
ENDBRANCH  12  13
ENDBRANCH   2  12
ENDBRANCH   1   2
BRANCH   1  19
ATOM     19  C   UNL     1       3.448   6.230  18.231  0.00  0.00    +0.000 C 
BRANCH  19  20
ATOM     20  C   UNL     1       3.295   7.687  17.828  0.00  0.00    +0.000 C 
BRANCH  20  21
ATOM     21  O   UNL     1       2.280   8.246  18.652  0.00  0.00    +0.000 OA
BRANCH  21  22
ATOM     22  C   UNL     1       1.453   9.153  17.938  0.00  0.00    +0.000 C 
BRANCH  22  23
ATOM     23  N   UNL     1       1.382  10.378  18.699  0.00  0.00    +0.000 N 
ATOM     24  C   UNL     1       1.836  11.614  18.319  0.00  0.00    +0.000 A 
ATOM     25  N   UNL     1       1.623  12.523  19.250  0.00  0.00    +0.000 NA
ATOM     26  C   UNL     1       1.010  11.829  20.266  0.00  0.00    +0.000 A 
ATOM     27  C   UNL     1       0.535  12.204  21.509  0.00  0.00    +0.000 A 
ATOM     28  N   UNL     1      -0.029  11.296  22.329  0.00  0.00    +0.000 NA
ATOM     29  C   UNL     1      -0.111  10.023  21.897  0.00  0.00    +0.000 A 
ATOM     30  N   UNL     1      -0.701   9.117  22.759  0.00  0.00    +0.000 N 
ATOM     31  N   UNL     1       0.290   9.542  20.705  0.00  0.00    +0.000 NA
ATOM     32  C   UNL     1       0.850  10.495  19.948  0.00  0.00    +0.000 A 
ATOM     33  H   UNL     1      -1.286   9.621  23.411  0.00  0.00    +0.000 HD
ATOM     34  H   UNL     1      -1.135   8.364  22.228  0.00  0.00    +0.000 HD
BRANCH  27  35
ATOM     35  O   UNL     1       0.624  13.498  21.961  0.00  0.00    +0.000 OA
ATOM     36  H   UNL     1       1.499  13.540  22.390  0.00  0.00    +0.000 HD
ENDBRANCH  27  35
ENDBRANCH  22  23
ENDBRANCH  21  22
ENDBRANCH  20  21
ENDBRANCH  19  20
ENDBRANCH   1  19
TORSDOF 13
ENDMDL
MODEL 4
REMARK VINA RESULT:      -7.6      1.787      2.464
REMARK  Name = 
REMARK  15 active torsions:
REMARK  status: ('A' for Active; 'I' for Inactive)
REMARK    1  A    between atoms: C_1  and  O_2
REMARK    2  A    between atoms: O_2  and  C_3
REMARK    3  A    between atoms: C_3  and  C_5
REMARK    4  A    between atoms: C_5  and  C_6
REMARK    5  A    between atoms: C_5  and  N_7
REMARK    6  A    between atoms: N_7  and  P_8
REMARK    7  A    between atoms: P_8  and  O_10
REMARK    8  A    between atoms: P_8  and  O_26
REMARK    9  A    between atoms: O_10  and  C_11
REMARK   10  A    between atoms: C_11  and  C_12
REMARK   11  A    between atoms: C_12  and  O_13
REMARK   12  A    between atoms: O_13  and  C_14
REMARK   13  A    between atoms: C_14  and  N_15
REMARK   14  A    between atoms: C_19  and  O_20
REMARK   15  A    between atoms: O_26  and  C_27
REMARK                            x       y       z     vdW  Elec       q    Type
REMARK                         _______ _______ _______ _____ _____    ______ ____
ROOT
ATOM      1  O   UNL     1       3.230   5.861  17.493  0.00  0.00    +0.000 OA
ENDROOT
BRANCH   1   2
ATOM      2  P   UNL     1       4.618   5.005  17.864  0.00  0.00    +0.000 P 
ATOM      3  O   UNL     1       4.877   5.097  19.371  0.00  0.00    +0.000 OA
BRANCH   2   4
ATOM      4  N   UNL     1       5.543   6.509  17.638  0.00  0.00    +0.000 NA
ATOM      5  H   UNL     1       5.350   6.941  16.750  0.00  0.00    +0.000 HD
BRANCH   4   6
ATOM      6  C   UNL     1       6.994   6.308  17.826  0.00  0.00    +0.000 C 
ATOM      7  C   UNL     1       7.734   7.631  17.673  0.00  0.00    +0.000 C 
BRANCH   6   8
ATOM      8  C   UNL     1       7.518   5.274  16.819  0.00  0.00    +0.000 C 
ATOM      9  O   UNL     1       8.050   4.214  17.140  0.00  0.00    +0.000 OA
BRANCH   8  11
ATOM     10  C   UNL     1       6.931   4.745  14.600  0.00  0.00    +0.000 C 
ATOM     11  O   UNL     1       7.368   5.724  15.545  0.00  0.00    +0.000 OA
ENDBRANCH   8  11
ENDBRANCH   6   8
ENDBRANCH   4   6
ENDBRANCH   2   4
BRANCH   2  12
ATOM     12  O   UNL     1       3.719   3.544  18.083  0.00  0.00    +0.000 OA
BRANCH  12  13
ATOM     13  C   UNL     1       2.869   3.289  19.123  0.00  0.00    +0.000 A 
ATOM     14  C   UNL     1       1.534   3.670  19.150  0.00  0.00    +0.000 A 
ATOM     15  C   UNL     1       0.834   3.653  20.363  0.00  0.00    +0.000 A 
ATOM     16  C   UNL     1       1.419   3.103  21.502  0.00  0.00    +0.000 A 
ATOM     17  C   UNL     1       2.692   2.545  21.420  0.00  0.00    +0.000 A 
ATOM     18  C   UNL     1       3.421   2.651  20.234  0.00  0.00    +0.000 A 
ENDBRANCH  12  13
ENDBRANCH   2  12
ENDBRANCH   1   2
BRANCH   1  19
ATOM     19  C   UNL     1       2.823   6.935  18.350  0.00  0.00    +0.000 C 
BRANCH  19  20
ATOM     20  C   UNL     1       2.896   8.286  17.658  0.00  0.00    +0.000 C 
BRANCH  20  21
ATOM     21  O   UNL     1       1.692   8.978  17.959  0.00  0.00    +0.000 OA
BRANCH  21  22
ATOM     22  C   UNL     1       1.365   8.903  19.339  0.00  0.00    +0.000 C 
BRANCH  22  23
ATOM     23  N   UNL     1       0.574  10.066  19.668  0.00  0.00    +0.000 N 
ATOM     24  C   UNL     1       0.800  10.957  20.685  0.00  0.00    +0.000 A 
ATOM     25  N   UNL     1      -0.113  11.906  20.717  0.00  0.00    +0.000 NA
ATOM     26  C   UNL     1      -0.957  11.599  19.677  0.00  0.00    +0.000 A 
ATOM     27  C   UNL     1      -2.101  12.200  19.184  0.00  0.00    +0.000 A 
ATOM     28  N   UNL     1      -2.752  11.671  18.130  0.00  0.00    +0.000 NA
ATOM     29  C   UNL     1      -2.253  10.547  17.581  0.00  0.00    +0.000 A 
ATOM     30  N   UNL     1      -2.940  10.033  16.497  0.00  0.00    +0.000 N 
ATOM     31  N   UNL     1      -1.139   9.886  17.952  0.00  0.00    +0.000 NA
ATOM     32  C   UNL     1      -0.551  10.460  19.010  0.00  0.00    +0.000 A 
ATOM     33  H   UNL     1      -3.490  10.771  16.080  0.00  0.00    +0.000 HD
ATOM     34  H   UNL     1      -2.301   9.526  15.888  0.00  0.00    +0.000 HD
BRANCH  27  35
ATOM     35  O   UNL     1      -2.622  13.340  19.745  0.00  0.00    +0.000 OA
ATOM     36  H   UNL     1      -1.979  14.036  19.510  0.00  0.00    +0.000 HD
ENDBRANCH  27  35
ENDBRANCH  22  23
ENDBRANCH  21  22
ENDBRANCH  20  21
ENDBRANCH  19  20
ENDBRANCH   1  19
TORSDOF 13
ENDMDL
MODEL 5
REMARK VINA RESULT:      -7.6      1.615      2.441
REMARK  Name = 
REMARK  15 active torsions:
REMARK  status: ('A' for Active; 'I' for Inactive)
REMARK    1  A    between atoms: C_1  and  O_2
REMARK    2  A    between atoms: O_2  and  C_3
REMARK    3  A    between atoms: C_3  and  C_5
REMARK    4  A    between atoms: C_5  and  C_6
REMARK    5  A    between atoms: C_5  and  N_7
REMARK    6  A    between atoms: N_7  and  P_8
REMARK    7  A    between atoms: P_8  and  O_10
REMARK    8  A    between atoms: P_8  and  O_26
REMARK    9  A    between atoms: O_10  and  C_11
REMARK   10  A    between atoms: C_11  and  C_12
REMARK   11  A    between atoms: C_12  and  O_13
REMARK   12  A    between atoms: O_13  and  C_14
REMARK   13  A    between atoms: C_14  and  N_15
REMARK   14  A    between atoms: C_19  and  O_20
REMARK   15  A    between atoms: O_26  and  C_27
REMARK                            x       y       z     vdW  Elec       q    Type
REMARK                         _______ _______ _______ _____ _____    ______ ____
ROOT
ATOM      1  O   UNL     1       3.556   7.898  17.938  0.00  0.00    +0.000 OA
ENDROOT
BRANCH   1   2
ATOM      2  P   UNL     1       3.990   6.291  17.774  0.00  0.00    +0.000 P 
ATOM      3  O   UNL     1       4.942   5.910  18.912  0.00  0.00    +0.000 OA
BRANCH   2   4
ATOM      4  N   UNL     1       5.391   6.822  16.813  0.00  0.00    +0.000 NA
ATOM      5  H   UNL     1       5.339   6.499  15.861  0.00  0.00    +0.000 HD
BRANCH   4   6
ATOM      6  C   UNL     1       6.674   6.438  17.435  0.00  0.00    +0.000 C 
ATOM      7  C   UNL     1       7.578   7.657  17.571  0.00  0.00    +0.000 C 
BRANCH   6   8
ATOM      8  C   UNL     1       7.359   5.347  16.600  0.00  0.00    +0.000 C 
ATOM      9  O   UNL     1       7.910   4.361  17.083  0.00  0.00    +0.000 OA
BRANCH   8  11
ATOM     10  C   UNL     1       6.754   4.661  14.430  0.00  0.00    +0.000 C 
ATOM     11  O   UNL     1       7.325   5.659  15.278  0.00  0.00    +0.000 OA
ENDBRANCH   8  11
ENDBRANCH   6   8
ENDBRANCH   4   6
ENDBRANCH   2   4
BRANCH   2  12
ATOM     12  O   UNL     1       2.628   5.776  18.708  0.00  0.00    +0.000 OA
BRANCH  12  13
ATOM     13  C   UNL     1       2.258   4.475  18.912  0.00  0.00    +0.000 A 
ATOM     14  C   UNL     1       2.542   3.437  18.035  0.00  0.00    +0.000 A 
ATOM     15  C   UNL     1       1.863   2.219  18.162  0.00  0.00    +0.000 A 
ATOM     16  C   UNL     1       1.031   1.991  19.256  0.00  0.00    +0.000 A 
ATOM     17  C   UNL     1       0.902   2.970  20.238  0.00  0.00    +0.000 A 
ATOM     18  C   UNL     1       1.505   4.217  20.058  0.00  0.00    +0.000 A 
ENDBRANCH  12  13
ENDBRANCH   2  12
ENDBRANCH   1   2
BRANCH   1  19
ATOM     19  C   UNL     1       2.294   8.223  18.532  0.00  0.00    +0.000 C 
BRANCH  19  20
ATOM     20  C   UNL     1       1.600   9.374  17.822  0.00  0.00    +0.000 C 
BRANCH  20  21
ATOM     21  O   UNL     1       1.306  10.358  18.805  0.00  0.00    +0.000 OA
BRANCH  21  22
ATOM     22  C   UNL     1      -0.067  10.355  19.167  0.00  0.00    +0.000 C 
BRANCH  22  23
ATOM     23  N   UNL     1      -0.180  10.969  20.470  0.00  0.00    +0.000 N 
ATOM     24  C   UNL     1       0.013  10.367  21.686  0.00  0.00    +0.000 A 
ATOM     25  N   UNL     1      -0.174  11.206  22.684  0.00  0.00    +0.000 NA
ATOM     26  C   UNL     1      -0.504  12.392  22.072  0.00  0.00    +0.000 A 
ATOM     27  C   UNL     1      -0.816  13.647  22.558  0.00  0.00    +0.000 A 
ATOM     28  N   UNL     1      -1.115  14.654  21.714  0.00  0.00    +0.000 NA
ATOM     29  C   UNL     1      -1.099  14.393  20.393  0.00  0.00    +0.000 A 
ATOM     30  N   UNL     1      -1.404  15.449  19.553  0.00  0.00    +0.000 N 
ATOM     31  N   UNL     1      -0.789  13.225  19.799  0.00  0.00    +0.000 NA
ATOM     32  C   UNL     1      -0.515  12.270  20.696  0.00  0.00    +0.000 A 
ATOM     33  H   UNL     1      -1.241  16.315  20.046  0.00  0.00    +0.000 HD
ATOM     34  H   UNL     1      -0.937  15.326  18.657  0.00  0.00    +0.000 HD
BRANCH  27  35
ATOM     35  O   UNL     1      -0.843  13.919  23.905  0.00  0.00    +0.000 OA
ATOM     36  H   UNL     1      -0.719  13.048  24.325  0.00  0.00    +0.000 HD
ENDBRANCH  27  35
ENDBRANCH  22  23
ENDBRANCH  21  22
ENDBRANCH  20  21
ENDBRANCH  19  20
ENDBRANCH   1  19
TORSDOF 13
ENDMDL
MODEL 6
REMARK VINA RESULT:      -7.6      1.476      2.500
REMARK  Name = 
REMARK  15 active torsions:
REMARK  status: ('A' for Active; 'I' for Inactive)
REMARK    1  A    between atoms: C_1  and  O_2
REMARK    2  A    between atoms: O_2  and  C_3
REMARK    3  A    between atoms: C_3  and  C_5
REMARK    4  A    between atoms: C_5  and  C_6
REMARK    5  A    between atoms: C_5  and  N_7
REMARK    6  A    between atoms: N_7  and  P_8
REMARK    7  A    between atoms: P_8  and  O_10
REMARK    8  A    between atoms: P_8  and  O_26
REMARK    9  A    between atoms: O_10  and  C_11
REMARK   10  A    between atoms: C_11  and  C_12
REMARK   11  A    between atoms: C_12  and  O_13
REMARK   12  A    between atoms: O_13  and  C_14
REMARK   13  A    between atoms: C_14  and  N_15
REMARK   14  A    between atoms: C_19  and  O_20
REMARK   15  A    between atoms: O_26  and  C_27
REMARK                            x       y       z     vdW  Elec       q    Type
REMARK                         _______ _______ _______ _____ _____    ______ ____
ROOT
ATOM      1  O   UNL     1       3.213   5.475  17.540  0.00  0.00    +0.000 OA
ENDROOT
BRANCH   1   2
ATOM      2  P   UNL     1       4.665   4.729  17.903  0.00  0.00    +0.000 P 
ATOM      3  O   UNL     1       4.953   4.892  19.399  0.00  0.00    +0.000 OA
BRANCH   2   4
ATOM      4  N   UNL     1       5.479   6.283  17.602  0.00  0.00    +0.000 NA
ATOM      5  H   UNL     1       5.250   6.660  16.698  0.00  0.00    +0.000 HD
BRANCH   4   6
ATOM      6  C   UNL     1       6.942   6.194  17.785  0.00  0.00    +0.000 C 
ATOM      7  C   UNL     1       7.578   7.569  17.624  0.00  0.00    +0.000 C 
BRANCH   6   8
ATOM      8  C   UNL     1       7.539   5.200  16.778  0.00  0.00    +0.000 C 
ATOM      9  O   UNL     1       8.081   4.145  17.097  0.00  0.00    +0.000 OA
BRANCH   8  11
ATOM     10  C   UNL     1       6.911   4.764  14.551  0.00  0.00    +0.000 C 
ATOM     11  O   UNL     1       7.441   5.680  15.510  0.00  0.00    +0.000 OA
ENDBRANCH   8  11
ENDBRANCH   6   8
ENDBRANCH   4   6
ENDBRANCH   2   4
BRANCH   2  12
ATOM     12  O   UNL     1       3.874   3.218  18.195  0.00  0.00    +0.000 OA
BRANCH  12  13
ATOM     13  C   UNL     1       2.932   2.995  19.161  0.00  0.00    +0.000 A 
ATOM     14  C   UNL     1       1.568   3.166  18.973  0.00  0.00    +0.000 A 
ATOM     15  C   UNL     1       0.718   3.223  20.085  0.00  0.00    +0.000 A 
ATOM     16  C   UNL     1       1.211   2.947  21.359  0.00  0.00    +0.000 A 
ATOM     17  C   UNL     1       2.546   2.586  21.515  0.00  0.00    +0.000 A 
ATOM     18  C   UNL     1       3.409   2.623  20.418  0.00  0.00    +0.000 A 
ENDBRANCH  12  13
ENDBRANCH   2  12
ENDBRANCH   1   2
BRANCH   1  19
ATOM     19  C   UNL     1       2.925   6.757  18.111  0.00  0.00    +0.000 C 
BRANCH  19  20
ATOM     20  C   UNL     1       2.623   6.673  19.598  0.00  0.00    +0.000 C 
BRANCH  20  21
ATOM     21  O   UNL     1       1.991   7.891  19.967  0.00  0.00    +0.000 OA
BRANCH  21  22
ATOM     22  C   UNL     1       1.639   8.673  18.835  0.00  0.00    +0.000 C 
BRANCH  22  23
ATOM     23  N   UNL     1       1.351  10.011  19.297  0.00  0.00    +0.000 N 
ATOM     24  C   UNL     1       1.640  11.187  18.653  0.00  0.00    +0.000 A 
ATOM     25  N   UNL     1       1.249  12.236  19.348  0.00  0.00    +0.000 NA
ATOM     26  C   UNL     1       0.692  11.700  20.485  0.00  0.00    +0.000 A 
ATOM     27  C   UNL     1       0.103  12.264  21.601  0.00  0.00    +0.000 A 
ATOM     28  N   UNL     1      -0.366  11.486  22.596  0.00  0.00    +0.000 NA
ATOM     29  C   UNL     1      -0.240  10.152  22.463  0.00  0.00    +0.000 A 
ATOM     30  N   UNL     1      -0.736   9.381  23.498  0.00  0.00    +0.000 N 
ATOM     31  N   UNL     1       0.289   9.484  21.419  0.00  0.00    +0.000 NA
ATOM     32  C   UNL     1       0.743  10.320  20.476  0.00  0.00    +0.000 A 
ATOM     33  H   UNL     1      -1.421   9.921  24.008  0.00  0.00    +0.000 HD
ATOM     34  H   UNL     1      -1.028   8.471  23.145  0.00  0.00    +0.000 HD
BRANCH  27  35
ATOM     35  O   UNL     1      -0.021  13.625  21.748  0.00  0.00    +0.000 OA
ATOM     36  H   UNL     1      -0.861  13.837  21.300  0.00  0.00    +0.000 HD
ENDBRANCH  27  35
ENDBRANCH  22  23
ENDBRANCH  21  22
ENDBRANCH  20  21
ENDBRANCH  19  20
ENDBRANCH   1  19
TORSDOF 13
ENDMDL
MODEL 7
REMARK VINA RESULT:      -7.6      2.668      3.352
REMARK  Name = 
REMARK  15 active torsions:
REMARK  status: ('A' for Active; 'I' for Inactive)
REMARK    1  A    between atoms: C_1  and  O_2
REMARK    2  A    between atoms: O_2  and  C_3
REMARK    3  A    between atoms: C_3  and  C_5
REMARK    4  A    between atoms: C_5  and  C_6
REMARK    5  A    between atoms: C_5  and  N_7
REMARK    6  A    between atoms: N_7  and  P_8
REMARK    7  A    between atoms: P_8  and  O_10
REMARK    8  A    between atoms: P_8  and  O_26
REMARK    9  A    between atoms: O_10  and  C_11
REMARK   10  A    between atoms: C_11  and  C_12
REMARK   11  A    between atoms: C_12  and  O_13
REMARK   12  A    between atoms: O_13  and  C_14
REMARK   13  A    between atoms: C_14  and  N_15
REMARK   14  A    between atoms: C_19  and  O_20
REMARK   15  A    between atoms: O_26  and  C_27
REMARK                            x       y       z     vdW  Elec       q    Type
REMARK                         _______ _______ _______ _____ _____    ______ ____
ROOT
ATOM      1  O   UNL     1       3.416   7.811  17.985  0.00  0.00    +0.000 OA
ENDROOT
BRANCH   1   2
ATOM      2  P   UNL     1       3.750   6.175  17.893  0.00  0.00    +0.000 P 
ATOM      3  O   UNL     1       4.180   5.672  19.275  0.00  0.00    +0.000 OA
BRANCH   2   4
ATOM      4  N   UNL     1       5.444   6.593  17.544  0.00  0.00    +0.000 NA
ATOM      5  H   UNL     1       5.535   7.528  17.181  0.00  0.00    +0.000 HD
BRANCH   4   6
ATOM      6  C   UNL     1       6.091   5.611  16.651  0.00  0.00    +0.000 C 
ATOM      7  C   UNL     1       5.053   4.649  16.087  0.00  0.00    +0.000 C 
BRANCH   6   8
ATOM      8  C   UNL     1       7.183   4.845  17.412  0.00  0.00    +0.000 C 
ATOM      9  O   UNL     1       8.070   4.194  16.866  0.00  0.00    +0.000 OA
BRANCH   8  11
ATOM     10  C   UNL     1       7.968   5.699  19.462  0.00  0.00    +0.000 C 
ATOM     11  O   UNL     1       6.988   4.937  18.755  0.00  0.00    +0.000 OA
ENDBRANCH   8  11
ENDBRANCH   6   8
ENDBRANCH   4   6
ENDBRANCH   2   4
BRANCH   2  12
ATOM     12  O   UNL     1       2.103   5.769  18.232  0.00  0.00    +0.000 OA
BRANCH  12  13
ATOM     13  C   UNL     1       1.689   4.663  18.923  0.00  0.00    +0.000 A 
ATOM     14  C   UNL     1       1.365   4.663  20.272  0.00  0.00    +0.000 A 
ATOM     15  C   UNL     1       1.262   3.447  20.959  0.00  0.00    +0.000 A 
ATOM     16  C   UNL     1       1.321   2.241  20.263  0.00  0.00    +0.000 A 
ATOM     17  C   UNL     1       1.453   2.254  18.876  0.00  0.00    +0.000 A 
ATOM     18  C   UNL     1       1.651   3.465  18.209  0.00  0.00    +0.000 A 
ENDBRANCH  12  13
ENDBRANCH   2  12
ENDBRANCH   1   2
BRANCH   1  19
ATOM     19  C   UNL     1       2.188   8.241  18.584  0.00  0.00    +0.000 C 
BRANCH  19  20
ATOM     20  C   UNL     1       1.614   9.474  17.904  0.00  0.00    +0.000 C 
BRANCH  20  21
ATOM     21  O   UNL     1       0.213   9.471  18.144  0.00  0.00    +0.000 OA
BRANCH  21  22
ATOM     22  C   UNL     1      -0.296  10.782  18.339  0.00  0.00    +0.000 C 
BRANCH  22  23
ATOM     23  N   UNL     1      -1.653  10.806  17.844  0.00  0.00    +0.000 N 
ATOM     24  C   UNL     1      -2.122  10.234  16.690  0.00  0.00    +0.000 A 
ATOM     25  N   UNL     1      -3.412  10.445  16.526  0.00  0.00    +0.000 NA
ATOM     26  C   UNL     1      -3.775  11.186  17.625  0.00  0.00    +0.000 A 
ATOM     27  C   UNL     1      -4.980  11.721  18.043  0.00  0.00    +0.000 A 
ATOM     28  N   UNL     1      -5.054  12.429  19.187  0.00  0.00    +0.000 NA
ATOM     29  C   UNL     1      -3.923  12.595  19.899  0.00  0.00    +0.000 A 
ATOM     30  N   UNL     1      -4.034  13.321  21.071  0.00  0.00    +0.000 N 
ATOM     31  N   UNL     1      -2.702  12.105  19.611  0.00  0.00    +0.000 NA
ATOM     32  C   UNL     1      -2.701  11.423  18.459  0.00  0.00    +0.000 A 
ATOM     33  H   UNL     1      -4.997  13.303  21.376  0.00  0.00    +0.000 HD
ATOM     34  H   UNL     1      -3.327  13.016  21.737  0.00  0.00    +0.000 HD
BRANCH  27  35
ATOM     35  O   UNL     1      -6.136  11.564  17.318  0.00  0.00    +0.000 OA
ATOM     36  H   UNL     1      -6.845  11.631  17.984  0.00  0.00    +0.000 HD
ENDBRANCH  27  35
ENDBRANCH  22  23
ENDBRANCH  21  22
ENDBRANCH  20  21
ENDBRANCH  19  20
ENDBRANCH   1  19
TORSDOF 13
ENDMDL
MODEL 8
REMARK VINA RESULT:      -7.5      1.653      2.934
REMARK  Name = 
REMARK  15 active torsions:
REMARK  status: ('A' for Active; 'I' for Inactive)
REMARK    1  A    between atoms: C_1  and  O_2
REMARK    2  A    between atoms: O_2  and  C_3
REMARK    3  A    between atoms: C_3  and  C_5
REMARK    4  A    between atoms: C_5  and  C_6
REMARK    5  A    between atoms: C_5  and  N_7
REMARK    6  A    between atoms: N_7  and  P_8
REMARK    7  A    between atoms: P_8  and  O_10
REMARK    8  A    between atoms: P_8  and  O_26
REMARK    9  A    between atoms: O_10  and  C_11
REMARK   10  A    between atoms: C_11  and  C_12
REMARK   11  A    between atoms: C_12  and  O_13
REMARK   12  A    between atoms: O_13  and  C_14
REMARK   13  A    between atoms: C_14  and  N_15
REMARK   14  A    between atoms: C_19  and  O_20
REMARK   15  A    between atoms: O_26  and  C_27
REMARK                            x       y       z     vdW  Elec       q    Type
REMARK                         _______ _______ _______ _____ _____    ______ ____
ROOT
ATOM      1  O   UNL     1       3.334   8.033  17.506  0.00  0.00    +0.000 OA
ENDROOT
BRANCH   1   2
ATOM      2  P   UNL     1       3.897   6.459  17.561  0.00  0.00    +0.000 P 
ATOM      3  O   UNL     1       4.495   6.189  18.945  0.00  0.00    +0.000 OA
BRANCH   2   4
ATOM      4  N   UNL     1       5.482   7.063  17.021  0.00  0.00    +0.000 NA
ATOM      5  H   UNL     1       5.574   7.040  16.019  0.00  0.00    +0.000 HD
BRANCH   4   6
ATOM      6  C   UNL     1       6.603   6.355  17.673  0.00  0.00    +0.000 C 
ATOM      7  C   UNL     1       7.710   7.338  18.032  0.00  0.00    +0.000 C 
BRANCH   6   8
ATOM      8  C   UNL     1       7.137   5.251  16.750  0.00  0.00    +0.000 C 
ATOM      9  O   UNL     1       7.440   4.124  17.134  0.00  0.00    +0.000 OA
BRANCH   8  11
ATOM     10  C   UNL     1       6.836   4.830  14.452  0.00  0.00    +0.000 C 
ATOM     11  O   UNL     1       7.285   5.714  15.480  0.00  0.00    +0.000 OA
ENDBRANCH   8  11
ENDBRANCH   6   8
ENDBRANCH   4   6
ENDBRANCH   2   4
BRANCH   2  12
ATOM     12  O   UNL     1       2.356   5.873  18.085  0.00  0.00    +0.000 OA
BRANCH  12  13
ATOM     13  C   UNL     1       2.068   4.569  18.382  0.00  0.00    +0.000 A 
ATOM     14  C   UNL     1       1.412   4.160  19.535  0.00  0.00    +0.000 A 
ATOM     15  C   UNL     1       1.441   2.810  19.905  0.00  0.00    +0.000 A 
ATOM     16  C   UNL     1       1.982   1.858  19.043  0.00  0.00    +0.000 A 
ATOM     17  C   UNL     1       2.466   2.254  17.798  0.00  0.00    +0.000 A 
ATOM     18  C   UNL     1       2.521   3.612  17.475  0.00  0.00    +0.000 A 
ENDBRANCH  12  13
ENDBRANCH   2  12
ENDBRANCH   1   2
BRANCH   1  19
ATOM     19  C   UNL     1       1.938   8.283  17.709  0.00  0.00    +0.000 C 
BRANCH  19  20
ATOM     20  C   UNL     1       1.681   9.184  18.906  0.00  0.00    +0.000 C 
BRANCH  20  21
ATOM     21  O   UNL     1       0.728  10.157  18.501  0.00  0.00    +0.000 OA
BRANCH  21  22
ATOM     22  C   UNL     1       1.071  11.459  18.953  0.00  0.00    +0.000 C 
BRANCH  22  23
ATOM     23  N   UNL     1      -0.058  11.981  19.688  0.00  0.00    +0.000 N 
ATOM     24  C   UNL     1      -0.893  12.998  19.306  0.00  0.00    +0.000 A 
ATOM     25  N   UNL     1      -1.823  13.236  20.209  0.00  0.00    +0.000 NA
ATOM     26  C   UNL     1      -1.561  12.330  21.209  0.00  0.00    +0.000 A 
ATOM     27  C   UNL     1      -2.169  12.067  22.423  0.00  0.00    +0.000 A 
ATOM     28  N   UNL     1      -1.690  11.104  23.234  0.00  0.00    +0.000 NA
ATOM     29  C   UNL     1      -0.608  10.416  22.823  0.00  0.00    +0.000 A 
ATOM     30  N   UNL     1      -0.144   9.430  23.675  0.00  0.00    +0.000 N 
ATOM     31  N   UNL     1       0.054  10.560  21.658  0.00  0.00    +0.000 NA
ATOM     32  C   UNL     1      -0.469  11.540  20.910  0.00  0.00    +0.000 A 
ATOM     33  H   UNL     1      -0.895   9.152  24.291  0.00  0.00    +0.000 HD
ATOM     34  H   UNL     1       0.316   8.696  23.139  0.00  0.00    +0.000 HD
BRANCH  27  35
ATOM     35  O   UNL     1      -3.266  12.772  22.855  0.00  0.00    +0.000 OA
ATOM     36  H   UNL     1      -3.976  12.104  22.897  0.00  0.00    +0.000 HD
ENDBRANCH  27  35
ENDBRANCH  22  23
ENDBRANCH  21  22
ENDBRANCH  20  21
ENDBRANCH  19  20
ENDBRANCH   1  19
TORSDOF 13
ENDMDL
MODEL 9
REMARK VINA RESULT:      -7.5      5.419      8.392
REMARK  Name = 
REMARK  15 active torsions:
REMARK  status: ('A' for Active; 'I' for Inactive)
REMARK    1  A    between atoms: C_1  and  O_2
REMARK    2  A    between atoms: O_2  and  C_3
REMARK    3  A    between atoms: C_3  and  C_5
REMARK    4  A    between atoms: C_5  and  C_6
REMARK    5  A    between atoms: C_5  and  N_7
REMARK    6  A    between atoms: N_7  and  P_8
REMARK    7  A    between atoms: P_8  and  O_10
REMARK    8  A    between atoms: P_8  and  O_26
REMARK    9  A    between atoms: O_10  and  C_11
REMARK   10  A    between atoms: C_11  and  C_12
REMARK   11  A    between atoms: C_12  and  O_13
REMARK   12  A    between atoms: O_13  and  C_14
REMARK   13  A    between atoms: C_14  and  N_15
REMARK   14  A    between atoms: C_19  and  O_20
REMARK   15  A    between atoms: O_26  and  C_27
REMARK                            x       y       z     vdW  Elec       q    Type
REMARK                         _______ _______ _______ _____ _____    ______ ____
ROOT
ATOM      1  O   UNL     1       7.771   6.707  17.814  0.00  0.00    +0.000 OA
ENDROOT
BRANCH   1   2
ATOM      2  P   UNL     1       6.588   5.754  17.114  0.00  0.00    +0.000 P 
ATOM      3  O   UNL     1       5.504   6.657  16.518  0.00  0.00    +0.000 OA
BRANCH   2   4
ATOM      4  N   UNL     1       5.721   5.780  18.669  0.00  0.00    +0.000 NA
ATOM      5  H   UNL     1       6.240   5.321  19.398  0.00  0.00    +0.000 HD
BRANCH   4   6
ATOM      6  C   UNL     1       4.356   5.225  18.558  0.00  0.00    +0.000 C 
ATOM      7  C   UNL     1       3.377   6.072  19.361  0.00  0.00    +0.000 C 
BRANCH   6   8
ATOM      8  C   UNL     1       4.339   3.769  19.044  0.00  0.00    +0.000 C 
ATOM      9  O   UNL     1       5.242   3.255  19.699  0.00  0.00    +0.000 OA
BRANCH   8  11
ATOM     10  C   UNL     1       3.407   1.737  18.301  0.00  0.00    +0.000 C 
ATOM     11  O   UNL     1       3.229   3.124  18.595  0.00  0.00    +0.000 OA
ENDBRANCH   8  11
ENDBRANCH   6   8
ENDBRANCH   4   6
ENDBRANCH   2   4
BRANCH   2  12
ATOM     12  O   UNL     1       7.431   5.728  15.604  0.00  0.00    +0.000 OA
BRANCH  12  13
ATOM     13  C   UNL     1       6.980   5.131  14.459  0.00  0.00    +0.000 A 
ATOM     14  C   UNL     1       5.843   4.338  14.389  0.00  0.00    +0.000 A 
ATOM     15  C   UNL     1       5.636   3.522  13.270  0.00  0.00    +0.000 A 
ATOM     16  C   UNL     1       6.476   3.626  12.162  0.00  0.00    +0.000 A 
ATOM     17  C   UNL     1       7.503   4.567  12.164  0.00  0.00    +0.000 A 
ATOM     18  C   UNL     1       7.763   5.309  13.318  0.00  0.00    +0.000 A 
ENDBRANCH  12  13
ENDBRANCH   2  12
ENDBRANCH   1   2
BRANCH   1  19
ATOM     19  C   UNL     1       7.811   8.106  17.509  0.00  0.00    +0.000 C 
BRANCH  19  20
ATOM     20  C   UNL     1       8.439   8.923  18.626  0.00  0.00    +0.000 C 
BRANCH  20  21
ATOM     21  O   UNL     1       8.876  10.149  18.054  0.00  0.00    +0.000 OA
BRANCH  21  22
ATOM     22  C   UNL     1       9.762  10.852  18.912  0.00  0.00    +0.000 C 
BRANCH  22  23
ATOM     23  N   UNL     1      10.205  12.036  18.215  0.00  0.00    +0.000 N 
ATOM     24  C   UNL     1      11.349  12.178  17.474  0.00  0.00    +0.000 A 
ATOM     25  N   UNL     1      11.462  13.392  16.972  0.00  0.00    +0.000 NA
ATOM     26  C   UNL     1      10.339  14.047  17.419  0.00  0.00    +0.000 A 
ATOM     27  C   UNL     1       9.869  15.335  17.243  0.00  0.00    +0.000 A 
ATOM     28  N   UNL     1       8.713  15.727  17.814  0.00  0.00    +0.000 NA
ATOM     29  C   UNL     1       8.041  14.825  18.556  0.00  0.00    +0.000 A 
ATOM     30  N   UNL     1       6.856  15.256  19.124  0.00  0.00    +0.000 N 
ATOM     31  N   UNL     1       8.381  13.541  18.780  0.00  0.00    +0.000 NA
ATOM     32  C   UNL     1       9.543  13.226  18.193  0.00  0.00    +0.000 A 
ATOM     33  H   UNL     1       6.516  16.052  18.603  0.00  0.00    +0.000 HD
ATOM     34  H   UNL     1       6.221  14.468  19.241  0.00  0.00    +0.000 HD
BRANCH  27  35
ATOM     35  O   UNL     1      10.553  16.264  16.496  0.00  0.00    +0.000 OA
ATOM     36  H   UNL     1      10.172  16.177  15.602  0.00  0.00    +0.000 HD
ENDBRANCH  27  35
ENDBRANCH  22  23
ENDBRANCH  21  22
ENDBRANCH  20  21
ENDBRANCH  19  20
ENDBRANCH   1  19
TORSDOF 13
ENDMDL
