MODEL 1
REMARK VINA RESULT:      -7.4      0.000      0.000
REMARK  Name = 
REMARK  13 active torsions:
REMARK  status: ('A' for Active; 'I' for Inactive)
REMARK    1  A    between atoms: C_1  and  C_2
REMARK    2  A    between atoms: C_2  and  O_4
REMARK    3  A    between atoms: O_4  and  C_5
REMARK    4  A    between atoms: C_7  and  C_8
REMARK    5  A    between atoms: C_7  and  C_9
REMARK    6  A    between atoms: N_10  and  O_11
REMARK    7  A    between atoms: O_11  and  C_12
REMARK    8  A    between atoms: C_12  and  C_14
REMARK    9  A    between atoms: C_14  and  C_15
REMARK   10  A    between atoms: C_15  and  C_16
REMARK   11  A    between atoms: C_16  and  N_17
REMARK   12  A    between atoms: C_28  and  C_29
REMARK   13  A    between atoms: C_28  and  C_30
REMARK                            x       y       z     vdW  Elec       q    Type
REMARK                         _______ _______ _______ _____ _____    ______ ____
ROOT
ATOM      1  C   UNL     1       2.035   5.980  20.292  0.00  0.00    +0.000 C 
ATOM      2  O   UNL     1       1.072   5.298  20.620  0.00  0.00    +0.000 OA
ENDROOT
BRANCH   1   3
ATOM      3  O   UNL     1       3.292   5.536  19.949  0.00  0.00    +0.000 OA
BRANCH   3   9
ATOM      4  C   UNL     1       5.096   4.081  16.407  0.00  0.00    +0.000 C 
ATOM      5  C   UNL     1       3.947   3.283  17.008  0.00  0.00    +0.000 C 
ATOM      6  C   UNL     1       3.618   3.712  18.453  0.00  0.00    +0.000 C 
ATOM      7  C   UNL     1       2.290   3.002  18.818  0.00  0.00    +0.000 C 
ATOM      8  C   UNL     1       4.691   3.165  19.423  0.00  0.00    +0.000 C 
ATOM      9  N   UNL     1       3.411   5.182  18.527  0.00  0.00    +0.000 NA
ATOM     10  C   UNL     1       4.402   6.069  17.865  0.00  0.00    +0.000 C 
ATOM     11  C   UNL     1       3.776   7.476  17.706  0.00  0.00    +0.000 C 
ATOM     12  C   UNL     1       5.723   6.265  18.640  0.00  0.00    +0.000 C 
ATOM     13  C   UNL     1       4.712   5.559  16.431  0.00  0.00    +0.000 C 
BRANCH   4  14
ATOM     14  O   UNL     1       5.305   3.674  15.037  0.00  0.00    +0.000 OA
BRANCH  14  16
ATOM     15  C   UNL     1       6.453   3.877  12.993  0.00  0.00    +0.000 C 
ATOM     16  C   UNL     1       6.466   4.113  14.473  0.00  0.00    +0.000 C 
ATOM     17  O   UNL     1       7.406   4.613  15.076  0.00  0.00    +0.000 OA
ENDBRANCH  14  16
ENDBRANCH   4  14
ENDBRANCH   3   9
ENDBRANCH   1   3
BRANCH   1  18
ATOM     18  C   UNL     1       2.002   7.494  20.227  0.00  0.00    +0.000 C 
BRANCH  18  19
ATOM     19  C   UNL     1       1.020   8.112  21.213  0.00  0.00    +0.000 C 
BRANCH  19  20
ATOM     20  C   UNL     1      -0.020   8.993  20.504  0.00  0.00    +0.000 C 
BRANCH  20  21
ATOM     21  N   UNL     1       0.543  10.279  20.139  0.00  0.00    +0.000 N 
ATOM     22  C   UNL     1       0.709  11.322  21.009  0.00  0.00    +0.000 C 
ATOM     23  O   UNL     1       0.370  11.412  22.174  0.00  0.00    +0.000 OA
ATOM     24  C   UNL     1       1.435  12.365  20.279  0.00  0.00    +0.000 A 
ATOM     25  C   UNL     1       1.889  13.601  20.691  0.00  0.00    +0.000 A 
ATOM     26  C   UNL     1       2.618  14.357  19.765  0.00  0.00    +0.000 A 
ATOM     27  C   UNL     1       2.863  13.866  18.465  0.00  0.00    +0.000 A 
ATOM     28  C   UNL     1       2.386  12.616  18.069  0.00  0.00    +0.000 A 
ATOM     29  C   UNL     1       1.671  11.885  19.000  0.00  0.00    +0.000 A 
ATOM     30  C   UNL     1       1.093  10.548  18.914  0.00  0.00    +0.000 C 
ATOM     31  O   UNL     1       1.142   9.844  17.925  0.00  0.00    +0.000 OA
ENDBRANCH  20  21
ENDBRANCH  19  20
ENDBRANCH  18  19
ENDBRANCH   1  18
TORSDOF 8
ENDMDL
MODEL 2
REMARK VINA RESULT:      -7.4      1.961      2.524
REMARK  Name = 
REMARK  13 active torsions:
REMARK  status: ('A' for Active; 'I' for Inactive)
REMARK    1  A    between atoms: C_1  and  C_2
REMARK    2  A    between atoms: C_2  and  O_4
REMARK    3  A    between atoms: O_4  and  C_5
REMARK    4  A    between atoms: C_7  and  C_8
REMARK    5  A    between atoms: C_7  and  C_9
REMARK    6  A    between atoms: N_10  and  O_11
REMARK    7  A    between atoms: O_11  and  C_12
REMARK    8  A    between atoms: C_12  and  C_14
REMARK    9  A    between atoms: C_14  and  C_15
REMARK   10  A    between atoms: C_15  and  C_16
REMARK   11  A    between atoms: C_16  and  N_17
REMARK   12  A    between atoms: C_28  and  C_29
REMARK   13  A    between atoms: C_28  and  C_30
REMARK                            x       y       z     vdW  Elec       q    Type
REMARK                         _______ _______ _______ _____ _____    ______ ____
ROOT
ATOM      1  C   UNL     1       1.773   5.551  20.541  0.00  0.00    +0.000 C 
ATOM      2  O   UNL     1       0.680   5.010  20.424  0.00  0.00    +0.000 OA
ENDROOT
BRANCH   1   3
ATOM      3  O   UNL     1       3.001   5.028  20.206  0.00  0.00    +0.000 OA
BRANCH   3   9
ATOM      4  C   UNL     1       4.935   3.991  16.587  0.00  0.00    +0.000 C 
ATOM      5  C   UNL     1       3.815   3.089  17.086  0.00  0.00    +0.000 C 
ATOM      6  C   UNL     1       3.441   3.367  18.556  0.00  0.00    +0.000 C 
ATOM      7  C   UNL     1       2.141   2.567  18.826  0.00  0.00    +0.000 C 
ATOM      8  C   UNL     1       4.521   2.782  19.496  0.00  0.00    +0.000 C 
ATOM      9  N   UNL     1       3.163   4.812  18.761  0.00  0.00    +0.000 NA
ATOM     10  C   UNL     1       4.123   5.802  18.205  0.00  0.00    +0.000 C 
ATOM     11  C   UNL     1       3.434   7.187  18.162  0.00  0.00    +0.000 C 
ATOM     12  C   UNL     1       5.419   5.985  19.024  0.00  0.00    +0.000 C 
ATOM     13  C   UNL     1       4.482   5.441  16.737  0.00  0.00    +0.000 C 
BRANCH   4  14
ATOM     14  O   UNL     1       5.188   3.723  15.190  0.00  0.00    +0.000 OA
BRANCH  14  16
ATOM     15  C   UNL     1       6.515   3.913  13.256  0.00  0.00    +0.000 C 
ATOM     16  C   UNL     1       6.415   4.111  14.738  0.00  0.00    +0.000 C 
ATOM     17  O   UNL     1       7.325   4.545  15.432  0.00  0.00    +0.000 OA
ENDBRANCH  14  16
ENDBRANCH   4  14
ENDBRANCH   3   9
ENDBRANCH   1   3
BRANCH   1  18
ATOM     18  C   UNL     1       1.959   6.940  21.119  0.00  0.00    +0.000 C 
BRANCH  18  19
ATOM     19  C   UNL     1       0.715   7.809  20.996  0.00  0.00    +0.000 C 
BRANCH  19  20
ATOM     20  C   UNL     1       1.072   9.277  20.719  0.00  0.00    +0.000 C 
BRANCH  20  21
ATOM     21  N   UNL     1      -0.016  10.160  21.093  0.00  0.00    +0.000 N 
ATOM     22  C   UNL     1      -0.357  10.458  22.385  0.00  0.00    +0.000 C 
ATOM     23  O   UNL     1       0.098  10.012  23.422  0.00  0.00    +0.000 OA
ATOM     24  C   UNL     1      -1.398  11.486  22.318  0.00  0.00    +0.000 A 
ATOM     25  C   UNL     1      -2.063  12.160  23.321  0.00  0.00    +0.000 A 
ATOM     26  C   UNL     1      -2.976  13.150  22.934  0.00  0.00    +0.000 A 
ATOM     27  C   UNL     1      -3.202  13.428  21.569  0.00  0.00    +0.000 A 
ATOM     28  C   UNL     1      -2.524  12.726  20.571  0.00  0.00    +0.000 A 
ATOM     29  C   UNL     1      -1.625  11.756  20.976  0.00  0.00    +0.000 A 
ATOM     30  C   UNL     1      -0.739  10.900  20.196  0.00  0.00    +0.000 C 
ATOM     31  O   UNL     1      -0.680  10.902  18.982  0.00  0.00    +0.000 OA
ENDBRANCH  20  21
ENDBRANCH  19  20
ENDBRANCH  18  19
ENDBRANCH   1  18
TORSDOF 8
ENDMDL
MODEL 3
REMARK VINA RESULT:      -7.4      2.028      3.068
REMARK  Name = 
REMARK  13 active torsions:
REMARK  status: ('A' for Active; 'I' for Inactive)
REMARK    1  A    between atoms: C_1  and  C_2
REMARK    2  A    between atoms: C_2  and  O_4
REMARK    3  A    between atoms: O_4  and  C_5
REMARK    4  A    between atoms: C_7  and  C_8
REMARK    5  A    between atoms: C_7  and  C_9
REMARK    6  A    between atoms: N_10  and  O_11
REMARK    7  A    between atoms: O_11  and  C_12
REMARK    8  A    between atoms: C_12  and  C_14
REMARK    9  A    between atoms: C_14  and  C_15
REMARK   10  A    between atoms: C_15  and  C_16
REMARK   11  A    between atoms: C_16  and  N_17
REMARK   12  A    between atoms: C_28  and  C_29
REMARK   13  A    between atoms: C_28  and  C_30
REMARK                            x       y       z     vdW  Elec       q    Type
REMARK                         _______ _______ _______ _____ _____    ______ ____
ROOT
ATOM      1  C   UNL     1       2.037   6.139  20.228  0.00  0.00    +0.000 C 
ATOM      2  O   UNL     1       0.993   5.562  20.505  0.00  0.00    +0.000 OA
ENDROOT
BRANCH   1   3
ATOM      3  O   UNL     1       3.258   5.566  19.953  0.00  0.00    +0.000 OA
BRANCH   3   9
ATOM      4  C   UNL     1       5.115   3.965  16.503  0.00  0.00    +0.000 C 
ATOM      5  C   UNL     1       3.936   3.208  17.100  0.00  0.00    +0.000 C 
ATOM      6  C   UNL     1       3.582   3.689  18.522  0.00  0.00    +0.000 C 
ATOM      7  C   UNL     1       2.231   3.018  18.877  0.00  0.00    +0.000 C 
ATOM      8  C   UNL     1       4.620   3.152  19.535  0.00  0.00    +0.000 C 
ATOM      9  N   UNL     1       3.404   5.165  18.546  0.00  0.00    +0.000 NA
ATOM     10  C   UNL     1       4.429   6.011  17.881  0.00  0.00    +0.000 C 
ATOM     11  C   UNL     1       3.836   7.424  17.664  0.00  0.00    +0.000 C 
ATOM     12  C   UNL     1       5.734   6.205  18.682  0.00  0.00    +0.000 C 
ATOM     13  C   UNL     1       4.762   5.450  16.472  0.00  0.00    +0.000 C 
BRANCH   4  14
ATOM     14  O   UNL     1       5.349   3.511  15.152  0.00  0.00    +0.000 OA
BRANCH  14  16
ATOM     15  C   UNL     1       6.356   3.851  13.053  0.00  0.00    +0.000 C 
ATOM     16  C   UNL     1       6.432   4.061  14.534  0.00  0.00    +0.000 C 
ATOM     17  O   UNL     1       7.358   4.632  15.096  0.00  0.00    +0.000 OA
ENDBRANCH  14  16
ENDBRANCH   4  14
ENDBRANCH   3   9
ENDBRANCH   1   3
BRANCH   1  18
ATOM     18  C   UNL     1       2.165   7.648  20.161  0.00  0.00    +0.000 C 
BRANCH  18  19
ATOM     19  C   UNL     1       0.935   8.375  20.687  0.00  0.00    +0.000 C 
BRANCH  19  20
ATOM     20  C   UNL     1       0.995   9.881  20.396  0.00  0.00    +0.000 C 
BRANCH  20  21
ATOM     21  N   UNL     1      -0.087  10.291  19.520  0.00  0.00    +0.000 N 
ATOM     22  C   UNL     1      -0.220   9.886  18.220  0.00  0.00    +0.000 C 
ATOM     23  O   UNL     1       0.531   9.207  17.546  0.00  0.00    +0.000 OA
ATOM     24  C   UNL     1      -1.507  10.404  17.750  0.00  0.00    +0.000 A 
ATOM     25  C   UNL     1      -2.146  10.259  16.536  0.00  0.00    +0.000 A 
ATOM     26  C   UNL     1      -3.420  10.828  16.409  0.00  0.00    +0.000 A 
ATOM     27  C   UNL     1      -4.009  11.526  17.484  0.00  0.00    +0.000 A 
ATOM     28  C   UNL     1      -3.339  11.667  18.701  0.00  0.00    +0.000 A 
ATOM     29  C   UNL     1      -2.085  11.094  18.805  0.00  0.00    +0.000 A 
ATOM     30  C   UNL     1      -1.167  11.022  19.936  0.00  0.00    +0.000 C 
ATOM     31  O   UNL     1      -1.383  11.516  21.026  0.00  0.00    +0.000 OA
ENDBRANCH  20  21
ENDBRANCH  19  20
ENDBRANCH  18  19
ENDBRANCH   1  18
TORSDOF 8
ENDMDL
MODEL 4
REMARK VINA RESULT:      -7.4      6.530     10.352
REMARK  Name = 
REMARK  13 active torsions:
REMARK  status: ('A' for Active; 'I' for Inactive)
REMARK    1  A    between atoms: C_1  and  C_2
REMARK    2  A    between atoms: C_2  and  O_4
REMARK    3  A    between atoms: O_4  and  C_5
REMARK    4  A    between atoms: C_7  and  C_8
REMARK    5  A    between atoms: C_7  and  C_9
REMARK    6  A    between atoms: N_10  and  O_11
REMARK    7  A    between atoms: O_11  and  C_12
REMARK    8  A    between atoms: C_12  and  C_14
REMARK    9  A    between atoms: C_14  and  C_15
REMARK   10  A    between atoms: C_15  and  C_16
REMARK   11  A    between atoms: C_16  and  N_17
REMARK   12  A    between atoms: C_28  and  C_29
REMARK   13  A    between atoms: C_28  and  C_30
REMARK                            x       y       z     vdW  Elec       q    Type
REMARK                         _______ _______ _______ _____ _____    ______ ____
ROOT
ATOM      1  C   UNL     1       9.159  10.193  19.178  0.00  0.00    +0.000 C 
ATOM      2  O   UNL     1       8.858  10.064  20.358  0.00  0.00    +0.000 OA
ENDROOT
BRANCH   1   3
ATOM      3  O   UNL     1      10.074  11.072  18.643  0.00  0.00    +0.000 OA
BRANCH   3   9
ATOM      4  C   UNL     1      10.701  15.252  18.857  0.00  0.00    +0.000 C 
ATOM      5  C   UNL     1       9.516  14.745  18.046  0.00  0.00    +0.000 C 
ATOM      6  C   UNL     1       9.600  13.232  17.757  0.00  0.00    +0.000 C 
ATOM      7  C   UNL     1       8.225  12.832  17.164  0.00  0.00    +0.000 C 
ATOM      8  C   UNL     1      10.650  12.961  16.655  0.00  0.00    +0.000 C 
ATOM      9  N   UNL     1       9.818  12.471  19.015  0.00  0.00    +0.000 NA
ATOM     10  C   UNL     1      10.866  12.945  19.956  0.00  0.00    +0.000 C 
ATOM     11  C   UNL     1      10.626  12.286  21.336  0.00  0.00    +0.000 C 
ATOM     12  C   UNL     1      12.314  12.594  19.551  0.00  0.00    +0.000 C 
ATOM     13  C   UNL     1      10.744  14.479  20.172  0.00  0.00    +0.000 C 
BRANCH   4  14
ATOM     14  O   UNL     1      10.526  16.657  19.145  0.00  0.00    +0.000 OA
BRANCH  14  16
ATOM     15  C   UNL     1       9.925  18.477  17.781  0.00  0.00    +0.000 C 
ATOM     16  C   UNL     1      10.992  17.508  18.188  0.00  0.00    +0.000 C 
ATOM     17  O   UNL     1      12.116  17.486  17.703  0.00  0.00    +0.000 OA
ENDBRANCH  14  16
ENDBRANCH   4  14
ENDBRANCH   3   9
ENDBRANCH   1   3
BRANCH   1  18
ATOM     18  C   UNL     1       8.529   9.383  18.062  0.00  0.00    +0.000 C 
BRANCH  18  19
ATOM     19  C   UNL     1       8.177   7.963  18.482  0.00  0.00    +0.000 C 
BRANCH  19  20
ATOM     20  C   UNL     1       7.568   7.161  17.322  0.00  0.00    +0.000 C 
BRANCH  20  21
ATOM     21  N   UNL     1       6.440   6.365  17.770  0.00  0.00    +0.000 N 
ATOM     22  C   UNL     1       5.161   6.513  17.307  0.00  0.00    +0.000 C 
ATOM     23  O   UNL     1       4.715   7.340  16.533  0.00  0.00    +0.000 OA
ATOM     24  C   UNL     1       4.372   5.431  17.901  0.00  0.00    +0.000 A 
ATOM     25  C   UNL     1       3.044   5.095  17.743  0.00  0.00    +0.000 A 
ATOM     26  C   UNL     1       2.589   3.948  18.406  0.00  0.00    +0.000 A 
ATOM     27  C   UNL     1       3.463   3.183  19.208  0.00  0.00    +0.000 A 
ATOM     28  C   UNL     1       4.802   3.549  19.360  0.00  0.00    +0.000 A 
ATOM     29  C   UNL     1       5.230   4.683  18.693  0.00  0.00    +0.000 A 
ATOM     30  C   UNL     1       6.554   5.289  18.609  0.00  0.00    +0.000 C 
ATOM     31  O   UNL     1       7.539   4.862  19.178  0.00  0.00    +0.000 OA
ENDBRANCH  20  21
ENDBRANCH  19  20
ENDBRANCH  18  19
ENDBRANCH   1  18
TORSDOF 8
ENDMDL
MODEL 5
REMARK VINA RESULT:      -7.3      6.742     10.660
REMARK  Name = 
REMARK  13 active torsions:
REMARK  status: ('A' for Active; 'I' for Inactive)
REMARK    1  A    between atoms: C_1  and  C_2
REMARK    2  A    between atoms: C_2  and  O_4
REMARK    3  A    between atoms: O_4  and  C_5
REMARK    4  A    between atoms: C_7  and  C_8
REMARK    5  A    between atoms: C_7  and  C_9
REMARK    6  A    between atoms: N_10  and  O_11
REMARK    7  A    between atoms: O_11  and  C_12
REMARK    8  A    between atoms: C_12  and  C_14
REMARK    9  A    between atoms: C_14  and  C_15
REMARK   10  A    between atoms: C_15  and  C_16
REMARK   11  A    between atoms: C_16  and  N_17
REMARK   12  A    between atoms: C_28  and  C_29
REMARK   13  A    between atoms: C_28  and  C_30
REMARK                            x       y       z     vdW  Elec       q    Type
REMARK                         _______ _______ _______ _____ _____    ______ ____
ROOT
ATOM      1  C   UNL     1       9.107  10.461  18.826  0.00  0.00    +0.000 C 
ATOM      2  O   UNL     1       9.691  10.046  19.820  0.00  0.00    +0.000 OA
ENDROOT
BRANCH   1   3
ATOM      3  O   UNL     1       9.160  11.732  18.299  0.00  0.00    +0.000 OA
BRANCH   3   9
ATOM      4  C   UNL     1      11.133  15.331  19.330  0.00  0.00    +0.000 C 
ATOM      5  C   UNL     1      10.078  14.791  20.287  0.00  0.00    +0.000 C 
ATOM      6  C   UNL     1       9.201  13.696  19.645  0.00  0.00    +0.000 C 
ATOM      7  C   UNL     1       8.370  13.082  20.800  0.00  0.00    +0.000 C 
ATOM      8  C   UNL     1       8.189  14.335  18.666  0.00  0.00    +0.000 C 
ATOM      9  N   UNL     1      10.049  12.631  19.048  0.00  0.00    +0.000 NA
ATOM     10  C   UNL     1      11.195  13.037  18.193  0.00  0.00    +0.000 C 
ATOM     11  C   UNL     1      12.152  11.829  18.045  0.00  0.00    +0.000 C 
ATOM     12  C   UNL     1      10.819  13.474  16.761  0.00  0.00    +0.000 C 
ATOM     13  C   UNL     1      12.011  14.165  18.883  0.00  0.00    +0.000 C 
BRANCH   4  14
ATOM     14  O   UNL     1      11.957  16.301  20.014  0.00  0.00    +0.000 OA
BRANCH  14  16
ATOM     15  C   UNL     1      11.716  18.614  20.371  0.00  0.00    +0.000 C 
ATOM     16  C   UNL     1      12.046  17.518  19.405  0.00  0.00    +0.000 C 
ATOM     17  O   UNL     1      12.333  17.706  18.230  0.00  0.00    +0.000 OA
ENDBRANCH  14  16
ENDBRANCH   4  14
ENDBRANCH   3   9
ENDBRANCH   1   3
BRANCH   1  18
ATOM     18  C   UNL     1       8.176   9.607  17.988  0.00  0.00    +0.000 C 
BRANCH  18  19
ATOM     19  C   UNL     1       8.168   8.144  18.409  0.00  0.00    +0.000 C 
BRANCH  19  20
ATOM     20  C   UNL     1       7.736   7.224  17.258  0.00  0.00    +0.000 C 
BRANCH  20  21
ATOM     21  N   UNL     1       6.603   6.402  17.640  0.00  0.00    +0.000 N 
ATOM     22  C   UNL     1       5.451   6.289  16.910  0.00  0.00    +0.000 C 
ATOM     23  O   UNL     1       5.126   6.876  15.895  0.00  0.00    +0.000 OA
ATOM     24  C   UNL     1       4.638   5.262  17.565  0.00  0.00    +0.000 A 
ATOM     25  C   UNL     1       3.409   4.736  17.225  0.00  0.00    +0.000 A 
ATOM     26  C   UNL     1       2.909   3.702  18.028  0.00  0.00    +0.000 A 
ATOM     27  C   UNL     1       3.640   3.235  19.141  0.00  0.00    +0.000 A 
ATOM     28  C   UNL     1       4.878   3.790  19.470  0.00  0.00    +0.000 A 
ATOM     29  C   UNL     1       5.353   4.807  18.662  0.00  0.00    +0.000 A 
ATOM     30  C   UNL     1       6.611   5.544  18.708  0.00  0.00    +0.000 C 
ATOM     31  O   UNL     1       7.476   5.371  19.545  0.00  0.00    +0.000 OA
ENDBRANCH  20  21
ENDBRANCH  19  20
ENDBRANCH  18  19
ENDBRANCH   1  18
TORSDOF 8
ENDMDL
MODEL 6
REMARK VINA RESULT:      -7.3      6.808     10.528
REMARK  Name = 
REMARK  13 active torsions:
REMARK  status: ('A' for Active; 'I' for Inactive)
REMARK    1  A    between atoms: C_1  and  C_2
REMARK    2  A    between atoms: C_2  and  O_4
REMARK    3  A    between atoms: O_4  and  C_5
REMARK    4  A    between atoms: C_7  and  C_8
REMARK    5  A    between atoms: C_7  and  C_9
REMARK    6  A    between atoms: N_10  and  O_11
REMARK    7  A    between atoms: O_11  and  C_12
REMARK    8  A    between atoms: C_12  and  C_14
REMARK    9  A    between atoms: C_14  and  C_15
REMARK   10  A    between atoms: C_15  and  C_16
REMARK   11  A    between atoms: C_16  and  N_17
REMARK   12  A    between atoms: C_28  and  C_29
REMARK   13  A    between atoms: C_28  and  C_30
REMARK                            x       y       z     vdW  Elec       q    Type
REMARK                         _______ _______ _______ _____ _____    ______ ____
ROOT
ATOM      1  C   UNL     1       9.183  10.543  19.608  0.00  0.00    +0.000 C 
ATOM      2  O   UNL     1       9.082  10.524  20.828  0.00  0.00    +0.000 OA
ENDROOT
BRANCH   1   3
ATOM      3  O   UNL     1       9.286  11.652  18.798  0.00  0.00    +0.000 OA
BRANCH   3   9
ATOM      4  C   UNL     1      11.299  15.366  19.047  0.00  0.00    +0.000 C 
ATOM      5  C   UNL     1      10.023  15.186  19.857  0.00  0.00    +0.000 C 
ATOM      6  C   UNL     1       9.211  13.950  19.418  0.00  0.00    +0.000 C 
ATOM      7  C   UNL     1       8.104  13.763  20.486  0.00  0.00    +0.000 C 
ATOM      8  C   UNL     1       8.488  14.241  18.082  0.00  0.00    +0.000 C 
ATOM      9  N   UNL     1      10.071  12.738  19.402  0.00  0.00    +0.000 NA
ATOM     10  C   UNL     1      11.403  12.825  18.748  0.00  0.00    +0.000 C 
ATOM     11  C   UNL     1      12.261  11.625  19.217  0.00  0.00    +0.000 C 
ATOM     12  C   UNL     1      11.378  12.768  17.206  0.00  0.00    +0.000 C 
ATOM     13  C   UNL     1      12.148  14.108  19.209  0.00  0.00    +0.000 C 
BRANCH   4  14
ATOM     14  O   UNL     1      12.039  16.499  19.553  0.00  0.00    +0.000 OA
BRANCH  14  16
ATOM     15  C   UNL     1      12.233  17.743  17.566  0.00  0.00    +0.000 C 
ATOM     16  C   UNL     1      11.733  17.696  18.977  0.00  0.00    +0.000 C 
ATOM     17  O   UNL     1      11.151  18.622  19.527  0.00  0.00    +0.000 OA
ENDBRANCH  14  16
ENDBRANCH   4  14
ENDBRANCH   3   9
ENDBRANCH   1   3
BRANCH   1  18
ATOM     18  C   UNL     1       9.193   9.293  18.752  0.00  0.00    +0.000 C 
BRANCH  18  19
ATOM     19  C   UNL     1       7.872   9.051  18.035  0.00  0.00    +0.000 C 
BRANCH  19  20
ATOM     20  C   UNL     1       7.943   7.828  17.108  0.00  0.00    +0.000 C 
BRANCH  20  21
ATOM     21  N   UNL     1       6.944   6.840  17.465  0.00  0.00    +0.000 N 
ATOM     22  C   UNL     1       7.006   6.050  18.581  0.00  0.00    +0.000 C 
ATOM     23  O   UNL     1       7.891   5.961  19.410  0.00  0.00    +0.000 OA
ATOM     24  C   UNL     1       5.744   5.308  18.640  0.00  0.00    +0.000 A 
ATOM     25  C   UNL     1       5.273   4.407  19.573  0.00  0.00    +0.000 A 
ATOM     26  C   UNL     1       3.979   3.906  19.384  0.00  0.00    +0.000 A 
ATOM     27  C   UNL     1       3.203   4.309  18.276  0.00  0.00    +0.000 A 
ATOM     28  C   UNL     1       3.705   5.216  17.341  0.00  0.00    +0.000 A 
ATOM     29  C   UNL     1       4.983   5.700  17.548  0.00  0.00    +0.000 A 
ATOM     30  C   UNL     1       5.760   6.679  16.796  0.00  0.00    +0.000 C 
ATOM     31  O   UNL     1       5.369   7.232  15.787  0.00  0.00    +0.000 OA
ENDBRANCH  20  21
ENDBRANCH  19  20
ENDBRANCH  18  19
ENDBRANCH   1  18
TORSDOF 8
ENDMDL
MODEL 7
REMARK VINA RESULT:      -7.2      2.004      8.568
REMARK  Name = 
REMARK  13 active torsions:
REMARK  status: ('A' for Active; 'I' for Inactive)
REMARK    1  A    between atoms: C_1  and  C_2
REMARK    2  A    between atoms: C_2  and  O_4
REMARK    3  A    between atoms: O_4  and  C_5
REMARK    4  A    between atoms: C_7  and  C_8
REMARK    5  A    between atoms: C_7  and  C_9
REMARK    6  A    between atoms: N_10  and  O_11
REMARK    7  A    between atoms: O_11  and  C_12
REMARK    8  A    between atoms: C_12  and  C_14
REMARK    9  A    between atoms: C_14  and  C_15
REMARK   10  A    between atoms: C_15  and  C_16
REMARK   11  A    between atoms: C_16  and  N_17
REMARK   12  A    between atoms: C_28  and  C_29
REMARK   13  A    between atoms: C_28  and  C_30
REMARK                            x       y       z     vdW  Elec       q    Type
REMARK                         _______ _______ _______ _____ _____    ______ ____
ROOT
ATOM      1  C   UNL     1       2.181   6.990  19.816  0.00  0.00    +0.000 C 
ATOM      2  O   UNL     1       3.296   7.220  19.364  0.00  0.00    +0.000 OA
ENDROOT
BRANCH   1   3
ATOM      3  O   UNL     1       1.075   7.809  19.763  0.00  0.00    +0.000 OA
BRANCH   3   9
ATOM      4  C   UNL     1       0.403  11.971  20.125  0.00  0.00    +0.000 C 
ATOM      5  C   UNL     1       0.920  11.219  21.344  0.00  0.00    +0.000 C 
ATOM      6  C   UNL     1       0.789   9.689  21.196  0.00  0.00    +0.000 C 
ATOM      7  C   UNL     1       1.579   9.075  22.379  0.00  0.00    +0.000 C 
ATOM      8  C   UNL     1      -0.686   9.265  21.385  0.00  0.00    +0.000 C 
ATOM      9  N   UNL     1       1.403   9.233  19.922  0.00  0.00    +0.000 NA
ATOM     10  C   UNL     1       1.074   9.971  18.675  0.00  0.00    +0.000 C 
ATOM     11  C   UNL     1       2.122   9.607  17.595  0.00  0.00    +0.000 C 
ATOM     12  C   UNL     1      -0.307   9.645  18.068  0.00  0.00    +0.000 C 
ATOM     13  C   UNL     1       1.192  11.503  18.906  0.00  0.00    +0.000 C 
BRANCH   4  14
ATOM     14  O   UNL     1       0.616  13.389  20.304  0.00  0.00    +0.000 OA
BRANCH  14  16
ATOM     15  C   UNL     1       0.207  15.295  18.988  0.00  0.00    +0.000 C 
ATOM     16  C   UNL     1      -0.374  14.190  19.816  0.00  0.00    +0.000 C 
ATOM     17  O   UNL     1      -1.571  14.054  20.030  0.00  0.00    +0.000 OA
ENDBRANCH  14  16
ENDBRANCH   4  14
ENDBRANCH   3   9
ENDBRANCH   1   3
BRANCH   1  18
ATOM     18  C   UNL     1       1.827   5.716  20.557  0.00  0.00    +0.000 C 
BRANCH  18  19
ATOM     19  C   UNL     1       1.777   4.493  19.651  0.00  0.00    +0.000 C 
BRANCH  19  20
ATOM     20  C   UNL     1       3.032   3.620  19.804  0.00  0.00    +0.000 C 
BRANCH  20  21
ATOM     21  N   UNL     1       3.940   3.807  18.689  0.00  0.00    +0.000 N 
ATOM     22  C   UNL     1       3.599   3.618  17.377  0.00  0.00    +0.000 C 
ATOM     23  O   UNL     1       2.556   3.204  16.907  0.00  0.00    +0.000 OA
ATOM     24  C   UNL     1       4.748   4.051  16.578  0.00  0.00    +0.000 A 
ATOM     25  C   UNL     1       4.923   4.106  15.211  0.00  0.00    +0.000 A 
ATOM     26  C   UNL     1       6.132   4.636  14.740  0.00  0.00    +0.000 A 
ATOM     27  C   UNL     1       7.123   5.082  15.639  0.00  0.00    +0.000 A 
ATOM     28  C   UNL     1       6.926   5.008  17.019  0.00  0.00    +0.000 A 
ATOM     29  C   UNL     1       5.725   4.485  17.462  0.00  0.00    +0.000 A 
ATOM     30  C   UNL     1       5.203   4.322  18.814  0.00  0.00    +0.000 C 
ATOM     31  O   UNL     1       5.809   4.626  19.823  0.00  0.00    +0.000 OA
ENDBRANCH  20  21
ENDBRANCH  19  20
ENDBRANCH  18  19
ENDBRANCH   1  18
TORSDOF 8
ENDMDL
MODEL 8
REMARK VINA RESULT:      -7.2      6.373     10.472
REMARK  Name = 
REMARK  13 active torsions:
REMARK  status: ('A' for Active; 'I' for Inactive)
REMARK    1  A    between atoms: C_1  and  C_2
REMARK    2  A    between atoms: C_2  and  O_4
REMARK    3  A    between atoms: O_4  and  C_5
REMARK    4  A    between atoms: C_7  and  C_8
REMARK    5  A    between atoms: C_7  and  C_9
REMARK    6  A    between atoms: N_10  and  O_11
REMARK    7  A    between atoms: O_11  and  C_12
REMARK    8  A    between atoms: C_12  and  C_14
REMARK    9  A    between atoms: C_14  and  C_15
REMARK   10  A    between atoms: C_15  and  C_16
REMARK   11  A    between atoms: C_16  and  N_17
REMARK   12  A    between atoms: C_28  and  C_29
REMARK   13  A    between atoms: C_28  and  C_30
REMARK                            x       y       z     vdW  Elec       q    Type
REMARK                         _______ _______ _______ _____ _____    ______ ____
ROOT
ATOM      1  C   UNL     1       9.105  10.194  18.898  0.00  0.00    +0.000 C 
ATOM      2  O   UNL     1       8.847   9.803  20.029  0.00  0.00    +0.000 OA
ENDROOT
BRANCH   1   3
ATOM      3  O   UNL     1       9.971  11.205  18.543  0.00  0.00    +0.000 OA
BRANCH   3   9
ATOM      4  C   UNL     1      10.183  15.370  19.263  0.00  0.00    +0.000 C 
ATOM      5  C   UNL     1       9.092  14.857  18.332  0.00  0.00    +0.000 C 
ATOM      6  C   UNL     1       9.335  13.402  17.880  0.00  0.00    +0.000 C 
ATOM      7  C   UNL     1       8.034  12.953  17.167  0.00  0.00    +0.000 C 
ATOM      8  C   UNL     1      10.457  13.358  16.818  0.00  0.00    +0.000 C 
ATOM      9  N   UNL     1       9.564  12.521  19.055  0.00  0.00    +0.000 NA
ATOM     10  C   UNL     1      10.516  12.974  20.103  0.00  0.00    +0.000 C 
ATOM     11  C   UNL     1      10.276  12.138  21.383  0.00  0.00    +0.000 C 
ATOM     12  C   UNL     1      12.009  12.804  19.746  0.00  0.00    +0.000 C 
ATOM     13  C   UNL     1      10.238  14.454  20.483  0.00  0.00    +0.000 C 
BRANCH   4  14
ATOM     14  O   UNL     1       9.860  16.709  19.697  0.00  0.00    +0.000 OA
BRANCH  14  16
ATOM     15  C   UNL     1      10.904  17.962  18.002  0.00  0.00    +0.000 C 
ATOM     16  C   UNL     1      10.825  17.643  19.463  0.00  0.00    +0.000 C 
ATOM     17  O   UNL     1      11.549  18.146  20.312  0.00  0.00    +0.000 OA
ENDBRANCH  14  16
ENDBRANCH   4  14
ENDBRANCH   3   9
ENDBRANCH   1   3
BRANCH   1  18
ATOM     18  C   UNL     1       8.469   9.617  17.649  0.00  0.00    +0.000 C 
BRANCH  18  19
ATOM     19  C   UNL     1       7.446   8.530  17.949  0.00  0.00    +0.000 C 
BRANCH  19  20
ATOM     20  C   UNL     1       8.018   7.126  17.699  0.00  0.00    +0.000 C 
BRANCH  20  21
ATOM     21  N   UNL     1       6.981   6.115  17.776  0.00  0.00    +0.000 N 
ATOM     22  C   UNL     1       6.658   5.428  18.915  0.00  0.00    +0.000 C 
ATOM     23  O   UNL     1       7.190   5.461  20.009  0.00  0.00    +0.000 OA
ATOM     24  C   UNL     1       5.477   4.622  18.597  0.00  0.00    +0.000 A 
ATOM     25  C   UNL     1       4.725   3.778  19.387  0.00  0.00    +0.000 A 
ATOM     26  C   UNL     1       3.596   3.188  18.803  0.00  0.00    +0.000 A 
ATOM     27  C   UNL     1       3.260   3.450  17.458  0.00  0.00    +0.000 A 
ATOM     28  C   UNL     1       4.041   4.301  16.676  0.00  0.00    +0.000 A 
ATOM     29  C   UNL     1       5.149   4.875  17.273  0.00  0.00    +0.000 A 
ATOM     30  C   UNL     1       6.120   5.830  16.751  0.00  0.00    +0.000 C 
ATOM     31  O   UNL     1       6.104   6.272  15.619  0.00  0.00    +0.000 OA
ENDBRANCH  20  21
ENDBRANCH  19  20
ENDBRANCH  18  19
ENDBRANCH   1  18
TORSDOF 8
ENDMDL
MODEL 9
REMARK VINA RESULT:      -7.2      2.023      8.589
REMARK  Name = 
REMARK  13 active torsions:
REMARK  status: ('A' for Active; 'I' for Inactive)
REMARK    1  A    between atoms: C_1  and  C_2
REMARK    2  A    between atoms: C_2  and  O_4
REMARK    3  A    between atoms: O_4  and  C_5
REMARK    4  A    between atoms: C_7  and  C_8
REMARK    5  A    between atoms: C_7  and  C_9
REMARK    6  A    between atoms: N_10  and  O_11
REMARK    7  A    between atoms: O_11  and  C_12
REMARK    8  A    between atoms: C_12  and  C_14
REMARK    9  A    between atoms: C_14  and  C_15
REMARK   10  A    between atoms: C_15  and  C_16
REMARK   11  A    between atoms: C_16  and  N_17
REMARK   12  A    between atoms: C_28  and  C_29
REMARK   13  A    between atoms: C_28  and  C_30
REMARK                            x       y       z     vdW  Elec       q    Type
REMARK                         _______ _______ _______ _____ _____    ______ ____
ROOT
ATOM      1  C   UNL     1       2.184   6.979  19.808  0.00  0.00    +0.000 C 
ATOM      2  O   UNL     1       3.274   7.206  19.296  0.00  0.00    +0.000 OA
ENDROOT
BRANCH   1   3
ATOM      3  O   UNL     1       1.070   7.788  19.787  0.00  0.00    +0.000 OA
BRANCH   3   9
ATOM      4  C   UNL     1       0.361  11.939  20.207  0.00  0.00    +0.000 C 
ATOM      5  C   UNL     1       0.892  11.175  21.414  0.00  0.00    +0.000 C 
ATOM      6  C   UNL     1       0.774   9.646  21.246  0.00  0.00    +0.000 C 
ATOM      7  C   UNL     1       1.576   9.024  22.417  0.00  0.00    +0.000 C 
ATOM      8  C   UNL     1      -0.696   9.206  21.437  0.00  0.00    +0.000 C 
ATOM      9  N   UNL     1       1.385   9.212  19.963  0.00  0.00    +0.000 NA
ATOM     10  C   UNL     1       1.043   9.964  18.727  0.00  0.00    +0.000 C 
ATOM     11  C   UNL     1       2.089   9.623  17.638  0.00  0.00    +0.000 C 
ATOM     12  C   UNL     1      -0.339   9.633  18.124  0.00  0.00    +0.000 C 
ATOM     13  C   UNL     1       1.149  11.493  18.978  0.00  0.00    +0.000 C 
BRANCH   4  14
ATOM     14  O   UNL     1       0.563  13.356  20.404  0.00  0.00    +0.000 OA
BRANCH  14  16
ATOM     15  C   UNL     1      -1.700  13.835  20.837  0.00  0.00    +0.000 C 
ATOM     16  C   UNL     1      -0.280  13.942  21.302  0.00  0.00    +0.000 C 
ATOM     17  O   UNL     1       0.060  14.500  22.336  0.00  0.00    +0.000 OA
ENDBRANCH  14  16
ENDBRANCH   4  14
ENDBRANCH   3   9
ENDBRANCH   1   3
BRANCH   1  18
ATOM     18  C   UNL     1       1.879   5.723  20.600  0.00  0.00    +0.000 C 
BRANCH  18  19
ATOM     19  C   UNL     1       1.714   4.491  19.722  0.00  0.00    +0.000 C 
BRANCH  19  20
ATOM     20  C   UNL     1       2.974   3.611  19.734  0.00  0.00    +0.000 C 
BRANCH  20  21
ATOM     21  N   UNL     1       3.864   3.955  18.641  0.00  0.00    +0.000 N 
ATOM     22  C   UNL     1       5.148   4.397  18.803  0.00  0.00    +0.000 C 
ATOM     23  O   UNL     1       5.748   4.654  19.830  0.00  0.00    +0.000 OA
ATOM     24  C   UNL     1       5.734   4.486  17.464  0.00  0.00    +0.000 A 
ATOM     25  C   UNL     1       7.004   4.840  17.059  0.00  0.00    +0.000 A 
ATOM     26  C   UNL     1       7.285   4.766  15.688  0.00  0.00    +0.000 A 
ATOM     27  C   UNL     1       6.296   4.352  14.770  0.00  0.00    +0.000 A 
ATOM     28  C   UNL     1       5.015   4.006  15.203  0.00  0.00    +0.000 A 
ATOM     29  C   UNL     1       4.761   4.084  16.560  0.00  0.00    +0.000 A 
ATOM     30  C   UNL     1       3.562   3.749  17.321  0.00  0.00    +0.000 C 
ATOM     31  O   UNL     1       2.528   3.345  16.826  0.00  0.00    +0.000 OA
ENDBRANCH  20  21
ENDBRANCH  19  20
ENDBRANCH  18  19
ENDBRANCH   1  18
TORSDOF 8
ENDMDL
