MODEL 1
REMARK VINA RESULT:      -9.5      0.000      0.000
REMARK  Name = 
REMARK  8 active torsions:
REMARK  status: ('A' for Active; 'I' for Inactive)
REMARK    1  A    between atoms: C_1  and  O_2
REMARK    2  A    between atoms: O_2  and  C_3
REMARK    3  A    between atoms: C_6  and  C_7
REMARK    4  A    between atoms: C_9  and  C_10
REMARK    5  A    between atoms: C_16  and  O_17
REMARK    6  A    between atoms: O_17  and  C_18
REMARK    7  A    between atoms: C_24  and  C_25
REMARK    8  A    between atoms: C_27  and  N_28
REMARK                            x       y       z     vdW  Elec       q    Type
REMARK                         _______ _______ _______ _____ _____    ______ ____
ROOT
ATOM      1  C   UNL     1       3.857   5.328  18.791  0.00  0.00    +0.000 A 
ATOM      2  C   UNL     1       3.157   6.544  18.968  0.00  0.00    +0.000 A 
ATOM      3  C   UNL     1       2.200   6.720  19.964  0.00  0.00    +0.000 A 
ATOM      4  N   UNL     1       1.858   5.695  20.762  0.00  0.00    +0.000 NA
ATOM      5  C   UNL     1       2.491   4.499  20.581  0.00  0.00    +0.000 A 
ATOM      6  C   UNL     1       3.546   4.267  19.671  0.00  0.00    +0.000 A 
ENDROOT
BRANCH   3   7
ATOM      7  C   UNL     1       1.471   7.999  20.167  0.00  0.00    +0.000 A 
ATOM      8  C   UNL     1       0.868   8.284  21.340  0.00  0.00    +0.000 A 
ATOM      9  C   UNL     1       0.120   9.526  21.500  0.00  0.00    +0.000 A 
ATOM     10  C   UNL     1      -0.246  10.018  22.753  0.00  0.00    +0.000 A 
ATOM     11  C   UNL     1      -0.973  11.207  22.843  0.00  0.00    +0.000 A 
ATOM     12  C   UNL     1      -1.376  11.874  21.683  0.00  0.00    +0.000 A 
ATOM     13  C   UNL     1      -1.050  11.376  20.423  0.00  0.00    +0.000 A 
ATOM     14  C   UNL     1      -0.260  10.224  20.351  0.00  0.00    +0.000 A 
ATOM     15  O   UNL     1       0.243   9.814  19.109  0.00  0.00    +0.000 OA
ATOM     16  C   UNL     1       1.396   9.048  19.110  0.00  0.00    +0.000 A 
ATOM     17  O   UNL     1       2.242   9.193  18.236  0.00  0.00    +0.000 OA
BRANCH  13  18
ATOM     18  O   UNL     1      -1.486  12.130  19.369  0.00  0.00    +0.000 OA
ATOM     19  C   UNL     1      -2.690  11.696  18.744  0.00  0.00    +0.000 C 
ENDBRANCH  13  18
ENDBRANCH   3   7
BRANCH   1  23
ATOM     20  C   UNL     1       6.812   5.219  15.611  0.00  0.00    +0.000 A 
ATOM     21  C   UNL     1       7.047   5.941  16.774  0.00  0.00    +0.000 A 
ATOM     22  C   UNL     1       6.106   5.942  17.811  0.00  0.00    +0.000 A 
ATOM     23  C   UNL     1       4.872   5.271  17.694  0.00  0.00    +0.000 A 
ATOM     24  C   UNL     1       4.638   4.600  16.481  0.00  0.00    +0.000 A 
ATOM     25  C   UNL     1       5.602   4.549  15.464  0.00  0.00    +0.000 A 
BRANCH  20  27
ATOM     26  C   UNL     1       7.403   4.954  13.344  0.00  0.00    +0.000 C 
ATOM     27  O   UNL     1       7.802   5.279  14.671  0.00  0.00    +0.000 OA
ENDBRANCH  20  27
ENDBRANCH   1  23
BRANCH   6  28
ATOM     28  N   UNL     1       4.105   2.979  19.501  0.00  0.00    +0.000 N 
ATOM     29  H   UNL     1       4.821   2.889  18.783  0.00  0.00    +0.000 HD
ATOM     30  H   UNL     1       3.403   2.245  19.414  0.00  0.00    +0.000 HD
ENDBRANCH   6  28
BRANCH   5  31
ATOM     31  C   UNL     1       2.015   3.454  21.452  0.00  0.00    +0.000 C 
ATOM     32  N   UNL     1       1.620   2.584  22.117  0.00  0.00    +0.000 NA
ENDBRANCH   5  31
TORSDOF 6
ENDMDL
MODEL 2
REMARK VINA RESULT:      -9.1      0.491      1.001
REMARK  Name = 
REMARK  8 active torsions:
REMARK  status: ('A' for Active; 'I' for Inactive)
REMARK    1  A    between atoms: C_1  and  O_2
REMARK    2  A    between atoms: O_2  and  C_3
REMARK    3  A    between atoms: C_6  and  C_7
REMARK    4  A    between atoms: C_9  and  C_10
REMARK    5  A    between atoms: C_16  and  O_17
REMARK    6  A    between atoms: O_17  and  C_18
REMARK    7  A    between atoms: C_24  and  C_25
REMARK    8  A    between atoms: C_27  and  N_28
REMARK                            x       y       z     vdW  Elec       q    Type
REMARK                         _______ _______ _______ _____ _____    ______ ____
ROOT
ATOM      1  C   UNL     1       3.938   5.150  18.475  0.00  0.00    +0.000 A 
ATOM      2  C   UNL     1       3.244   6.359  18.710  0.00  0.00    +0.000 A 
ATOM      3  C   UNL     1       2.382   6.533  19.789  0.00  0.00    +0.000 A 
ATOM      4  N   UNL     1       2.127   5.510  20.622  0.00  0.00    +0.000 NA
ATOM      5  C   UNL     1       2.753   4.320  20.390  0.00  0.00    +0.000 A 
ATOM      6  C   UNL     1       3.721   4.092  19.388  0.00  0.00    +0.000 A 
ENDROOT
BRANCH   3   7
ATOM      7  C   UNL     1       1.661   7.805  20.052  0.00  0.00    +0.000 A 
ATOM      8  C   UNL     1       1.044   8.032  21.229  0.00  0.00    +0.000 A 
ATOM      9  C   UNL     1       0.304   9.270  21.447  0.00  0.00    +0.000 A 
ATOM     10  C   UNL     1      -0.076   9.697  22.719  0.00  0.00    +0.000 A 
ATOM     11  C   UNL     1      -0.794  10.886  22.864  0.00  0.00    +0.000 A 
ATOM     12  C   UNL     1      -1.174  11.619  21.736  0.00  0.00    +0.000 A 
ATOM     13  C   UNL     1      -0.833  11.187  20.456  0.00  0.00    +0.000 A 
ATOM     14  C   UNL     1      -0.053  10.034  20.332  0.00  0.00    +0.000 A 
ATOM     15  O   UNL     1       0.465   9.688  19.077  0.00  0.00    +0.000 OA
ATOM     16  C   UNL     1       1.611   8.912  19.052  0.00  0.00    +0.000 A 
ATOM     17  O   UNL     1       2.472   9.096  18.200  0.00  0.00    +0.000 OA
BRANCH  13  18
ATOM     18  O   UNL     1      -1.247  12.002  19.439  0.00  0.00    +0.000 OA
ATOM     19  C   UNL     1      -2.518  11.698  18.870  0.00  0.00    +0.000 C 
ENDBRANCH  13  18
ENDBRANCH   3   7
BRANCH   1  23
ATOM     20  C   UNL     1       6.567   4.935  15.026  0.00  0.00    +0.000 A 
ATOM     21  C   UNL     1       5.327   4.308  15.014  0.00  0.00    +0.000 A 
ATOM     22  C   UNL     1       4.470   4.413  16.115  0.00  0.00    +0.000 A 
ATOM     23  C   UNL     1       4.847   5.095  17.290  0.00  0.00    +0.000 A 
ATOM     24  C   UNL     1       6.132   5.667  17.295  0.00  0.00    +0.000 A 
ATOM     25  C   UNL     1       6.971   5.613  16.172  0.00  0.00    +0.000 A 
BRANCH  20  27
ATOM     26  C   UNL     1       6.753   3.927  12.903  0.00  0.00    +0.000 C 
ATOM     27  O   UNL     1       7.318   4.776  13.895  0.00  0.00    +0.000 OA
ENDBRANCH  20  27
ENDBRANCH   1  23
BRANCH   6  28
ATOM     28  N   UNL     1       4.276   2.809  19.173  0.00  0.00    +0.000 N 
ATOM     29  H   UNL     1       5.287   2.732  19.263  0.00  0.00    +0.000 HD
ATOM     30  H   UNL     1       3.949   2.367  18.315  0.00  0.00    +0.000 HD
ENDBRANCH   6  28
BRANCH   5  31
ATOM     31  C   UNL     1       2.372   3.276  21.308  0.00  0.00    +0.000 C 
ATOM     32  N   UNL     1       2.023   2.429  22.026  0.00  0.00    +0.000 NA
ENDBRANCH   5  31
TORSDOF 6
ENDMDL
MODEL 3
REMARK VINA RESULT:      -8.7      3.863      9.454
REMARK  Name = 
REMARK  8 active torsions:
REMARK  status: ('A' for Active; 'I' for Inactive)
REMARK    1  A    between atoms: C_1  and  O_2
REMARK    2  A    between atoms: O_2  and  C_3
REMARK    3  A    between atoms: C_6  and  C_7
REMARK    4  A    between atoms: C_9  and  C_10
REMARK    5  A    between atoms: C_16  and  O_17
REMARK    6  A    between atoms: O_17  and  C_18
REMARK    7  A    between atoms: C_24  and  C_25
REMARK    8  A    between atoms: C_27  and  N_28
REMARK                            x       y       z     vdW  Elec       q    Type
REMARK                         _______ _______ _______ _____ _____    ______ ____
ROOT
ATOM      1  C   UNL     1      -1.144  11.583  18.515  0.00  0.00    +0.000 A 
ATOM      2  C   UNL     1      -0.549  10.331  18.795  0.00  0.00    +0.000 A 
ATOM      3  C   UNL     1       0.810  10.190  19.063  0.00  0.00    +0.000 A 
ATOM      4  N   UNL     1       1.627  11.255  18.995  0.00  0.00    +0.000 NA
ATOM      5  C   UNL     1       1.081  12.467  18.685  0.00  0.00    +0.000 A 
ATOM      6  C   UNL     1      -0.298  12.716  18.507  0.00  0.00    +0.000 A 
ENDROOT
BRANCH   3   7
ATOM      7  C   UNL     1       1.442   8.882  19.373  0.00  0.00    +0.000 A 
ATOM      8  C   UNL     1       2.081   8.168  18.424  0.00  0.00    +0.000 A 
ATOM      9  C   UNL     1       2.654   6.865  18.742  0.00  0.00    +0.000 A 
ATOM     10  C   UNL     1       3.582   6.237  17.912  0.00  0.00    +0.000 A 
ATOM     11  C   UNL     1       4.087   4.983  18.264  0.00  0.00    +0.000 A 
ATOM     12  C   UNL     1       3.627   4.337  19.416  0.00  0.00    +0.000 A 
ATOM     13  C   UNL     1       2.672   4.936  20.236  0.00  0.00    +0.000 A 
ATOM     14  C   UNL     1       2.231   6.222  19.909  0.00  0.00    +0.000 A 
ATOM     15  O   UNL     1       1.423   6.921  20.816  0.00  0.00    +0.000 OA
ATOM     16  C   UNL     1       1.439   8.304  20.749  0.00  0.00    +0.000 A 
ATOM     17  O   UNL     1       1.372   8.979  21.768  0.00  0.00    +0.000 OA
BRANCH  13  18
ATOM     18  O   UNL     1       2.319   4.212  21.341  0.00  0.00    +0.000 OA
ATOM     19  C   UNL     1       1.499   3.071  21.106  0.00  0.00    +0.000 C 
ENDBRANCH  13  18
ENDBRANCH   3   7
BRANCH   1  23
ATOM     20  C   UNL     1      -5.431  11.618  17.824  0.00  0.00    +0.000 A 
ATOM     21  C   UNL     1      -4.906  12.008  19.050  0.00  0.00    +0.000 A 
ATOM     22  C   UNL     1      -3.521  12.029  19.253  0.00  0.00    +0.000 A 
ATOM     23  C   UNL     1      -2.617  11.603  18.260  0.00  0.00    +0.000 A 
ATOM     24  C   UNL     1      -3.181  11.157  17.051  0.00  0.00    +0.000 A 
ATOM     25  C   UNL     1      -4.565  11.189  16.823  0.00  0.00    +0.000 A 
BRANCH  20  27
ATOM     26  C   UNL     1      -7.400  12.900  18.023  0.00  0.00    +0.000 C 
ATOM     27  O   UNL     1      -6.794  11.645  17.732  0.00  0.00    +0.000 OA
ENDBRANCH  20  27
ENDBRANCH   1  23
BRANCH   6  28
ATOM     28  N   UNL     1      -0.776  13.990  18.123  0.00  0.00    +0.000 N 
ATOM     29  H   UNL     1      -0.706  14.728  18.821  0.00  0.00    +0.000 HD
ATOM     30  H   UNL     1      -1.706  13.962  17.708  0.00  0.00    +0.000 HD
ENDBRANCH   6  28
BRANCH   5  31
ATOM     31  C   UNL     1       2.048  13.531  18.587  0.00  0.00    +0.000 C 
ATOM     32  N   UNL     1       2.796  14.417  18.488  0.00  0.00    +0.000 NA
ENDBRANCH   5  31
TORSDOF 6
ENDMDL
MODEL 4
REMARK VINA RESULT:      -8.4      3.694      9.531
REMARK  Name = 
REMARK  8 active torsions:
REMARK  status: ('A' for Active; 'I' for Inactive)
REMARK    1  A    between atoms: C_1  and  O_2
REMARK    2  A    between atoms: O_2  and  C_3
REMARK    3  A    between atoms: C_6  and  C_7
REMARK    4  A    between atoms: C_9  and  C_10
REMARK    5  A    between atoms: C_16  and  O_17
REMARK    6  A    between atoms: O_17  and  C_18
REMARK    7  A    between atoms: C_24  and  C_25
REMARK    8  A    between atoms: C_27  and  N_28
REMARK                            x       y       z     vdW  Elec       q    Type
REMARK                         _______ _______ _______ _____ _____    ______ ____
ROOT
ATOM      1  C   UNL     1      -0.909  11.569  18.491  0.00  0.00    +0.000 A 
ATOM      2  C   UNL     1      -0.272  10.311  18.593  0.00  0.00    +0.000 A 
ATOM      3  C   UNL     1       1.105  10.178  18.752  0.00  0.00    +0.000 A 
ATOM      4  N   UNL     1       1.894  11.266  18.745  0.00  0.00    +0.000 NA
ATOM      5  C   UNL     1       1.305  12.488  18.604  0.00  0.00    +0.000 A 
ATOM      6  C   UNL     1      -0.087  12.718  18.548  0.00  0.00    +0.000 A 
ENDROOT
BRANCH   3   7
ATOM      7  C   UNL     1       1.781   8.861  18.876  0.00  0.00    +0.000 A 
ATOM      8  C   UNL     1       2.533   8.361  17.874  0.00  0.00    +0.000 A 
ATOM      9  C   UNL     1       3.149   7.045  18.003  0.00  0.00    +0.000 A 
ATOM     10  C   UNL     1       4.175   6.618  17.159  0.00  0.00    +0.000 A 
ATOM     11  C   UNL     1       4.718   5.342  17.322  0.00  0.00    +0.000 A 
ATOM     12  C   UNL     1       4.203   4.478  18.293  0.00  0.00    +0.000 A 
ATOM     13  C   UNL     1       3.155   4.877  19.120  0.00  0.00    +0.000 A 
ATOM     14  C   UNL     1       2.670   6.182  18.992  0.00  0.00    +0.000 A 
ATOM     15  O   UNL     1       1.755   6.669  19.935  0.00  0.00    +0.000 OA
ATOM     16  C   UNL     1       1.700   8.040  20.119  0.00  0.00    +0.000 A 
ATOM     17  O   UNL     1       1.514   8.513  21.234  0.00  0.00    +0.000 OA
BRANCH  13  18
ATOM     18  O   UNL     1       2.755   3.947  20.040  0.00  0.00    +0.000 OA
ATOM     19  C   UNL     1       3.605   2.814  20.195  0.00  0.00    +0.000 C 
ENDBRANCH  13  18
ENDBRANCH   3   7
BRANCH   1  23
ATOM     20  C   UNL     1      -5.223  11.619  17.998  0.00  0.00    +0.000 A 
ATOM     21  C   UNL     1      -4.395  11.191  16.967  0.00  0.00    +0.000 A 
ATOM     22  C   UNL     1      -3.008  11.143  17.146  0.00  0.00    +0.000 A 
ATOM     23  C   UNL     1      -2.397  11.578  18.339  0.00  0.00    +0.000 A 
ATOM     24  C   UNL     1      -3.256  12.063  19.341  0.00  0.00    +0.000 A 
ATOM     25  C   UNL     1      -4.650  12.059  19.186  0.00  0.00    +0.000 A 
BRANCH  20  27
ATOM     26  C   UNL     1      -7.101  12.867  17.309  0.00  0.00    +0.000 C 
ATOM     27  O   UNL     1      -6.561  11.616  17.718  0.00  0.00    +0.000 OA
ENDBRANCH  20  27
ENDBRANCH   1  23
BRANCH   6  28
ATOM     28  N   UNL     1      -0.615  14.013  18.337  0.00  0.00    +0.000 N 
ATOM     29  H   UNL     1      -1.001  14.199  17.413  0.00  0.00    +0.000 HD
ATOM     30  H   UNL     1       0.018  14.757  18.627  0.00  0.00    +0.000 HD
ENDBRANCH   6  28
BRANCH   5  31
ATOM     31  C   UNL     1       2.243  13.582  18.557  0.00  0.00    +0.000 C 
ATOM     32  N   UNL     1       3.034  14.434  18.510  0.00  0.00    +0.000 NA
ENDBRANCH   5  31
TORSDOF 6
ENDMDL
MODEL 5
REMARK VINA RESULT:      -8.4      1.346      2.219
REMARK  Name = 
REMARK  8 active torsions:
REMARK  status: ('A' for Active; 'I' for Inactive)
REMARK    1  A    between atoms: C_1  and  O_2
REMARK    2  A    between atoms: O_2  and  C_3
REMARK    3  A    between atoms: C_6  and  C_7
REMARK    4  A    between atoms: C_9  and  C_10
REMARK    5  A    between atoms: C_16  and  O_17
REMARK    6  A    between atoms: O_17  and  C_18
REMARK    7  A    between atoms: C_24  and  C_25
REMARK    8  A    between atoms: C_27  and  N_28
REMARK                            x       y       z     vdW  Elec       q    Type
REMARK                         _______ _______ _______ _____ _____    ______ ____
ROOT
ATOM      1  C   UNL     1       3.838   5.730  18.745  0.00  0.00    +0.000 A 
ATOM      2  C   UNL     1       3.160   6.956  18.934  0.00  0.00    +0.000 A 
ATOM      3  C   UNL     1       2.178   7.130  19.905  0.00  0.00    +0.000 A 
ATOM      4  N   UNL     1       1.789   6.092  20.665  0.00  0.00    +0.000 NA
ATOM      5  C   UNL     1       2.399   4.887  20.472  0.00  0.00    +0.000 A 
ATOM      6  C   UNL     1       3.475   4.654  19.588  0.00  0.00    +0.000 A 
ENDROOT
BRANCH   3   7
ATOM      7  C   UNL     1       1.472   8.419  20.121  0.00  0.00    +0.000 A 
ATOM      8  C   UNL     1       0.911   9.092  19.095  0.00  0.00    +0.000 A 
ATOM      9  C   UNL     1       0.262  10.378  19.325  0.00  0.00    +0.000 A 
ATOM     10  C   UNL     1      -0.596  10.957  18.390  0.00  0.00    +0.000 A 
ATOM     11  C   UNL     1      -1.178  12.197  18.661  0.00  0.00    +0.000 A 
ATOM     12  C   UNL     1      -0.863  12.879  19.840  0.00  0.00    +0.000 A 
ATOM     13  C   UNL     1       0.021  12.331  20.767  0.00  0.00    +0.000 A 
ATOM     14  C   UNL     1       0.539  11.056  20.515  0.00  0.00    +0.000 A 
ATOM     15  O   UNL     1       1.271  10.404  21.516  0.00  0.00    +0.000 OA
ATOM     16  C   UNL     1       1.311   9.021  21.476  0.00  0.00    +0.000 A 
ATOM     17  O   UNL     1       1.294   8.366  22.512  0.00  0.00    +0.000 OA
BRANCH  13  18
ATOM     18  O   UNL     1       0.230  13.087  21.887  0.00  0.00    +0.000 OA
ATOM     19  C   UNL     1      -0.903  13.294  22.725  0.00  0.00    +0.000 C 
ENDBRANCH  13  18
ENDBRANCH   3   7
BRANCH   1  23
ATOM     20  C   UNL     1       6.862   5.521  15.637  0.00  0.00    +0.000 A 
ATOM     21  C   UNL     1       5.602   4.970  15.440  0.00  0.00    +0.000 A 
ATOM     22  C   UNL     1       4.620   5.073  16.432  0.00  0.00    +0.000 A 
ATOM     23  C   UNL     1       4.883   5.677  17.678  0.00  0.00    +0.000 A 
ATOM     24  C   UNL     1       6.186   6.171  17.871  0.00  0.00    +0.000 A 
ATOM     25  C   UNL     1       7.155   6.120  16.858  0.00  0.00    +0.000 A 
BRANCH  20  27
ATOM     26  C   UNL     1       7.197   4.777  13.425  0.00  0.00    +0.000 C 
ATOM     27  O   UNL     1       7.739   5.371  14.599  0.00  0.00    +0.000 OA
ENDBRANCH  20  27
ENDBRANCH   1  23
BRANCH   6  28
ATOM     28  N   UNL     1       4.010   3.358  19.400  0.00  0.00    +0.000 N 
ATOM     29  H   UNL     1       4.656   3.244  18.621  0.00  0.00    +0.000 HD
ATOM     30  H   UNL     1       3.300   2.627  19.399  0.00  0.00    +0.000 HD
ENDBRANCH   6  28
BRANCH   5  31
ATOM     31  C   UNL     1       1.874   3.832  21.301  0.00  0.00    +0.000 C 
ATOM     32  N   UNL     1       1.492   2.975  21.990  0.00  0.00    +0.000 NA
ENDBRANCH   5  31
TORSDOF 6
ENDMDL
MODEL 6
REMARK VINA RESULT:      -8.3      3.847      9.653
REMARK  Name = 
REMARK  8 active torsions:
REMARK  status: ('A' for Active; 'I' for Inactive)
REMARK    1  A    between atoms: C_1  and  O_2
REMARK    2  A    between atoms: O_2  and  C_3
REMARK    3  A    between atoms: C_6  and  C_7
REMARK    4  A    between atoms: C_9  and  C_10
REMARK    5  A    between atoms: C_16  and  O_17
REMARK    6  A    between atoms: O_17  and  C_18
REMARK    7  A    between atoms: C_24  and  C_25
REMARK    8  A    between atoms: C_27  and  N_28
REMARK                            x       y       z     vdW  Elec       q    Type
REMARK                         _______ _______ _______ _____ _____    ______ ____
ROOT
ATOM      1  C   UNL     1      -1.068  11.946  19.193  0.00  0.00    +0.000 A 
ATOM      2  C   UNL     1      -0.517  10.661  19.399  0.00  0.00    +0.000 A 
ATOM      3  C   UNL     1       0.848  10.405  19.303  0.00  0.00    +0.000 A 
ATOM      4  N   UNL     1       1.694  11.382  18.937  0.00  0.00    +0.000 NA
ATOM      5  C   UNL     1       1.179  12.622  18.692  0.00  0.00    +0.000 A 
ATOM      6  C   UNL     1      -0.171  12.991  18.871  0.00  0.00    +0.000 A 
ENDROOT
BRANCH   3   7
ATOM      7  C   UNL     1       1.437   9.061  19.534  0.00  0.00    +0.000 A 
ATOM      8  C   UNL     1       2.031   8.375  18.536  0.00  0.00    +0.000 A 
ATOM      9  C   UNL     1       2.562   7.037  18.776  0.00  0.00    +0.000 A 
ATOM     10  C   UNL     1       3.451   6.420  17.896  0.00  0.00    +0.000 A 
ATOM     11  C   UNL     1       3.916   5.133  18.173  0.00  0.00    +0.000 A 
ATOM     12  C   UNL     1       3.455   4.446  19.300  0.00  0.00    +0.000 A 
ATOM     13  C   UNL     1       2.540   5.035  20.170  0.00  0.00    +0.000 A 
ATOM     14  C   UNL     1       2.139   6.351  19.918  0.00  0.00    +0.000 A 
ATOM     15  O   UNL     1       1.376   7.031  20.876  0.00  0.00    +0.000 OA
ATOM     16  C   UNL     1       1.441   8.414  20.878  0.00  0.00    +0.000 A 
ATOM     17  O   UNL     1       1.419   9.038  21.932  0.00  0.00    +0.000 OA
BRANCH  13  18
ATOM     18  O   UNL     1       2.182   4.268  21.244  0.00  0.00    +0.000 OA
ATOM     19  C   UNL     1       1.310   3.175  20.971  0.00  0.00    +0.000 C 
ENDBRANCH  13  18
ENDBRANCH   3   7
BRANCH   1  23
ATOM     20  C   UNL     1      -5.364  12.357  19.676  0.00  0.00    +0.000 A 
ATOM     21  C   UNL     1      -4.491  12.830  20.648  0.00  0.00    +0.000 A 
ATOM     22  C   UNL     1      -3.107  12.727  20.469  0.00  0.00    +0.000 A 
ATOM     23  C   UNL     1      -2.549  12.094  19.341  0.00  0.00    +0.000 A 
ATOM     24  C   UNL     1      -3.458  11.571  18.403  0.00  0.00    +0.000 A 
ATOM     25  C   UNL     1      -4.844  11.723  18.552  0.00  0.00    +0.000 A 
BRANCH  20  27
ATOM     26  C   UNL     1      -7.476  11.330  19.893  0.00  0.00    +0.000 C 
ATOM     27  O   UNL     1      -6.693  12.518  19.949  0.00  0.00    +0.000 OA
ENDBRANCH  20  27
ENDBRANCH   1  23
BRANCH   6  28
ATOM     28  N   UNL     1      -0.636  14.283  18.532  0.00  0.00    +0.000 N 
ATOM     29  H   UNL     1      -0.429  15.027  19.195  0.00  0.00    +0.000 HD
ATOM     30  H   UNL     1      -1.617  14.298  18.257  0.00  0.00    +0.000 HD
ENDBRANCH   6  28
BRANCH   5  31
ATOM     31  C   UNL     1       2.162  13.582  18.257  0.00  0.00    +0.000 C 
ATOM     32  N   UNL     1       2.943  14.387  17.941  0.00  0.00    +0.000 NA
ENDBRANCH   5  31
TORSDOF 6
ENDMDL
MODEL 7
REMARK VINA RESULT:      -7.9      4.538      8.584
REMARK  Name = 
REMARK  8 active torsions:
REMARK  status: ('A' for Active; 'I' for Inactive)
REMARK    1  A    between atoms: C_1  and  O_2
REMARK    2  A    between atoms: O_2  and  C_3
REMARK    3  A    between atoms: C_6  and  C_7
REMARK    4  A    between atoms: C_9  and  C_10
REMARK    5  A    between atoms: C_16  and  O_17
REMARK    6  A    between atoms: O_17  and  C_18
REMARK    7  A    between atoms: C_24  and  C_25
REMARK    8  A    between atoms: C_27  and  N_28
REMARK                            x       y       z     vdW  Elec       q    Type
REMARK                         _______ _______ _______ _____ _____    ______ ____
ROOT
ATOM      1  C   UNL     1       1.150  12.711  18.788  0.00  0.00    +0.000 A 
ATOM      2  C   UNL     1       1.691  11.446  19.110  0.00  0.00    +0.000 A 
ATOM      3  C   UNL     1       0.933  10.278  19.090  0.00  0.00    +0.000 A 
ATOM      4  N   UNL     1      -0.382  10.331  18.823  0.00  0.00    +0.000 NA
ATOM      5  C   UNL     1      -0.936  11.548  18.550  0.00  0.00    +0.000 A 
ATOM      6  C   UNL     1      -0.221  12.761  18.442  0.00  0.00    +0.000 A 
ENDROOT
BRANCH   3   7
ATOM      7  C   UNL     1       1.498   8.942  19.412  0.00  0.00    +0.000 A 
ATOM      8  C   UNL     1       2.117   8.197  18.473  0.00  0.00    +0.000 A 
ATOM      9  C   UNL     1       2.623   6.869  18.803  0.00  0.00    +0.000 A 
ATOM     10  C   UNL     1       3.533   6.196  17.988  0.00  0.00    +0.000 A 
ATOM     11  C   UNL     1       3.973   4.921  18.350  0.00  0.00    +0.000 A 
ATOM     12  C   UNL     1       3.465   4.300  19.495  0.00  0.00    +0.000 A 
ATOM     13  C   UNL     1       2.528   4.945  20.300  0.00  0.00    +0.000 A 
ATOM     14  C   UNL     1       2.152   6.250  19.964  0.00  0.00    +0.000 A 
ATOM     15  O   UNL     1       1.365   6.988  20.858  0.00  0.00    +0.000 OA
ATOM     16  C   UNL     1       1.447   8.368  20.788  0.00  0.00    +0.000 A 
ATOM     17  O   UNL     1       1.397   9.048  21.806  0.00  0.00    +0.000 OA
BRANCH  13  18
ATOM     18  O   UNL     1       2.125   4.240  21.401  0.00  0.00    +0.000 OA
ATOM     19  C   UNL     1       1.496   2.987  21.146  0.00  0.00    +0.000 C 
ENDBRANCH  13  18
ENDBRANCH   3   7
BRANCH   1  23
ATOM     20  C   UNL     1       3.785  16.160  18.929  0.00  0.00    +0.000 A 
ATOM     21  C   UNL     1       2.853  15.936  19.935  0.00  0.00    +0.000 A 
ATOM     22  C   UNL     1       2.032  14.803  19.902  0.00  0.00    +0.000 A 
ATOM     23  C   UNL     1       2.072  13.887  18.831  0.00  0.00    +0.000 A 
ATOM     24  C   UNL     1       2.982  14.173  17.798  0.00  0.00    +0.000 A 
ATOM     25  C   UNL     1       3.846  15.276  17.856  0.00  0.00    +0.000 A 
BRANCH  20  27
ATOM     26  C   UNL     1       5.945  17.105  18.936  0.00  0.00    +0.000 C 
ATOM     27  O   UNL     1       4.540  17.290  19.067  0.00  0.00    +0.000 OA
ENDBRANCH  20  27
ENDBRANCH   1  23
BRANCH   6  28
ATOM     28  N   UNL     1      -0.881  13.991  18.220  0.00  0.00    +0.000 N 
ATOM     29  H   UNL     1      -1.886  14.000  18.380  0.00  0.00    +0.000 HD
ATOM     30  H   UNL     1      -0.647  14.416  17.324  0.00  0.00    +0.000 HD
ENDBRANCH   6  28
BRANCH   5  31
ATOM     31  C   UNL     1      -2.359  11.501  18.328  0.00  0.00    +0.000 C 
ATOM     32  N   UNL     1      -3.512  11.427  18.180  0.00  0.00    +0.000 NA
ENDBRANCH   5  31
TORSDOF 6
ENDMDL
MODEL 8
REMARK VINA RESULT:      -7.9      4.013     10.274
REMARK  Name = 
REMARK  8 active torsions:
REMARK  status: ('A' for Active; 'I' for Inactive)
REMARK    1  A    between atoms: C_1  and  O_2
REMARK    2  A    between atoms: O_2  and  C_3
REMARK    3  A    between atoms: C_6  and  C_7
REMARK    4  A    between atoms: C_9  and  C_10
REMARK    5  A    between atoms: C_16  and  O_17
REMARK    6  A    between atoms: O_17  and  C_18
REMARK    7  A    between atoms: C_24  and  C_25
REMARK    8  A    between atoms: C_27  and  N_28
REMARK                            x       y       z     vdW  Elec       q    Type
REMARK                         _______ _______ _______ _____ _____    ______ ____
ROOT
ATOM      1  C   UNL     1      -1.752  12.628  20.252  0.00  0.00    +0.000 A 
ATOM      2  C   UNL     1      -1.081  11.384  20.235  0.00  0.00    +0.000 A 
ATOM      3  C   UNL     1       0.267  11.262  19.908  0.00  0.00    +0.000 A 
ATOM      4  N   UNL     1       0.969  12.342  19.524  0.00  0.00    +0.000 NA
ATOM      5  C   UNL     1       0.331  13.547  19.492  0.00  0.00    +0.000 A 
ATOM      6  C   UNL     1      -0.998  13.775  19.912  0.00  0.00    +0.000 A 
ENDROOT
BRANCH   3   7
ATOM      7  C   UNL     1       0.984   9.961  19.903  0.00  0.00    +0.000 A 
ATOM      8  C   UNL     1       1.507   9.453  18.768  0.00  0.00    +0.000 A 
ATOM      9  C   UNL     1       2.167   8.152  18.780  0.00  0.00    +0.000 A 
ATOM     10  C   UNL     1       2.990   7.725  17.738  0.00  0.00    +0.000 A 
ATOM     11  C   UNL     1       3.585   6.463  17.800  0.00  0.00    +0.000 A 
ATOM     12  C   UNL     1       3.318   5.611  18.876  0.00  0.00    +0.000 A 
ATOM     13  C   UNL     1       2.469   6.009  19.907  0.00  0.00    +0.000 A 
ATOM     14  C   UNL     1       1.938   7.302  19.866  0.00  0.00    +0.000 A 
ATOM     15  O   UNL     1       1.244   7.793  20.979  0.00  0.00    +0.000 OA
ATOM     16  C   UNL     1       1.199   9.167  21.147  0.00  0.00    +0.000 A 
ATOM     17  O   UNL     1       1.253   9.661  22.267  0.00  0.00    +0.000 OA
BRANCH  13  18
ATOM     18  O   UNL     1       2.304   5.093  20.909  0.00  0.00    +0.000 OA
ATOM     19  C   UNL     1       1.320   4.088  20.683  0.00  0.00    +0.000 C 
ENDBRANCH  13  18
ENDBRANCH   3   7
BRANCH   1  23
ATOM     20  C   UNL     1      -5.960  12.657  21.321  0.00  0.00    +0.000 A 
ATOM     21  C   UNL     1      -5.563  12.437  20.008  0.00  0.00    +0.000 A 
ATOM     22  C   UNL     1      -4.203  12.392  19.678  0.00  0.00    +0.000 A 
ATOM     23  C   UNL     1      -3.197  12.627  20.636  0.00  0.00    +0.000 A 
ATOM     24  C   UNL     1      -3.632  12.907  21.944  0.00  0.00    +0.000 A 
ATOM     25  C   UNL     1      -4.991  12.896  22.290  0.00  0.00    +0.000 A 
BRANCH  20  27
ATOM     26  C   UNL     1      -7.719  12.459  22.880  0.00  0.00    +0.000 C 
ATOM     27  O   UNL     1      -7.310  12.670  21.533  0.00  0.00    +0.000 OA
ENDBRANCH  20  27
ENDBRANCH   1  23
BRANCH   6  28
ATOM     28  N   UNL     1      -1.606  15.046  19.785  0.00  0.00    +0.000 N 
ATOM     29  H   UNL     1      -2.064  15.242  18.897  0.00  0.00    +0.000 HD
ATOM     30  H   UNL     1      -0.995  15.813  20.061  0.00  0.00    +0.000 HD
ENDBRANCH   6  28
BRANCH   5  31
ATOM     31  C   UNL     1       1.157  14.629  19.018  0.00  0.00    +0.000 C 
ATOM     32  N   UNL     1       1.803  15.531  18.666  0.00  0.00    +0.000 NA
ENDBRANCH   5  31
TORSDOF 6
ENDMDL
MODEL 9
REMARK VINA RESULT:      -7.8      3.337      9.569
REMARK  Name = 
REMARK  8 active torsions:
REMARK  status: ('A' for Active; 'I' for Inactive)
REMARK    1  A    between atoms: C_1  and  O_2
REMARK    2  A    between atoms: O_2  and  C_3
REMARK    3  A    between atoms: C_6  and  C_7
REMARK    4  A    between atoms: C_9  and  C_10
REMARK    5  A    between atoms: C_16  and  O_17
REMARK    6  A    between atoms: O_17  and  C_18
REMARK    7  A    between atoms: C_24  and  C_25
REMARK    8  A    between atoms: C_27  and  N_28
REMARK                            x       y       z     vdW  Elec       q    Type
REMARK                         _______ _______ _______ _____ _____    ______ ____
ROOT
ATOM      1  C   UNL     1      -0.700  11.563  19.957  0.00  0.00    +0.000 A 
ATOM      2  C   UNL     1       0.288  10.552  19.988  0.00  0.00    +0.000 A 
ATOM      3  C   UNL     1       0.483   9.662  18.935  0.00  0.00    +0.000 A 
ATOM      4  N   UNL     1      -0.325   9.696  17.862  0.00  0.00    +0.000 NA
ATOM      5  C   UNL     1      -1.312  10.637  17.830  0.00  0.00    +0.000 A 
ATOM      6  C   UNL     1      -1.509  11.643  18.801  0.00  0.00    +0.000 A 
ENDROOT
BRANCH   3   7
ATOM      7  C   UNL     1       1.529   8.606  18.952  0.00  0.00    +0.000 A 
ATOM      8  C   UNL     1       2.314   8.379  17.879  0.00  0.00    +0.000 A 
ATOM      9  C   UNL     1       3.303   7.306  17.904  0.00  0.00    +0.000 A 
ATOM     10  C   UNL     1       4.339   7.228  16.974  0.00  0.00    +0.000 A 
ATOM     11  C   UNL     1       5.249   6.171  17.041  0.00  0.00    +0.000 A 
ATOM     12  C   UNL     1       5.093   5.168  18.003  0.00  0.00    +0.000 A 
ATOM     13  C   UNL     1       4.042   5.214  18.917  0.00  0.00    +0.000 A 
ATOM     14  C   UNL     1       3.182   6.316  18.883  0.00  0.00    +0.000 A 
ATOM     15  O   UNL     1       2.241   6.483  19.907  0.00  0.00    +0.000 OA
ATOM     16  C   UNL     1       1.794   7.769  20.158  0.00  0.00    +0.000 A 
ATOM     17  O   UNL     1       1.564   8.138  21.304  0.00  0.00    +0.000 OA
BRANCH  13  18
ATOM     18  O   UNL     1       4.011   4.186  19.818  0.00  0.00    +0.000 OA
ATOM     19  C   UNL     1       4.155   2.875  19.278  0.00  0.00    +0.000 C 
ENDBRANCH  13  18
ENDBRANCH   3   7
BRANCH   1  23
ATOM     20  C   UNL     1      -0.930  14.186  23.410  0.00  0.00    +0.000 A 
ATOM     21  C   UNL     1      -0.034  14.445  22.380  0.00  0.00    +0.000 A 
ATOM     22  C   UNL     1       0.009  13.616  21.253  0.00  0.00    +0.000 A 
ATOM     23  C   UNL     1      -0.799  12.466  21.145  0.00  0.00    +0.000 A 
ATOM     24  C   UNL     1      -1.651  12.196  22.230  0.00  0.00    +0.000 A 
ATOM     25  C   UNL     1      -1.738  13.056  23.335  0.00  0.00    +0.000 A 
BRANCH  20  27
ATOM     26  C   UNL     1      -2.098  15.167  25.208  0.00  0.00    +0.000 C 
ATOM     27  O   UNL     1      -0.894  15.066  24.456  0.00  0.00    +0.000 OA
ENDBRANCH  20  27
ENDBRANCH   1  23
BRANCH   6  28
ATOM     28  N   UNL     1      -2.598  12.542  18.724  0.00  0.00    +0.000 N 
ATOM     29  H   UNL     1      -3.452  12.182  18.302  0.00  0.00    +0.000 HD
ATOM     30  H   UNL     1      -2.346  13.447  18.330  0.00  0.00    +0.000 HD
ENDBRANCH   6  28
BRANCH   5  31
ATOM     31  C   UNL     1      -2.153  10.556  16.661  0.00  0.00    +0.000 C 
ATOM     32  N   UNL     1      -2.793  10.489  15.691  0.00  0.00    +0.000 NA
ENDBRANCH   5  31
TORSDOF 6
ENDMDL
