MODEL 1
REMARK VINA RESULT:      -7.3      0.000      0.000
REMARK  Name = 
REMARK  4 active torsions:
REMARK  status: ('A' for Active; 'I' for Inactive)
REMARK    1  A    between atoms: C_5  and  C_6
REMARK    2  A    between atoms: C_6  and  N_7
REMARK    3  A    between atoms: C_14  and  C_15
REMARK    4  A    between atoms: C_15  and  N_16
REMARK                            x       y       z     vdW  Elec       q    Type
REMARK                         _______ _______ _______ _____ _____    ______ ____
ROOT
ATOM      1  N   UNL     1       1.967   6.631  19.478  0.00  0.00    +0.000 NA
ATOM      2  C   UNL     1       1.865   5.775  20.675  0.00  0.00    +0.000 C 
ATOM      3  C   UNL     1       2.541   4.406  20.675  0.00  0.00    +0.000 C 
ATOM      4  C   UNL     1       2.214   3.597  19.438  0.00  0.00    +0.000 C 
ATOM      5  N   UNL     1       3.056   3.974  18.326  0.00  0.00    +0.000 N 
ATOM      6  N   UNL     1       3.573   3.006  17.554  0.00  0.00    +0.000 NA
ATOM      7  N   UNL     1       4.376   3.579  16.677  0.00  0.00    +0.000 NA
ATOM      8  C   UNL     1       4.372   4.935  16.906  0.00  0.00    +0.000 A 
ATOM      9  C   UNL     1       3.519   5.212  17.978  0.00  0.00    +0.000 A 
ATOM     10  C   UNL     1       3.213   6.494  18.674  0.00  0.00    +0.000 C 
ENDROOT
BRANCH   1  11
ATOM     11  C   UNL     1       1.932   8.071  19.906  0.00  0.00    +0.000 C 
BRANCH  11  16
ATOM     12  C   UNL     1      -0.902   9.012  22.327  0.00  0.00    +0.000 A 
ATOM     13  C   UNL     1      -0.121   9.534  23.348  0.00  0.00    +0.000 A 
ATOM     14  N   UNL     1       1.226   9.561  23.316  0.00  0.00    +0.000 NA
ATOM     15  C   UNL     1       1.813   9.053  22.205  0.00  0.00    +0.000 A 
ATOM     16  C   UNL     1       1.131   8.493  21.120  0.00  0.00    +0.000 A 
ATOM     17  C   UNL     1      -0.261   8.487  21.196  0.00  0.00    +0.000 A 
ENDBRANCH  11  16
ENDBRANCH   1  11
BRANCH   8  18
ATOM     18  C   UNL     1       5.138   5.819  15.966  0.00  0.00    +0.000 C 
BRANCH  18  19
ATOM     19  N   UNL     1       6.556   6.070  16.265  0.00  0.00    +0.000 NA
ATOM     20  C   UNL     1       7.414   4.895  16.410  0.00  0.00    +0.000 C 
ATOM     21  C   UNL     1       7.579   4.731  17.908  0.00  0.00    +0.000 C 
ATOM     22  C   UNL     1       7.615   6.161  18.414  0.00  0.00    +0.000 C 
ATOM     23  C   UNL     1       6.837   6.966  17.378  0.00  0.00    +0.000 C 
ENDBRANCH  18  19
ENDBRANCH   8  18
TORSDOF 4
ENDMDL
MODEL 2
REMARK VINA RESULT:      -7.2      1.730      2.371
REMARK  Name = 
REMARK  4 active torsions:
REMARK  status: ('A' for Active; 'I' for Inactive)
REMARK    1  A    between atoms: C_5  and  C_6
REMARK    2  A    between atoms: C_6  and  N_7
REMARK    3  A    between atoms: C_14  and  C_15
REMARK    4  A    between atoms: C_15  and  N_16
REMARK                            x       y       z     vdW  Elec       q    Type
REMARK                         _______ _______ _______ _____ _____    ______ ____
ROOT
ATOM      1  N   UNL     1       1.676   5.536  19.850  0.00  0.00    +0.000 NA
ATOM      2  C   UNL     1       0.908   4.585  20.677  0.00  0.00    +0.000 C 
ATOM      3  C   UNL     1       1.207   3.091  20.571  0.00  0.00    +0.000 C 
ATOM      4  C   UNL     1       1.246   2.607  19.138  0.00  0.00    +0.000 C 
ATOM      5  N   UNL     1       2.528   2.871  18.528  0.00  0.00    +0.000 N 
ATOM      6  N   UNL     1       3.090   1.916  17.771  0.00  0.00    +0.000 NA
ATOM      7  N   UNL     1       4.286   2.343  17.410  0.00  0.00    +0.000 NA
ATOM      8  C   UNL     1       4.487   3.589  17.956  0.00  0.00    +0.000 A 
ATOM      9  C   UNL     1       3.353   3.950  18.690  0.00  0.00    +0.000 A 
ATOM     10  C   UNL     1       3.078   5.149  19.532  0.00  0.00    +0.000 C 
ENDROOT
BRANCH   1  11
ATOM     11  C   UNL     1       1.785   6.841  20.587  0.00  0.00    +0.000 C 
BRANCH  11  16
ATOM     12  C   UNL     1       1.780   9.729  18.050  0.00  0.00    +0.000 A 
ATOM     13  C   UNL     1       1.185  10.693  18.852  0.00  0.00    +0.000 A 
ATOM     14  N   UNL     1       0.763  10.457  20.110  0.00  0.00    +0.000 NA
ATOM     15  C   UNL     1       0.959   9.204  20.587  0.00  0.00    +0.000 A 
ATOM     16  C   UNL     1       1.537   8.151  19.869  0.00  0.00    +0.000 A 
ATOM     17  C   UNL     1       1.959   8.441  18.572  0.00  0.00    +0.000 A 
ENDBRANCH  11  16
ENDBRANCH   1  11
BRANCH   8  18
ATOM     18  C   UNL     1       5.743   4.329  17.604  0.00  0.00    +0.000 C 
BRANCH  18  19
ATOM     19  N   UNL     1       5.983   5.622  18.261  0.00  0.00    +0.000 NA
ATOM     20  C   UNL     1       6.039   6.798  17.395  0.00  0.00    +0.000 C 
ATOM     21  C   UNL     1       7.520   7.092  17.252  0.00  0.00    +0.000 C 
ATOM     22  C   UNL     1       8.080   6.728  18.615  0.00  0.00    +0.000 C 
ATOM     23  C   UNL     1       7.117   5.687  19.173  0.00  0.00    +0.000 C 
ENDBRANCH  18  19
ENDBRANCH   8  18
TORSDOF 4
ENDMDL
MODEL 3
REMARK VINA RESULT:      -7.2      1.821      4.420
REMARK  Name = 
REMARK  4 active torsions:
REMARK  status: ('A' for Active; 'I' for Inactive)
REMARK    1  A    between atoms: C_5  and  C_6
REMARK    2  A    between atoms: C_6  and  N_7
REMARK    3  A    between atoms: C_14  and  C_15
REMARK    4  A    between atoms: C_15  and  N_16
REMARK                            x       y       z     vdW  Elec       q    Type
REMARK                         _______ _______ _______ _____ _____    ______ ____
ROOT
ATOM      1  N   UNL     1       3.594   6.925  17.803  0.00  0.00    +0.000 NA
ATOM      2  C   UNL     1       4.633   7.054  16.763  0.00  0.00    +0.000 C 
ATOM      3  C   UNL     1       5.180   5.797  16.092  0.00  0.00    +0.000 C 
ATOM      4  C   UNL     1       5.586   4.735  17.092  0.00  0.00    +0.000 C 
ATOM      5  N   UNL     1       4.448   3.963  17.531  0.00  0.00    +0.000 N 
ATOM      6  N   UNL     1       4.575   2.631  17.635  0.00  0.00    +0.000 NA
ATOM      7  N   UNL     1       3.391   2.140  17.952  0.00  0.00    +0.000 NA
ATOM      8  C   UNL     1       2.498   3.181  18.043  0.00  0.00    +0.000 A 
ATOM      9  C   UNL     1       3.166   4.377  17.769  0.00  0.00    +0.000 A 
ATOM     10  C   UNL     1       2.660   5.775  17.660  0.00  0.00    +0.000 C 
ENDROOT
BRANCH   1  11
ATOM     11  C   UNL     1       2.721   8.148  17.772  0.00  0.00    +0.000 C 
BRANCH  11  16
ATOM     12  C   UNL     1       1.050   8.260  21.232  0.00  0.00    +0.000 A 
ATOM     13  C   UNL     1       0.197   9.330  21.002  0.00  0.00    +0.000 A 
ATOM     14  N   UNL     1       0.162  10.019  19.844  0.00  0.00    +0.000 NA
ATOM     15  C   UNL     1       1.011   9.608  18.872  0.00  0.00    +0.000 A 
ATOM     16  C   UNL     1       1.921   8.551  18.992  0.00  0.00    +0.000 A 
ATOM     17  C   UNL     1       1.921   7.867  20.207  0.00  0.00    +0.000 A 
ENDBRANCH  11  16
ENDBRANCH   1  11
BRANCH   8  18
ATOM     18  C   UNL     1       1.097   2.883  18.492  0.00  0.00    +0.000 C 
BRANCH  18  19
ATOM     19  N   UNL     1       0.787   3.046  19.920  0.00  0.00    +0.000 NA
ATOM     20  C   UNL     1       0.820   4.410  20.446  0.00  0.00    +0.000 C 
ATOM     21  C   UNL     1       2.147   4.501  21.174  0.00  0.00    +0.000 C 
ATOM     22  C   UNL     1       2.319   3.113  21.762  0.00  0.00    +0.000 C 
ATOM     23  C   UNL     1       1.519   2.194  20.846  0.00  0.00    +0.000 C 
ENDBRANCH  18  19
ENDBRANCH   8  18
TORSDOF 4
ENDMDL
MODEL 4
REMARK VINA RESULT:      -7.2      1.369      1.915
REMARK  Name = 
REMARK  4 active torsions:
REMARK  status: ('A' for Active; 'I' for Inactive)
REMARK    1  A    between atoms: C_5  and  C_6
REMARK    2  A    between atoms: C_6  and  N_7
REMARK    3  A    between atoms: C_14  and  C_15
REMARK    4  A    between atoms: C_15  and  N_16
REMARK                            x       y       z     vdW  Elec       q    Type
REMARK                         _______ _______ _______ _____ _____    ______ ____
ROOT
ATOM      1  N   UNL     1       2.014   6.015  19.864  0.00  0.00    +0.000 NA
ATOM      2  C   UNL     1       1.853   4.879  20.791  0.00  0.00    +0.000 C 
ATOM      3  C   UNL     1       2.578   3.568  20.500  0.00  0.00    +0.000 C 
ATOM      4  C   UNL     1       2.378   3.097  19.076  0.00  0.00    +0.000 C 
ATOM      5  N   UNL     1       3.287   3.760  18.170  0.00  0.00    +0.000 N 
ATOM      6  N   UNL     1       3.898   3.031  17.223  0.00  0.00    +0.000 NA
ATOM      7  N   UNL     1       4.744   3.824  16.592  0.00  0.00    +0.000 NA
ATOM      8  C   UNL     1       4.672   5.076  17.156  0.00  0.00    +0.000 A 
ATOM      9  C   UNL     1       3.729   5.054  18.188  0.00  0.00    +0.000 A 
ATOM     10  C   UNL     1       3.322   6.109  19.159  0.00  0.00    +0.000 C 
ENDROOT
BRANCH   1  11
ATOM     11  C   UNL     1       1.892   7.297  20.640  0.00  0.00    +0.000 C 
BRANCH  11  16
ATOM     12  C   UNL     1       1.311  10.137  18.116  0.00  0.00    +0.000 A 
ATOM     13  C   UNL     1       0.735  11.054  18.983  0.00  0.00    +0.000 A 
ATOM     14  N   UNL     1       0.496  10.799  20.285  0.00  0.00    +0.000 NA
ATOM     15  C   UNL     1       0.862   9.576  20.737  0.00  0.00    +0.000 A 
ATOM     16  C   UNL     1       1.440   8.569  19.955  0.00  0.00    +0.000 A 
ATOM     17  C   UNL     1       1.670   8.878  18.616  0.00  0.00    +0.000 A 
ENDBRANCH  11  16
ENDBRANCH   1  11
BRANCH   8  18
ATOM     18  C   UNL     1       5.474   6.184  16.540  0.00  0.00    +0.000 C 
BRANCH  18  19
ATOM     19  N   UNL     1       6.925   6.190  16.773  0.00  0.00    +0.000 NA
ATOM     20  C   UNL     1       7.456   5.133  17.633  0.00  0.00    +0.000 C 
ATOM     21  C   UNL     1       7.680   5.812  18.970  0.00  0.00    +0.000 C 
ATOM     22  C   UNL     1       8.123   7.210  18.582  0.00  0.00    +0.000 C 
ATOM     23  C   UNL     1       7.510   7.451  17.207  0.00  0.00    +0.000 C 
ENDBRANCH  18  19
ENDBRANCH   8  18
TORSDOF 4
ENDMDL
MODEL 5
REMARK VINA RESULT:      -7.2      1.382      1.781
REMARK  Name = 
REMARK  4 active torsions:
REMARK  status: ('A' for Active; 'I' for Inactive)
REMARK    1  A    between atoms: C_5  and  C_6
REMARK    2  A    between atoms: C_6  and  N_7
REMARK    3  A    between atoms: C_14  and  C_15
REMARK    4  A    between atoms: C_15  and  N_16
REMARK                            x       y       z     vdW  Elec       q    Type
REMARK                         _______ _______ _______ _____ _____    ______ ____
ROOT
ATOM      1  N   UNL     1       2.020   6.316  19.831  0.00  0.00    +0.000 NA
ATOM      2  C   UNL     1       1.875   5.220  20.807  0.00  0.00    +0.000 C 
ATOM      3  C   UNL     1       2.514   3.866  20.511  0.00  0.00    +0.000 C 
ATOM      4  C   UNL     1       2.188   3.360  19.123  0.00  0.00    +0.000 C 
ATOM      5  N   UNL     1       3.058   3.948  18.131  0.00  0.00    +0.000 N 
ATOM      6  N   UNL     1       3.563   3.160  17.169  0.00  0.00    +0.000 NA
ATOM      7  N   UNL     1       4.397   3.890  16.451  0.00  0.00    +0.000 NA
ATOM      8  C   UNL     1       4.425   5.161  16.974  0.00  0.00    +0.000 A 
ATOM      9  C   UNL     1       3.561   5.219  18.071  0.00  0.00    +0.000 A 
ATOM     10  C   UNL     1       3.276   6.323  19.031  0.00  0.00    +0.000 C 
ENDROOT
BRANCH   1  11
ATOM     11  C   UNL     1       2.016   7.626  20.567  0.00  0.00    +0.000 C 
BRANCH  11  16
ATOM     12  C   UNL     1      -0.679  10.342  20.191  0.00  0.00    +0.000 A 
ATOM     13  C   UNL     1      -0.400  10.715  18.884  0.00  0.00    +0.000 A 
ATOM     14  N   UNL     1       0.602  10.183  18.156  0.00  0.00    +0.000 NA
ATOM     15  C   UNL     1       1.347   9.228  18.763  0.00  0.00    +0.000 A 
ATOM     16  C   UNL     1       1.167   8.780  20.077  0.00  0.00    +0.000 A 
ATOM     17  C   UNL     1       0.118   9.358  20.791  0.00  0.00    +0.000 A 
ENDBRANCH  11  16
ENDBRANCH   1  11
BRANCH   8  18
ATOM     18  C   UNL     1       5.230   6.208  16.262  0.00  0.00    +0.000 C 
BRANCH  18  19
ATOM     19  N   UNL     1       6.681   6.233  16.498  0.00  0.00    +0.000 NA
ATOM     20  C   UNL     1       7.312   4.959  16.839  0.00  0.00    +0.000 C 
ATOM     21  C   UNL     1       7.509   5.025  18.341  0.00  0.00    +0.000 C 
ATOM     22  C   UNL     1       7.830   6.488  18.587  0.00  0.00    +0.000 C 
ATOM     23  C   UNL     1       7.171   7.235  17.433  0.00  0.00    +0.000 C 
ENDBRANCH  18  19
ENDBRANCH   8  18
TORSDOF 4
ENDMDL
MODEL 6
REMARK VINA RESULT:      -7.2      1.912      2.397
REMARK  Name = 
REMARK  4 active torsions:
REMARK  status: ('A' for Active; 'I' for Inactive)
REMARK    1  A    between atoms: C_5  and  C_6
REMARK    2  A    between atoms: C_6  and  N_7
REMARK    3  A    between atoms: C_14  and  C_15
REMARK    4  A    between atoms: C_15  and  N_16
REMARK                            x       y       z     vdW  Elec       q    Type
REMARK                         _______ _______ _______ _____ _____    ______ ____
ROOT
ATOM      1  N   UNL     1       1.684   5.455  19.920  0.00  0.00    +0.000 NA
ATOM      2  C   UNL     1       0.930   4.467  20.716  0.00  0.00    +0.000 C 
ATOM      3  C   UNL     1       1.218   2.980  20.529  0.00  0.00    +0.000 C 
ATOM      4  C   UNL     1       1.222   2.567  19.073  0.00  0.00    +0.000 C 
ATOM      5  N   UNL     1       2.492   2.856  18.448  0.00  0.00    +0.000 N 
ATOM      6  N   UNL     1       3.031   1.937  17.632  0.00  0.00    +0.000 NA
ATOM      7  N   UNL     1       4.221   2.376  17.265  0.00  0.00    +0.000 NA
ATOM      8  C   UNL     1       4.440   3.592  17.867  0.00  0.00    +0.000 A 
ATOM      9  C   UNL     1       3.326   3.921  18.644  0.00  0.00    +0.000 A 
ATOM     10  C   UNL     1       3.076   5.078  19.551  0.00  0.00    +0.000 C 
ENDROOT
BRANCH   1  11
ATOM     11  C   UNL     1       1.818   6.721  20.717  0.00  0.00    +0.000 C 
BRANCH  11  16
ATOM     12  C   UNL     1       0.633  10.280  19.873  0.00  0.00    +0.000 A 
ATOM     13  C   UNL     1       1.129  10.349  18.580  0.00  0.00    +0.000 A 
ATOM     14  N   UNL     1       1.835   9.359  17.999  0.00  0.00    +0.000 NA
ATOM     15  C   UNL     1       2.042   8.248  18.746  0.00  0.00    +0.000 A 
ATOM     16  C   UNL     1       1.600   8.069  20.061  0.00  0.00    +0.000 A 
ATOM     17  C   UNL     1       0.872   9.118  20.620  0.00  0.00    +0.000 A 
ENDBRANCH  11  16
ENDBRANCH   1  11
BRANCH   8  18
ATOM     18  C   UNL     1       5.693   4.343  17.523  0.00  0.00    +0.000 C 
BRANCH  18  19
ATOM     19  N   UNL     1       5.934   5.622  18.207  0.00  0.00    +0.000 NA
ATOM     20  C   UNL     1       6.044   6.809  17.361  0.00  0.00    +0.000 C 
ATOM     21  C   UNL     1       7.535   7.074  17.276  0.00  0.00    +0.000 C 
ATOM     22  C   UNL     1       8.038   6.681  18.653  0.00  0.00    +0.000 C 
ATOM     23  C   UNL     1       7.034   5.652  19.161  0.00  0.00    +0.000 C 
ENDBRANCH  18  19
ENDBRANCH   8  18
TORSDOF 4
ENDMDL
MODEL 7
REMARK VINA RESULT:      -7.1      3.469      5.463
REMARK  Name = 
REMARK  4 active torsions:
REMARK  status: ('A' for Active; 'I' for Inactive)
REMARK    1  A    between atoms: C_5  and  C_6
REMARK    2  A    between atoms: C_6  and  N_7
REMARK    3  A    between atoms: C_14  and  C_15
REMARK    4  A    between atoms: C_15  and  N_16
REMARK                            x       y       z     vdW  Elec       q    Type
REMARK                         _______ _______ _______ _____ _____    ______ ____
ROOT
ATOM      1  N   UNL     1       3.971   4.991  17.859  0.00  0.00    +0.000 NA
ATOM      2  C   UNL     1       3.889   6.438  18.135  0.00  0.00    +0.000 C 
ATOM      3  C   UNL     1       4.779   7.399  17.352  0.00  0.00    +0.000 C 
ATOM      4  C   UNL     1       6.228   6.964  17.332  0.00  0.00    +0.000 C 
ATOM      5  N   UNL     1       6.465   5.970  16.311  0.00  0.00    +0.000 N 
ATOM      6  N   UNL     1       7.568   6.074  15.555  0.00  0.00    +0.000 NA
ATOM      7  N   UNL     1       7.517   5.124  14.639  0.00  0.00    +0.000 NA
ATOM      8  C   UNL     1       6.355   4.411  14.816  0.00  0.00    +0.000 A 
ATOM      9  C   UNL     1       5.654   4.949  15.900  0.00  0.00    +0.000 A 
ATOM     10  C   UNL     1       4.317   4.605  16.464  0.00  0.00    +0.000 C 
ENDROOT
BRANCH   1  11
ATOM     11  C   UNL     1       2.626   4.370  18.116  0.00  0.00    +0.000 C 
BRANCH  11  16
ATOM     12  C   UNL     1       1.004   2.945  21.297  0.00  0.00    +0.000 A 
ATOM     13  C   UNL     1       2.150   2.432  21.887  0.00  0.00    +0.000 A 
ATOM     14  N   UNL     1       3.369   2.483  21.316  0.00  0.00    +0.000 NA
ATOM     15  C   UNL     1       3.442   3.087  20.105  0.00  0.00    +0.000 A 
ATOM     16  C   UNL     1       2.356   3.631  19.410  0.00  0.00    +0.000 A 
ATOM     17  C   UNL     1       1.115   3.556  20.040  0.00  0.00    +0.000 A 
ENDBRANCH  11  16
ENDBRANCH   1  11
BRANCH   8  18
ATOM     18  C   UNL     1       6.117   3.208  13.952  0.00  0.00    +0.000 C 
BRANCH  18  19
ATOM     19  N   UNL     1       6.145   3.397  12.494  0.00  0.00    +0.000 NA
ATOM     20  C   UNL     1       5.170   2.635  11.715  0.00  0.00    +0.000 C 
ATOM     21  C   UNL     1       5.967   1.479  11.141  0.00  0.00    +0.000 C 
ATOM     22  C   UNL     1       7.325   2.096  10.862  0.00  0.00    +0.000 C 
ATOM     23  C   UNL     1       7.440   3.256  11.844  0.00  0.00    +0.000 C 
ENDBRANCH  18  19
ENDBRANCH   8  18
TORSDOF 4
ENDMDL
MODEL 8
REMARK VINA RESULT:      -7.1      2.177      2.486
REMARK  Name = 
REMARK  4 active torsions:
REMARK  status: ('A' for Active; 'I' for Inactive)
REMARK    1  A    between atoms: C_5  and  C_6
REMARK    2  A    between atoms: C_6  and  N_7
REMARK    3  A    between atoms: C_14  and  C_15
REMARK    4  A    between atoms: C_15  and  N_16
REMARK                            x       y       z     vdW  Elec       q    Type
REMARK                         _______ _______ _______ _____ _____    ______ ____
ROOT
ATOM      1  N   UNL     1       2.222   7.623  18.241  0.00  0.00    +0.000 NA
ATOM      2  C   UNL     1       1.869   7.429  19.660  0.00  0.00    +0.000 C 
ATOM      3  C   UNL     1       2.340   6.171  20.383  0.00  0.00    +0.000 C 
ATOM      4  C   UNL     1       2.040   4.907  19.605  0.00  0.00    +0.000 C 
ATOM      5  N   UNL     1       3.043   4.661  18.596  0.00  0.00    +0.000 N 
ATOM      6  N   UNL     1       3.500   3.409  18.435  0.00  0.00    +0.000 NA
ATOM      7  N   UNL     1       4.468   3.448  17.538  0.00  0.00    +0.000 NA
ATOM      8  C   UNL     1       4.631   4.751  17.130  0.00  0.00    +0.000 A 
ATOM      9  C   UNL     1       3.713   5.557  17.810  0.00  0.00    +0.000 A 
ATOM     10  C   UNL     1       3.516   7.035  17.798  0.00  0.00    +0.000 C 
ENDROOT
BRANCH   1  11
ATOM     11  C   UNL     1       2.344   9.095  17.966  0.00  0.00    +0.000 C 
BRANCH  11  16
ATOM     12  C   UNL     1      -1.128  10.739  18.098  0.00  0.00    +0.000 A 
ATOM     13  C   UNL     1      -0.741  11.973  18.598  0.00  0.00    +0.000 A 
ATOM     14  N   UNL     1       0.531  12.280  18.921  0.00  0.00    +0.000 NA
ATOM     15  C   UNL     1       1.454  11.309  18.723  0.00  0.00    +0.000 A 
ATOM     16  C   UNL     1       1.181  10.026  18.235  0.00  0.00    +0.000 A 
ATOM     17  C   UNL     1      -0.148   9.754  17.913  0.00  0.00    +0.000 A 
ENDBRANCH  11  16
ENDBRANCH   1  11
BRANCH   8  18
ATOM     18  C   UNL     1       5.613   5.038  16.033  0.00  0.00    +0.000 C 
BRANCH  18  19
ATOM     19  N   UNL     1       6.979   5.418  16.420  0.00  0.00    +0.000 NA
ATOM     20  C   UNL     1       7.634   4.581  17.423  0.00  0.00    +0.000 C 
ATOM     21  C   UNL     1       7.519   5.374  18.710  0.00  0.00    +0.000 C 
ATOM     22  C   UNL     1       7.660   6.812  18.247  0.00  0.00    +0.000 C 
ATOM     23  C   UNL     1       7.186   6.809  16.799  0.00  0.00    +0.000 C 
ENDBRANCH  18  19
ENDBRANCH   8  18
TORSDOF 4
ENDMDL
MODEL 9
REMARK VINA RESULT:      -7.0      3.175      7.718
REMARK  Name = 
REMARK  4 active torsions:
REMARK  status: ('A' for Active; 'I' for Inactive)
REMARK    1  A    between atoms: C_5  and  C_6
REMARK    2  A    between atoms: C_6  and  N_7
REMARK    3  A    between atoms: C_14  and  C_15
REMARK    4  A    between atoms: C_15  and  N_16
REMARK                            x       y       z     vdW  Elec       q    Type
REMARK                         _______ _______ _______ _____ _____    ______ ____
ROOT
ATOM      1  N   UNL     1       4.712   5.033  16.526  0.00  0.00    +0.000 NA
ATOM      2  C   UNL     1       5.147   6.415  16.250  0.00  0.00    +0.000 C 
ATOM      3  C   UNL     1       4.786   7.524  17.235  0.00  0.00    +0.000 C 
ATOM      4  C   UNL     1       3.319   7.514  17.608  0.00  0.00    +0.000 C 
ATOM      5  N   UNL     1       3.047   6.550  18.648  0.00  0.00    +0.000 N 
ATOM      6  N   UNL     1       2.231   6.900  19.654  0.00  0.00    +0.000 NA
ATOM      7  N   UNL     1       2.214   5.905  20.521  0.00  0.00    +0.000 NA
ATOM      8  C   UNL     1       3.041   4.910  20.058  0.00  0.00    +0.000 A 
ATOM      9  C   UNL     1       3.596   5.312  18.839  0.00  0.00    +0.000 A 
ATOM     10  C   UNL     1       4.603   4.651  17.960  0.00  0.00    +0.000 C 
ENDROOT
BRANCH   1  11
ATOM     11  C   UNL     1       5.716   4.081  15.940  0.00  0.00    +0.000 C 
BRANCH  11  16
ATOM     12  C   UNL     1       6.287   3.635  12.165  0.00  0.00    +0.000 A 
ATOM     13  C   UNL     1       7.341   4.525  12.020  0.00  0.00    +0.000 A 
ATOM     14  N   UNL     1       7.835   5.265  13.033  0.00  0.00    +0.000 NA
ATOM     15  C   UNL     1       7.252   5.095  14.244  0.00  0.00    +0.000 A 
ATOM     16  C   UNL     1       6.179   4.237  14.507  0.00  0.00    +0.000 A 
ATOM     17  C   UNL     1       5.702   3.491  13.431  0.00  0.00    +0.000 A 
ENDBRANCH  11  16
ENDBRANCH   1  11
BRANCH   8  18
ATOM     18  C   UNL     1       3.111   3.624  20.827  0.00  0.00    +0.000 C 
BRANCH  18  19
ATOM     19  N   UNL     1       2.282   2.502  20.363  0.00  0.00    +0.000 NA
ATOM     20  C   UNL     1       2.799   1.725  19.238  0.00  0.00    +0.000 C 
ATOM     21  C   UNL     1       2.016   2.228  18.040  0.00  0.00    +0.000 C 
ATOM     22  C   UNL     1       0.640   2.508  18.616  0.00  0.00    +0.000 C 
ATOM     23  C   UNL     1       0.881   2.797  20.093  0.00  0.00    +0.000 C 
ENDBRANCH  18  19
ENDBRANCH   8  18
TORSDOF 4
ENDMDL
