MODEL 1
REMARK VINA RESULT:      -8.7      0.000      0.000
REMARK  Name = 
REMARK  5 active torsions:
REMARK  status: ('A' for Active; 'I' for Inactive)
REMARK    1  A    between atoms: C_1  and  O_2
REMARK    2  A    between atoms: O_2  and  C_3
REMARK    3  A    between atoms: N_11  and  C_12
REMARK    4  A    between atoms: C_12  and  C_13
REMARK    5  A    between atoms: C_13  and  C_14
REMARK                            x       y       z     vdW  Elec       q    Type
REMARK                         _______ _______ _______ _____ _____    ______ ____
ROOT
ATOM      1  C   UNL     1       6.023   5.654  16.797  0.00  0.00    +0.000 C 
ATOM      2  N   UNL     1       6.118   7.099  16.777  0.00  0.00    +0.000 N 
ATOM      3  C   UNL     1       7.253   7.565  17.385  0.00  0.00    +0.000 C 
ATOM      4  O   UNL     1       7.611   8.727  17.421  0.00  0.00    +0.000 OA
ATOM      5  N   UNL     1       7.909   6.516  17.933  0.00  0.00    +0.000 N 
ATOM      6  C   UNL     1       7.250   5.352  17.680  0.00  0.00    +0.000 C 
ATOM      7  O   UNL     1       7.607   4.251  18.077  0.00  0.00    +0.000 OA
ATOM      8  H   UNL     1       5.500   7.706  16.259  0.00  0.00    +0.000 HD
ATOM      9  H   UNL     1       8.764   6.603  18.453  0.00  0.00    +0.000 HD
ENDROOT
BRANCH   1  10
ATOM     10  C   UNL     1       6.273   5.102  15.427  0.00  0.00    +0.000 A 
ATOM     11  C   UNL     1       5.585   4.221  14.612  0.00  0.00    +0.000 A 
ATOM     12  C   UNL     1       6.369   4.047  13.448  0.00  0.00    +0.000 A 
ATOM     13  C   UNL     1       7.473   4.848  13.606  0.00  0.00    +0.000 A 
ATOM     14  O   UNL     1       7.415   5.508  14.789  0.00  0.00    +0.000 OA
ENDBRANCH   1  10
BRANCH   1  15
ATOM     15  C   UNL     1       4.751   5.106  17.469  0.00  0.00    +0.000 C 
BRANCH  15  24
ATOM     16  C   UNL     1       1.043   9.054  20.167  0.00  0.00    +0.000 A 
ATOM     17  C   UNL     1       1.136   9.748  18.941  0.00  0.00    +0.000 A 
ATOM     18  C   UNL     1       1.898   9.255  17.871  0.00  0.00    +0.000 A 
ATOM     19  C   UNL     1       2.560   8.055  18.045  0.00  0.00    +0.000 A 
ATOM     20  C   UNL     1       2.451   7.379  19.259  0.00  0.00    +0.000 A 
ATOM     21  C   UNL     1       1.714   7.845  20.331  0.00  0.00    +0.000 A 
ATOM     22  C   UNL     1       3.247   6.153  19.175  0.00  0.00    +0.000 C 
ATOM     23  O   UNL     1       3.390   5.351  20.076  0.00  0.00    +0.000 OA
ATOM     24  N   UNL     1       3.798   6.124  17.908  0.00  0.00    +0.000 N 
ATOM     25  C   UNL     1       3.447   7.296  17.115  0.00  0.00    +0.000 C 
BRANCH  16  27
ATOM     26  C   UNL     1       0.517   9.294  22.470  0.00  0.00    +0.000 C 
ATOM     27  O   UNL     1       0.266   9.661  21.116  0.00  0.00    +0.000 OA
ENDBRANCH  16  27
ENDBRANCH  15  24
ENDBRANCH   1  15
TORSDOF 4
ENDMDL
MODEL 2
REMARK VINA RESULT:      -8.5      2.408      7.425
REMARK  Name = 
REMARK  5 active torsions:
REMARK  status: ('A' for Active; 'I' for Inactive)
REMARK    1  A    between atoms: C_1  and  O_2
REMARK    2  A    between atoms: O_2  and  C_3
REMARK    3  A    between atoms: N_11  and  C_12
REMARK    4  A    between atoms: C_12  and  C_13
REMARK    5  A    between atoms: C_13  and  C_14
REMARK                            x       y       z     vdW  Elec       q    Type
REMARK                         _______ _______ _______ _____ _____    ______ ____
ROOT
ATOM      1  C   UNL     1       2.583   4.171  19.784  0.00  0.00    +0.000 C 
ATOM      2  N   UNL     1       1.790   3.572  18.731  0.00  0.00    +0.000 N 
ATOM      3  C   UNL     1       0.808   2.747  19.209  0.00  0.00    +0.000 C 
ATOM      4  O   UNL     1      -0.045   2.199  18.538  0.00  0.00    +0.000 OA
ATOM      5  N   UNL     1       0.944   2.649  20.551  0.00  0.00    +0.000 N 
ATOM      6  C   UNL     1       1.982   3.416  20.986  0.00  0.00    +0.000 C 
ATOM      7  O   UNL     1       2.345   3.497  22.152  0.00  0.00    +0.000 OA
ATOM      8  H   UNL     1       1.848   3.827  17.756  0.00  0.00    +0.000 HD
ATOM      9  H   UNL     1       0.352   2.083  21.133  0.00  0.00    +0.000 HD
ENDROOT
BRANCH   1  10
ATOM     10  C   UNL     1       2.248   5.625  19.918  0.00  0.00    +0.000 A 
ATOM     11  C   UNL     1       2.619   6.759  19.218  0.00  0.00    +0.000 A 
ATOM     12  C   UNL     1       2.012   7.857  19.873  0.00  0.00    +0.000 A 
ATOM     13  C   UNL     1       1.289   7.331  20.915  0.00  0.00    +0.000 A 
ATOM     14  O   UNL     1       1.405   5.980  20.938  0.00  0.00    +0.000 OA
ENDBRANCH   1  10
BRANCH   1  15
ATOM     15  C   UNL     1       4.092   3.884  19.691  0.00  0.00    +0.000 C 
BRANCH  15  24
ATOM     16  C   UNL     1       7.339   5.193  14.756  0.00  0.00    +0.000 A 
ATOM     17  C   UNL     1       6.423   4.336  14.110  0.00  0.00    +0.000 A 
ATOM     18  C   UNL     1       5.372   3.720  14.808  0.00  0.00    +0.000 A 
ATOM     19  C   UNL     1       5.251   3.981  16.159  0.00  0.00    +0.000 A 
ATOM     20  C   UNL     1       6.160   4.836  16.780  0.00  0.00    +0.000 A 
ATOM     21  C   UNL     1       7.207   5.449  16.119  0.00  0.00    +0.000 A 
ATOM     22  C   UNL     1       5.807   4.930  18.197  0.00  0.00    +0.000 C 
ATOM     23  O   UNL     1       6.419   5.574  19.027  0.00  0.00    +0.000 OA
ATOM     24  N   UNL     1       4.689   4.140  18.382  0.00  0.00    +0.000 N 
ATOM     25  C   UNL     1       4.266   3.470  17.157  0.00  0.00    +0.000 C 
BRANCH  16  27
ATOM     26  C   UNL     1       8.119   5.554  12.542  0.00  0.00    +0.000 C 
ATOM     27  O   UNL     1       8.310   5.716  13.945  0.00  0.00    +0.000 OA
ENDBRANCH  16  27
ENDBRANCH  15  24
ENDBRANCH   1  15
TORSDOF 4
ENDMDL
MODEL 3
REMARK VINA RESULT:      -8.3      2.578      7.304
REMARK  Name = 
REMARK  5 active torsions:
REMARK  status: ('A' for Active; 'I' for Inactive)
REMARK    1  A    between atoms: C_1  and  O_2
REMARK    2  A    between atoms: O_2  and  C_3
REMARK    3  A    between atoms: N_11  and  C_12
REMARK    4  A    between atoms: C_12  and  C_13
REMARK    5  A    between atoms: C_13  and  C_14
REMARK                            x       y       z     vdW  Elec       q    Type
REMARK                         _______ _______ _______ _____ _____    ______ ____
ROOT
ATOM      1  C   UNL     1       2.639   4.060  19.824  0.00  0.00    +0.000 C 
ATOM      2  N   UNL     1       1.896   3.452  18.741  0.00  0.00    +0.000 N 
ATOM      3  C   UNL     1       0.827   2.716  19.178  0.00  0.00    +0.000 C 
ATOM      4  O   UNL     1      -0.003   2.183  18.467  0.00  0.00    +0.000 OA
ATOM      5  N   UNL     1       0.848   2.688  20.530  0.00  0.00    +0.000 N 
ATOM      6  C   UNL     1       1.895   3.414  21.009  0.00  0.00    +0.000 C 
ATOM      7  O   UNL     1       2.168   3.540  22.196  0.00  0.00    +0.000 OA
ATOM      8  H   UNL     1       2.049   3.645  17.762  0.00  0.00    +0.000 HD
ATOM      9  H   UNL     1       0.175   2.194  21.088  0.00  0.00    +0.000 HD
ENDROOT
BRANCH   1  10
ATOM     10  C   UNL     1       2.390   5.538  19.853  0.00  0.00    +0.000 A 
ATOM     11  C   UNL     1       1.907   6.407  20.815  0.00  0.00    +0.000 A 
ATOM     12  C   UNL     1       1.848   7.686  20.214  0.00  0.00    +0.000 A 
ATOM     13  C   UNL     1       2.321   7.531  18.934  0.00  0.00    +0.000 A 
ATOM     14  O   UNL     1       2.674   6.241  18.712  0.00  0.00    +0.000 OA
ENDBRANCH   1  10
BRANCH   1  15
ATOM     15  C   UNL     1       4.129   3.678  19.873  0.00  0.00    +0.000 C 
BRANCH  15  24
ATOM     16  C   UNL     1       6.543   4.436  14.377  0.00  0.00    +0.000 A 
ATOM     17  C   UNL     1       7.222   5.510  14.989  0.00  0.00    +0.000 A 
ATOM     18  C   UNL     1       7.049   5.814  16.348  0.00  0.00    +0.000 A 
ATOM     19  C   UNL     1       6.191   5.020  17.085  0.00  0.00    +0.000 A 
ATOM     20  C   UNL     1       5.535   3.957  16.467  0.00  0.00    +0.000 A 
ATOM     21  C   UNL     1       5.681   3.642  15.129  0.00  0.00    +0.000 A 
ATOM     22  C   UNL     1       4.694   3.294  17.464  0.00  0.00    +0.000 C 
ATOM     23  O   UNL     1       3.965   2.346  17.244  0.00  0.00    +0.000 OA
ATOM     24  N   UNL     1       4.881   3.970  18.655  0.00  0.00    +0.000 N 
ATOM     25  C   UNL     1       5.794   5.100  18.521  0.00  0.00    +0.000 C 
BRANCH  16  27
ATOM     26  C   UNL     1       6.019   3.303  12.356  0.00  0.00    +0.000 C 
ATOM     27  O   UNL     1       6.811   4.267  13.045  0.00  0.00    +0.000 OA
ENDBRANCH  16  27
ENDBRANCH  15  24
ENDBRANCH   1  15
TORSDOF 4
ENDMDL
MODEL 4
REMARK VINA RESULT:      -8.3      1.149      1.836
REMARK  Name = 
REMARK  5 active torsions:
REMARK  status: ('A' for Active; 'I' for Inactive)
REMARK    1  A    between atoms: C_1  and  O_2
REMARK    2  A    between atoms: O_2  and  C_3
REMARK    3  A    between atoms: N_11  and  C_12
REMARK    4  A    between atoms: C_12  and  C_13
REMARK    5  A    between atoms: C_13  and  C_14
REMARK                            x       y       z     vdW  Elec       q    Type
REMARK                         _______ _______ _______ _____ _____    ______ ____
ROOT
ATOM      1  C   UNL     1       6.038   5.736  17.007  0.00  0.00    +0.000 C 
ATOM      2  N   UNL     1       6.174   7.177  16.999  0.00  0.00    +0.000 N 
ATOM      3  C   UNL     1       7.315   7.606  17.622  0.00  0.00    +0.000 C 
ATOM      4  O   UNL     1       7.705   8.757  17.671  0.00  0.00    +0.000 OA
ATOM      5  N   UNL     1       7.936   6.536  18.168  0.00  0.00    +0.000 N 
ATOM      6  C   UNL     1       7.247   5.393  17.899  0.00  0.00    +0.000 C 
ATOM      7  O   UNL     1       7.569   4.279  18.291  0.00  0.00    +0.000 OA
ATOM      8  H   UNL     1       5.578   7.806  16.480  0.00  0.00    +0.000 HD
ATOM      9  H   UNL     1       8.788   6.594  18.697  0.00  0.00    +0.000 HD
ENDROOT
BRANCH   1  10
ATOM     10  C   UNL     1       6.286   5.188  15.635  0.00  0.00    +0.000 A 
ATOM     11  C   UNL     1       5.567   4.358  14.793  0.00  0.00    +0.000 A 
ATOM     12  C   UNL     1       6.365   4.154  13.643  0.00  0.00    +0.000 A 
ATOM     13  C   UNL     1       7.510   4.888  13.836  0.00  0.00    +0.000 A 
ATOM     14  O   UNL     1       7.463   5.536  15.027  0.00  0.00    +0.000 OA
ENDBRANCH   1  10
BRANCH   1  15
ATOM     15  C   UNL     1       4.745   5.219  17.661  0.00  0.00    +0.000 C 
BRANCH  15  24
ATOM     16  C   UNL     1       0.888   9.682  19.009  0.00  0.00    +0.000 A 
ATOM     17  C   UNL     1       0.850   9.062  20.276  0.00  0.00    +0.000 A 
ATOM     18  C   UNL     1       1.612   7.919  20.561  0.00  0.00    +0.000 A 
ATOM     19  C   UNL     1       2.416   7.411  19.560  0.00  0.00    +0.000 A 
ATOM     20  C   UNL     1       2.449   8.040  18.317  0.00  0.00    +0.000 A 
ATOM     21  C   UNL     1       1.704   9.162  18.008  0.00  0.00    +0.000 A 
ATOM     22  C   UNL     1       3.368   7.300  17.451  0.00  0.00    +0.000 C 
ATOM     23  O   UNL     1       3.602   7.569  16.289  0.00  0.00    +0.000 OA
ATOM     24  N   UNL     1       3.871   6.257  18.205  0.00  0.00    +0.000 N 
ATOM     25  C   UNL     1       3.314   6.218  19.553  0.00  0.00    +0.000 C 
BRANCH  16  27
ATOM     26  C   UNL     1      -1.189  10.578  18.286  0.00  0.00    +0.000 C 
ATOM     27  O   UNL     1       0.088  10.787  18.883  0.00  0.00    +0.000 OA
ENDBRANCH  16  27
ENDBRANCH  15  24
ENDBRANCH   1  15
TORSDOF 4
ENDMDL
MODEL 5
REMARK VINA RESULT:      -8.1      2.535      3.918
REMARK  Name = 
REMARK  5 active torsions:
REMARK  status: ('A' for Active; 'I' for Inactive)
REMARK    1  A    between atoms: C_1  and  O_2
REMARK    2  A    between atoms: O_2  and  C_3
REMARK    3  A    between atoms: N_11  and  C_12
REMARK    4  A    between atoms: C_12  and  C_13
REMARK    5  A    between atoms: C_13  and  C_14
REMARK                            x       y       z     vdW  Elec       q    Type
REMARK                         _______ _______ _______ _____ _____    ______ ____
ROOT
ATOM      1  C   UNL     1       4.398   4.971  18.318  0.00  0.00    +0.000 C 
ATOM      2  N   UNL     1       4.056   4.408  19.608  0.00  0.00    +0.000 N 
ATOM      3  C   UNL     1       4.134   3.042  19.629  0.00  0.00    +0.000 C 
ATOM      4  O   UNL     1       3.986   2.339  20.610  0.00  0.00    +0.000 OA
ATOM      5  N   UNL     1       4.409   2.608  18.377  0.00  0.00    +0.000 N 
ATOM      6  C   UNL     1       4.544   3.659  17.523  0.00  0.00    +0.000 C 
ATOM      7  O   UNL     1       4.771   3.556  16.325  0.00  0.00    +0.000 OA
ATOM      8  H   UNL     1       3.907   4.949  20.447  0.00  0.00    +0.000 HD
ATOM      9  H   UNL     1       4.498   1.638  18.130  0.00  0.00    +0.000 HD
ENDROOT
BRANCH   1  10
ATOM     10  C   UNL     1       5.737   5.640  18.386  0.00  0.00    +0.000 A 
ATOM     11  C   UNL     1       6.342   6.644  17.651  0.00  0.00    +0.000 A 
ATOM     12  C   UNL     1       7.650   6.794  18.168  0.00  0.00    +0.000 A 
ATOM     13  C   UNL     1       7.760   5.895  19.200  0.00  0.00    +0.000 A 
ATOM     14  O   UNL     1       6.602   5.207  19.356  0.00  0.00    +0.000 OA
ENDBRANCH   1  10
BRANCH   1  15
ATOM     15  C   UNL     1       3.297   5.841  17.687  0.00  0.00    +0.000 C 
BRANCH  15  24
ATOM     16  C   UNL     1       0.579  10.394  20.604  0.00  0.00    +0.000 A 
ATOM     17  C   UNL     1       0.518   9.473  21.672  0.00  0.00    +0.000 A 
ATOM     18  C   UNL     1       1.046   8.178  21.560  0.00  0.00    +0.000 A 
ATOM     19  C   UNL     1       1.642   7.823  20.365  0.00  0.00    +0.000 A 
ATOM     20  C   UNL     1       1.701   8.746  19.323  0.00  0.00    +0.000 A 
ATOM     21  C   UNL     1       1.182  10.024  19.404  0.00  0.00    +0.000 A 
ATOM     22  C   UNL     1       2.371   8.114  18.186  0.00  0.00    +0.000 C 
ATOM     23  O   UNL     1       2.558   8.639  17.106  0.00  0.00    +0.000 OA
ATOM     24  N   UNL     1       2.706   6.834  18.584  0.00  0.00    +0.000 N 
ATOM     25  C   UNL     1       2.268   6.535  19.942  0.00  0.00    +0.000 C 
BRANCH  16  27
ATOM     26  C   UNL     1      -1.254  11.867  20.273  0.00  0.00    +0.000 C 
ATOM     27  O   UNL     1       0.019  11.616  20.863  0.00  0.00    +0.000 OA
ENDBRANCH  16  27
ENDBRANCH  15  24
ENDBRANCH   1  15
TORSDOF 4
ENDMDL
MODEL 6
REMARK VINA RESULT:      -7.8      2.536      4.147
REMARK  Name = 
REMARK  5 active torsions:
REMARK  status: ('A' for Active; 'I' for Inactive)
REMARK    1  A    between atoms: C_1  and  O_2
REMARK    2  A    between atoms: O_2  and  C_3
REMARK    3  A    between atoms: N_11  and  C_12
REMARK    4  A    between atoms: C_12  and  C_13
REMARK    5  A    between atoms: C_13  and  C_14
REMARK                            x       y       z     vdW  Elec       q    Type
REMARK                         _______ _______ _______ _____ _____    ______ ____
ROOT
ATOM      1  C   UNL     1       3.729   4.677  18.535  0.00  0.00    +0.000 C 
ATOM      2  N   UNL     1       3.827   4.995  17.127  0.00  0.00    +0.000 N 
ATOM      3  C   UNL     1       4.809   4.285  16.489  0.00  0.00    +0.000 C 
ATOM      4  O   UNL     1       5.032   4.302  15.294  0.00  0.00    +0.000 OA
ATOM      5  N   UNL     1       5.483   3.561  17.411  0.00  0.00    +0.000 N 
ATOM      6  C   UNL     1       4.954   3.749  18.651  0.00  0.00    +0.000 C 
ATOM      7  O   UNL     1       5.383   3.234  19.675  0.00  0.00    +0.000 OA
ATOM      8  H   UNL     1       3.167   5.569  16.622  0.00  0.00    +0.000 HD
ATOM      9  H   UNL     1       6.266   2.969  17.193  0.00  0.00    +0.000 HD
ENDROOT
BRANCH   1  10
ATOM     10  C   UNL     1       2.493   3.870  18.797  0.00  0.00    +0.000 A 
ATOM     11  C   UNL     1       1.592   3.212  17.981  0.00  0.00    +0.000 A 
ATOM     12  C   UNL     1       0.591   2.678  18.827  0.00  0.00    +0.000 A 
ATOM     13  C   UNL     1       0.951   3.018  20.108  0.00  0.00    +0.000 A 
ATOM     14  O   UNL     1       2.112   3.719  20.104  0.00  0.00    +0.000 OA
ENDBRANCH   1  10
BRANCH   1  15
ATOM     15  C   UNL     1       3.898   5.882  19.477  0.00  0.00    +0.000 C 
BRANCH  15  24
ATOM     16  C   UNL     1      -0.240  10.293  19.660  0.00  0.00    +0.000 A 
ATOM     17  C   UNL     1       0.294  10.640  18.401  0.00  0.00    +0.000 A 
ATOM     18  C   UNL     1       1.334   9.904  17.814  0.00  0.00    +0.000 A 
ATOM     19  C   UNL     1       1.826   8.813  18.504  0.00  0.00    +0.000 A 
ATOM     20  C   UNL     1       1.281   8.479  19.742  0.00  0.00    +0.000 A 
ATOM     21  C   UNL     1       0.262   9.190  20.347  0.00  0.00    +0.000 A 
ATOM     22  C   UNL     1       1.983   7.299  20.249  0.00  0.00    +0.000 C 
ATOM     23  O   UNL     1       1.770   6.767  21.322  0.00  0.00    +0.000 OA
ATOM     24  N   UNL     1       2.918   6.951  19.293  0.00  0.00    +0.000 N 
ATOM     25  C   UNL     1       2.921   7.861  18.154  0.00  0.00    +0.000 C 
BRANCH  16  27
ATOM     26  C   UNL     1      -1.523  12.261  19.316  0.00  0.00    +0.000 C 
ATOM     27  O   UNL     1      -1.249  11.106  20.104  0.00  0.00    +0.000 OA
ENDBRANCH  16  27
ENDBRANCH  15  24
ENDBRANCH   1  15
TORSDOF 4
ENDMDL
MODEL 7
REMARK VINA RESULT:      -7.7      2.555      4.494
REMARK  Name = 
REMARK  5 active torsions:
REMARK  status: ('A' for Active; 'I' for Inactive)
REMARK    1  A    between atoms: C_1  and  O_2
REMARK    2  A    between atoms: O_2  and  C_3
REMARK    3  A    between atoms: N_11  and  C_12
REMARK    4  A    between atoms: C_12  and  C_13
REMARK    5  A    between atoms: C_13  and  C_14
REMARK                            x       y       z     vdW  Elec       q    Type
REMARK                         _______ _______ _______ _____ _____    ______ ____
ROOT
ATOM      1  C   UNL     1       3.734   4.679  18.614  0.00  0.00    +0.000 C 
ATOM      2  N   UNL     1       3.785   5.006  17.205  0.00  0.00    +0.000 N 
ATOM      3  C   UNL     1       4.673   4.227  16.512  0.00  0.00    +0.000 C 
ATOM      4  O   UNL     1       4.836   4.240  15.307  0.00  0.00    +0.000 OA
ATOM      5  N   UNL     1       5.333   3.440  17.392  0.00  0.00    +0.000 N 
ATOM      6  C   UNL     1       4.884   3.656  18.659  0.00  0.00    +0.000 C 
ATOM      7  O   UNL     1       5.322   3.096  19.656  0.00  0.00    +0.000 OA
ATOM      8  H   UNL     1       3.149   5.637  16.740  0.00  0.00    +0.000 HD
ATOM      9  H   UNL     1       6.053   2.791  17.129  0.00  0.00    +0.000 HD
ENDROOT
BRANCH   1  10
ATOM     10  C   UNL     1       2.452   3.971  18.933  0.00  0.00    +0.000 A 
ATOM     11  C   UNL     1       1.390   3.527  18.167  0.00  0.00    +0.000 A 
ATOM     12  C   UNL     1       0.441   2.982  19.064  0.00  0.00    +0.000 A 
ATOM     13  C   UNL     1       0.986   3.102  20.318  0.00  0.00    +0.000 A 
ATOM     14  O   UNL     1       2.213   3.677  20.250  0.00  0.00    +0.000 OA
ENDBRANCH   1  10
BRANCH   1  15
ATOM     15  C   UNL     1       4.047   5.856  19.556  0.00  0.00    +0.000 C 
BRANCH  15  24
ATOM     16  C   UNL     1      -0.051  10.216  18.652  0.00  0.00    +0.000 A 
ATOM     17  C   UNL     1      -0.471   9.882  19.956  0.00  0.00    +0.000 A 
ATOM     18  C   UNL     1       0.171   8.884  20.706  0.00  0.00    +0.000 A 
ATOM     19  C   UNL     1       1.244   8.232  20.130  0.00  0.00    +0.000 A 
ATOM     20  C   UNL     1       1.652   8.580  18.844  0.00  0.00    +0.000 A 
ATOM     21  C   UNL     1       1.033   9.553  18.082  0.00  0.00    +0.000 A 
ATOM     22  C   UNL     1       2.793   7.739  18.481  0.00  0.00    +0.000 C 
ATOM     23  O   UNL     1       3.370   7.768  17.411  0.00  0.00    +0.000 OA
ATOM     24  N   UNL     1       3.045   6.921  19.566  0.00  0.00    +0.000 N 
ATOM     25  C   UNL     1       2.104   7.133  20.660  0.00  0.00    +0.000 C 
BRANCH  16  27
ATOM     26  C   UNL     1      -2.059  10.837  17.548  0.00  0.00    +0.000 C 
ATOM     27  O   UNL     1      -0.777  11.207  18.047  0.00  0.00    +0.000 OA
ENDBRANCH  16  27
ENDBRANCH  15  24
ENDBRANCH   1  15
TORSDOF 4
ENDMDL
MODEL 8
REMARK VINA RESULT:      -7.6      1.760      2.461
REMARK  Name = 
REMARK  5 active torsions:
REMARK  status: ('A' for Active; 'I' for Inactive)
REMARK    1  A    between atoms: C_1  and  O_2
REMARK    2  A    between atoms: O_2  and  C_3
REMARK    3  A    between atoms: N_11  and  C_12
REMARK    4  A    between atoms: C_12  and  C_13
REMARK    5  A    between atoms: C_13  and  C_14
REMARK                            x       y       z     vdW  Elec       q    Type
REMARK                         _______ _______ _______ _____ _____    ______ ____
ROOT
ATOM      1  C   UNL     1       4.791   5.003  17.273  0.00  0.00    +0.000 C 
ATOM      2  N   UNL     1       5.581   5.812  18.176  0.00  0.00    +0.000 N 
ATOM      3  C   UNL     1       6.108   5.091  19.213  0.00  0.00    +0.000 C 
ATOM      4  O   UNL     1       6.879   5.516  20.052  0.00  0.00    +0.000 OA
ATOM      5  N   UNL     1       5.632   3.827  19.143  0.00  0.00    +0.000 N 
ATOM      6  C   UNL     1       4.817   3.680  18.062  0.00  0.00    +0.000 C 
ATOM      7  O   UNL     1       4.230   2.646  17.770  0.00  0.00    +0.000 OA
ATOM      8  H   UNL     1       5.841   6.773  18.005  0.00  0.00    +0.000 HD
ATOM      9  H   UNL     1       5.858   3.107  19.807  0.00  0.00    +0.000 HD
ENDROOT
BRANCH   1  10
ATOM     10  C   UNL     1       5.525   4.803  15.982  0.00  0.00    +0.000 A 
ATOM     11  C   UNL     1       5.381   3.920  14.927  0.00  0.00    +0.000 A 
ATOM     12  C   UNL     1       6.429   4.197  14.019  0.00  0.00    +0.000 A 
ATOM     13  C   UNL     1       7.135   5.245  14.556  0.00  0.00    +0.000 A 
ATOM     14  O   UNL     1       6.584   5.635  15.732  0.00  0.00    +0.000 OA
ENDBRANCH   1  10
BRANCH   1  15
ATOM     15  C   UNL     1       3.336   5.474  17.097  0.00  0.00    +0.000 C 
BRANCH  15  24
ATOM     16  C   UNL     1       1.037   9.718  20.746  0.00  0.00    +0.000 A 
ATOM     17  C   UNL     1       0.935   8.655  21.668  0.00  0.00    +0.000 A 
ATOM     18  C   UNL     1       1.363   7.358  21.348  0.00  0.00    +0.000 A 
ATOM     19  C   UNL     1       1.900   7.144  20.094  0.00  0.00    +0.000 A 
ATOM     20  C   UNL     1       2.001   8.206  19.198  0.00  0.00    +0.000 A 
ATOM     21  C   UNL     1       1.581   9.491  19.484  0.00  0.00    +0.000 A 
ATOM     22  C   UNL     1       2.594   7.706  17.956  0.00  0.00    +0.000 C 
ATOM     23  O   UNL     1       2.792   8.373  16.959  0.00  0.00    +0.000 OA
ATOM     24  N   UNL     1       2.843   6.361  18.150  0.00  0.00    +0.000 N 
ATOM     25  C   UNL     1       2.419   5.894  19.464  0.00  0.00    +0.000 C 
BRANCH  16  27
ATOM     26  C   UNL     1      -0.417  10.878  22.223  0.00  0.00    +0.000 C 
ATOM     27  O   UNL     1       0.575  10.924  21.202  0.00  0.00    +0.000 OA
ENDBRANCH  16  27
ENDBRANCH  15  24
ENDBRANCH   1  15
TORSDOF 4
ENDMDL
MODEL 9
REMARK VINA RESULT:      -7.5      2.547      3.490
REMARK  Name = 
REMARK  5 active torsions:
REMARK  status: ('A' for Active; 'I' for Inactive)
REMARK    1  A    between atoms: C_1  and  O_2
REMARK    2  A    between atoms: O_2  and  C_3
REMARK    3  A    between atoms: N_11  and  C_12
REMARK    4  A    between atoms: C_12  and  C_13
REMARK    5  A    between atoms: C_13  and  C_14
REMARK                            x       y       z     vdW  Elec       q    Type
REMARK                         _______ _______ _______ _____ _____    ______ ____
ROOT
ATOM      1  C   UNL     1       4.036   4.776  18.276  0.00  0.00    +0.000 C 
ATOM      2  N   UNL     1       4.072   4.286  19.638  0.00  0.00    +0.000 N 
ATOM      3  C   UNL     1       4.461   2.976  19.720  0.00  0.00    +0.000 C 
ATOM      4  O   UNL     1       4.658   2.359  20.750  0.00  0.00    +0.000 OA
ATOM      5  N   UNL     1       4.595   2.487  18.466  0.00  0.00    +0.000 N 
ATOM      6  C   UNL     1       4.330   3.452  17.544  0.00  0.00    +0.000 C 
ATOM      7  O   UNL     1       4.352   3.281  16.332  0.00  0.00    +0.000 OA
ATOM      8  H   UNL     1       3.959   4.864  20.458  0.00  0.00    +0.000 HD
ATOM      9  H   UNL     1       4.855   1.539  18.262  0.00  0.00    +0.000 HD
ENDROOT
BRANCH   1  10
ATOM     10  C   UNL     1       5.178   5.717  18.037  0.00  0.00    +0.000 A 
ATOM     11  C   UNL     1       5.348   6.828  17.230  0.00  0.00    +0.000 A 
ATOM     12  C   UNL     1       6.685   7.255  17.402  0.00  0.00    +0.000 A 
ATOM     13  C   UNL     1       7.246   6.400  18.320  0.00  0.00    +0.000 A 
ATOM     14  O   UNL     1       6.337   5.480  18.728  0.00  0.00    +0.000 OA
ENDBRANCH   1  10
BRANCH   1  15
ATOM     15  C   UNL     1       2.670   5.327  17.829  0.00  0.00    +0.000 C 
BRANCH  15  24
ATOM     16  C   UNL     1       0.937   9.595  21.752  0.00  0.00    +0.000 A 
ATOM     17  C   UNL     1       1.085  10.458  20.646  0.00  0.00    +0.000 A 
ATOM     18  C   UNL     1       1.477   9.982  19.385  0.00  0.00    +0.000 A 
ATOM     19  C   UNL     1       1.711   8.627  19.250  0.00  0.00    +0.000 A 
ATOM     20  C   UNL     1       1.552   7.787  20.350  0.00  0.00    +0.000 A 
ATOM     21  C   UNL     1       1.175   8.231  21.603  0.00  0.00    +0.000 A 
ATOM     22  C   UNL     1       1.865   6.420  19.933  0.00  0.00    +0.000 C 
ATOM     23  O   UNL     1       1.854   5.447  20.663  0.00  0.00    +0.000 OA
ATOM     24  N   UNL     1       2.190   6.478  18.591  0.00  0.00    +0.000 N 
ATOM     25  C   UNL     1       2.148   7.836  18.062  0.00  0.00    +0.000 C 
BRANCH  16  27
ATOM     26  C   UNL     1      -0.847  10.406  23.094  0.00  0.00    +0.000 C 
ATOM     27  O   UNL     1       0.553  10.208  22.915  0.00  0.00    +0.000 OA
ENDBRANCH  16  27
ENDBRANCH  15  24
ENDBRANCH   1  15
TORSDOF 4
ENDMDL
