MODEL 1
REMARK VINA RESULT:      -8.6      0.000      0.000
REMARK  Name = 
REMARK  8 active torsions:
REMARK  status: ('A' for Active; 'I' for Inactive)
REMARK    1  A    between atoms: C_1  and  O_2
REMARK    2  A    between atoms: O_2  and  C_3
REMARK    3  A    between atoms: C_7  and  C_8
REMARK    4  A    between atoms: C_12  and  C_13
REMARK    5  A    between atoms: N_19  and  C_20
REMARK    6  A    between atoms: C_20  and  C_21
REMARK    7  A    between atoms: C_24  and  O_25
REMARK    8  A    between atoms: O_25  and  C_26
REMARK                            x       y       z     vdW  Elec       q    Type
REMARK                         _______ _______ _______ _____ _____    ______ ____
ROOT
ATOM      1  C   UNL     1       4.022   4.043  19.774  0.00  0.00    +0.000 C 
ATOM      2  C   UNL     1       3.534   2.598  19.960  0.00  0.00    +0.000 C 
ATOM      3  C   UNL     1       2.732   2.502  21.240  0.00  0.00    +0.000 C 
ATOM      4  C   UNL     1       1.522   3.399  21.123  0.00  0.00    +0.000 C 
ATOM      5  C   UNL     1       1.815   4.827  20.700  0.00  0.00    +0.000 C 
ATOM      6  O   UNL     1       0.964   5.671  20.977  0.00  0.00    +0.000 OA
ATOM      7  N   UNL     1       2.970   5.080  19.963  0.00  0.00    +0.000 N 
ENDROOT
BRANCH   1  13
ATOM      8  C   UNL     1       6.191   4.671  18.513  0.00  0.00    +0.000 A 
ATOM      9  C   UNL     1       6.982   4.668  17.356  0.00  0.00    +0.000 A 
ATOM     10  C   UNL     1       6.451   4.294  16.132  0.00  0.00    +0.000 A 
ATOM     11  C   UNL     1       5.117   3.917  16.054  0.00  0.00    +0.000 A 
ATOM     12  C   UNL     1       4.301   3.870  17.206  0.00  0.00    +0.000 A 
ATOM     13  C   UNL     1       4.851   4.211  18.480  0.00  0.00    +0.000 A 
BRANCH  12  14
ATOM     14  C   UNL     1       2.850   3.473  17.007  0.00  0.00    +0.000 C 
ATOM     15  F   UNL     1       1.962   4.411  17.446  0.00  0.00    +0.000 F 
ATOM     16  F   UNL     1       2.530   3.256  15.704  0.00  0.00    +0.000 F 
ATOM     17  F   UNL     1       2.529   2.328  17.672  0.00  0.00    +0.000 F 
ENDBRANCH  12  14
BRANCH   8  19
ATOM     18  C   UNL     1       7.985   5.742  19.605  0.00  0.00    +0.000 C 
ATOM     19  O   UNL     1       6.712   5.095  19.710  0.00  0.00    +0.000 OA
ENDBRANCH   8  19
ENDBRANCH   1  13
BRANCH   7  20
ATOM     20  C   UNL     1       3.393   6.465  19.675  0.00  0.00    +0.000 C 
BRANCH  20  21
ATOM     21  C   UNL     1       2.412   7.542  19.284  0.00  0.00    +0.000 A 
ATOM     22  C   UNL     1       1.697   8.257  20.257  0.00  0.00    +0.000 A 
ATOM     23  C   UNL     1       0.886   9.335  19.890  0.00  0.00    +0.000 A 
ATOM     24  C   UNL     1       0.782   9.718  18.551  0.00  0.00    +0.000 A 
ATOM     25  C   UNL     1       1.414   8.954  17.573  0.00  0.00    +0.000 A 
ATOM     26  C   UNL     1       2.237   7.884  17.938  0.00  0.00    +0.000 A 
BRANCH  24  27
ATOM     27  O   UNL     1      -0.010  10.800  18.307  0.00  0.00    +0.000 OA
BRANCH  27  28
ATOM     28  C   UNL     1      -1.352  10.577  17.889  0.00  0.00    +0.000 C 
ATOM     29  F   UNL     1      -1.520   9.528  17.057  0.00  0.00    +0.000 F 
ATOM     30  F   UNL     1      -2.129  10.389  18.978  0.00  0.00    +0.000 F 
ATOM     31  F   UNL     1      -1.794  11.683  17.248  0.00  0.00    +0.000 F 
ENDBRANCH  27  28
ENDBRANCH  24  27
ENDBRANCH  20  21
ENDBRANCH   7  20
TORSDOF 7
ENDMDL
MODEL 2
REMARK VINA RESULT:      -8.3      1.103      1.453
REMARK  Name = 
REMARK  8 active torsions:
REMARK  status: ('A' for Active; 'I' for Inactive)
REMARK    1  A    between atoms: C_1  and  O_2
REMARK    2  A    between atoms: O_2  and  C_3
REMARK    3  A    between atoms: C_7  and  C_8
REMARK    4  A    between atoms: C_12  and  C_13
REMARK    5  A    between atoms: N_19  and  C_20
REMARK    6  A    between atoms: C_20  and  C_21
REMARK    7  A    between atoms: C_24  and  O_25
REMARK    8  A    between atoms: O_25  and  C_26
REMARK                            x       y       z     vdW  Elec       q    Type
REMARK                         _______ _______ _______ _____ _____    ______ ____
ROOT
ATOM      1  C   UNL     1       4.066   4.026  19.709  0.00  0.00    +0.000 C 
ATOM      2  C   UNL     1       3.586   2.584  19.930  0.00  0.00    +0.000 C 
ATOM      3  C   UNL     1       2.831   2.503  21.239  0.00  0.00    +0.000 C 
ATOM      4  C   UNL     1       1.618   3.398  21.156  0.00  0.00    +0.000 C 
ATOM      5  C   UNL     1       1.893   4.821  20.705  0.00  0.00    +0.000 C 
ATOM      6  O   UNL     1       1.052   5.668  21.004  0.00  0.00    +0.000 OA
ATOM      7  N   UNL     1       3.020   5.065  19.924  0.00  0.00    +0.000 N 
ENDROOT
BRANCH   1  13
ATOM      8  C   UNL     1       6.195   4.617  18.365  0.00  0.00    +0.000 A 
ATOM      9  C   UNL     1       6.941   4.599  17.178  0.00  0.00    +0.000 A 
ATOM     10  C   UNL     1       6.357   4.233  15.976  0.00  0.00    +0.000 A 
ATOM     11  C   UNL     1       5.015   3.879  15.951  0.00  0.00    +0.000 A 
ATOM     12  C   UNL     1       4.243   3.847  17.133  0.00  0.00    +0.000 A 
ATOM     13  C   UNL     1       4.847   4.179  18.384  0.00  0.00    +0.000 A 
BRANCH  12  14
ATOM     14  C   UNL     1       2.778   3.474  16.991  0.00  0.00    +0.000 C 
ATOM     15  F   UNL     1       2.426   2.366  17.703  0.00  0.00    +0.000 F 
ATOM     16  F   UNL     1       1.935   4.455  17.409  0.00  0.00    +0.000 F 
ATOM     17  F   UNL     1       2.434   3.203  15.701  0.00  0.00    +0.000 F 
ENDBRANCH  12  14
BRANCH   8  19
ATOM     18  C   UNL     1       7.952   5.821  19.373  0.00  0.00    +0.000 C 
ATOM     19  O   UNL     1       6.769   5.033  19.540  0.00  0.00    +0.000 OA
ENDBRANCH   8  19
ENDBRANCH   1  13
BRANCH   7  20
ATOM     20  C   UNL     1       3.432   6.447  19.604  0.00  0.00    +0.000 C 
BRANCH  20  21
ATOM     21  C   UNL     1       2.433   7.529  19.277  0.00  0.00    +0.000 A 
ATOM     22  C   UNL     1       1.754   8.218  20.294  0.00  0.00    +0.000 A 
ATOM     23  C   UNL     1       0.925   9.301  19.983  0.00  0.00    +0.000 A 
ATOM     24  C   UNL     1       0.769   9.716  18.659  0.00  0.00    +0.000 A 
ATOM     25  C   UNL     1       1.366   8.977  17.640  0.00  0.00    +0.000 A 
ATOM     26  C   UNL     1       2.205   7.903  17.947  0.00  0.00    +0.000 A 
BRANCH  24  27
ATOM     27  O   UNL     1      -0.035  10.800  18.472  0.00  0.00    +0.000 OA
BRANCH  27  28
ATOM     28  C   UNL     1       0.469  12.084  18.820  0.00  0.00    +0.000 C 
ATOM     29  F   UNL     1       0.291  12.434  20.112  0.00  0.00    +0.000 F 
ATOM     30  F   UNL     1       1.790  12.132  18.541  0.00  0.00    +0.000 F 
ATOM     31  F   UNL     1      -0.151  13.013  18.056  0.00  0.00    +0.000 F 
ENDBRANCH  27  28
ENDBRANCH  24  27
ENDBRANCH  20  21
ENDBRANCH   7  20
TORSDOF 7
ENDMDL
MODEL 3
REMARK VINA RESULT:      -8.2      0.381      1.159
REMARK  Name = 
REMARK  8 active torsions:
REMARK  status: ('A' for Active; 'I' for Inactive)
REMARK    1  A    between atoms: C_1  and  O_2
REMARK    2  A    between atoms: O_2  and  C_3
REMARK    3  A    between atoms: C_7  and  C_8
REMARK    4  A    between atoms: C_12  and  C_13
REMARK    5  A    between atoms: N_19  and  C_20
REMARK    6  A    between atoms: C_20  and  C_21
REMARK    7  A    between atoms: C_24  and  O_25
REMARK    8  A    between atoms: O_25  and  C_26
REMARK                            x       y       z     vdW  Elec       q    Type
REMARK                         _______ _______ _______ _____ _____    ______ ____
ROOT
ATOM      1  C   UNL     1       3.890   4.146  19.754  0.00  0.00    +0.000 C 
ATOM      2  C   UNL     1       3.327   2.731  19.959  0.00  0.00    +0.000 C 
ATOM      3  C   UNL     1       2.506   2.699  21.230  0.00  0.00    +0.000 C 
ATOM      4  C   UNL     1       1.345   3.653  21.082  0.00  0.00    +0.000 C 
ATOM      5  C   UNL     1       1.714   5.057  20.637  0.00  0.00    +0.000 C 
ATOM      6  O   UNL     1       0.904   5.948  20.889  0.00  0.00    +0.000 OA
ATOM      7  N   UNL     1       2.889   5.238  19.911  0.00  0.00    +0.000 N 
ENDROOT
BRANCH   1  13
ATOM      8  C   UNL     1       6.094   4.672  18.506  0.00  0.00    +0.000 A 
ATOM      9  C   UNL     1       6.901   4.609  17.362  0.00  0.00    +0.000 A 
ATOM     10  C   UNL     1       6.377   4.211  16.143  0.00  0.00    +0.000 A 
ATOM     11  C   UNL     1       5.034   3.869  16.057  0.00  0.00    +0.000 A 
ATOM     12  C   UNL     1       4.201   3.882  17.197  0.00  0.00    +0.000 A 
ATOM     13  C   UNL     1       4.741   4.249  18.467  0.00  0.00    +0.000 A 
BRANCH  12  14
ATOM     14  C   UNL     1       2.741   3.520  16.989  0.00  0.00    +0.000 C 
ATOM     15  F   UNL     1       2.360   2.390  17.651  0.00  0.00    +0.000 F 
ATOM     16  F   UNL     1       1.886   4.489  17.409  0.00  0.00    +0.000 F 
ATOM     17  F   UNL     1       2.444   3.293  15.680  0.00  0.00    +0.000 F 
ENDBRANCH  12  14
BRANCH   8  19
ATOM     18  C   UNL     1       7.891   5.748  19.587  0.00  0.00    +0.000 C 
ATOM     19  O   UNL     1       6.609   5.120  19.697  0.00  0.00    +0.000 OA
ENDBRANCH   8  19
ENDBRANCH   1  13
BRANCH   7  20
ATOM     20  C   UNL     1       3.385   6.594  19.604  0.00  0.00    +0.000 C 
BRANCH  20  21
ATOM     21  C   UNL     1       2.459   7.727  19.237  0.00  0.00    +0.000 A 
ATOM     22  C   UNL     1       2.189   8.036  17.895  0.00  0.00    +0.000 A 
ATOM     23  C   UNL     1       1.235   9.004  17.570  0.00  0.00    +0.000 A 
ATOM     24  C   UNL     1       0.531   9.671  18.575  0.00  0.00    +0.000 A 
ATOM     25  C   UNL     1       0.862   9.435  19.908  0.00  0.00    +0.000 A 
ATOM     26  C   UNL     1       1.806   8.458  20.237  0.00  0.00    +0.000 A 
BRANCH  24  27
ATOM     27  O   UNL     1      -0.397  10.571  18.147  0.00  0.00    +0.000 OA
BRANCH  27  28
ATOM     28  C   UNL     1      -1.698  10.097  17.818  0.00  0.00    +0.000 C 
ATOM     29  F   UNL     1      -1.805   9.533  16.597  0.00  0.00    +0.000 F 
ATOM     30  F   UNL     1      -2.087   9.193  18.744  0.00  0.00    +0.000 F 
ATOM     31  F   UNL     1      -2.561  11.138  17.865  0.00  0.00    +0.000 F 
ENDBRANCH  27  28
ENDBRANCH  24  27
ENDBRANCH  20  21
ENDBRANCH   7  20
TORSDOF 7
ENDMDL
MODEL 4
REMARK VINA RESULT:      -8.0      0.855      1.473
REMARK  Name = 
REMARK  8 active torsions:
REMARK  status: ('A' for Active; 'I' for Inactive)
REMARK    1  A    between atoms: C_1  and  O_2
REMARK    2  A    between atoms: O_2  and  C_3
REMARK    3  A    between atoms: C_7  and  C_8
REMARK    4  A    between atoms: C_12  and  C_13
REMARK    5  A    between atoms: N_19  and  C_20
REMARK    6  A    between atoms: C_20  and  C_21
REMARK    7  A    between atoms: C_24  and  O_25
REMARK    8  A    between atoms: O_25  and  C_26
REMARK                            x       y       z     vdW  Elec       q    Type
REMARK                         _______ _______ _______ _____ _____    ______ ____
ROOT
ATOM      1  C   UNL     1       3.959   4.119  19.758  0.00  0.00    +0.000 C 
ATOM      2  C   UNL     1       3.434   2.692  19.976  0.00  0.00    +0.000 C 
ATOM      3  C   UNL     1       2.628   2.646  21.257  0.00  0.00    +0.000 C 
ATOM      4  C   UNL     1       1.442   3.570  21.117  0.00  0.00    +0.000 C 
ATOM      5  C   UNL     1       1.771   4.980  20.661  0.00  0.00    +0.000 C 
ATOM      6  O   UNL     1       0.941   5.852  20.917  0.00  0.00    +0.000 OA
ATOM      7  N   UNL     1       2.933   5.187  19.920  0.00  0.00    +0.000 N 
ENDROOT
BRANCH   1  13
ATOM      8  C   UNL     1       6.141   4.675  18.485  0.00  0.00    +0.000 A 
ATOM      9  C   UNL     1       6.935   4.625  17.331  0.00  0.00    +0.000 A 
ATOM     10  C   UNL     1       6.400   4.225  16.116  0.00  0.00    +0.000 A 
ATOM     11  C   UNL     1       5.060   3.868  16.046  0.00  0.00    +0.000 A 
ATOM     12  C   UNL     1       4.241   3.868  17.197  0.00  0.00    +0.000 A 
ATOM     13  C   UNL     1       4.793   4.236  18.461  0.00  0.00    +0.000 A 
BRANCH  12  14
ATOM     14  C   UNL     1       2.783   3.489  17.006  0.00  0.00    +0.000 C 
ATOM     15  F   UNL     1       2.417   2.366  17.688  0.00  0.00    +0.000 F 
ATOM     16  F   UNL     1       1.922   4.457  17.416  0.00  0.00    +0.000 F 
ATOM     17  F   UNL     1       2.479   3.238  15.702  0.00  0.00    +0.000 F 
ENDBRANCH  12  14
BRANCH   8  19
ATOM     18  C   UNL     1       7.938   5.769  19.547  0.00  0.00    +0.000 C 
ATOM     19  O   UNL     1       6.666   5.125  19.671  0.00  0.00    +0.000 OA
ENDBRANCH   8  19
ENDBRANCH   1  13
BRANCH   7  20
ATOM     20  C   UNL     1       3.391   6.553  19.601  0.00  0.00    +0.000 C 
BRANCH  20  21
ATOM     21  C   UNL     1       2.429   7.670  19.279  0.00  0.00    +0.000 A 
ATOM     22  C   UNL     1       2.133   8.010  17.951  0.00  0.00    +0.000 A 
ATOM     23  C   UNL     1       1.148   8.961  17.666  0.00  0.00    +0.000 A 
ATOM     24  C   UNL     1       0.442   9.580  18.700  0.00  0.00    +0.000 A 
ATOM     25  C   UNL     1       0.798   9.315  20.021  0.00  0.00    +0.000 A 
ATOM     26  C   UNL     1       1.772   8.355  20.309  0.00  0.00    +0.000 A 
BRANCH  24  27
ATOM     27  O   UNL     1      -0.516  10.467  18.311  0.00  0.00    +0.000 OA
BRANCH  27  28
ATOM     28  C   UNL     1      -0.340  11.841  18.637  0.00  0.00    +0.000 C 
ATOM     29  F   UNL     1      -0.992  12.704  17.830  0.00  0.00    +0.000 F 
ATOM     30  F   UNL     1      -0.748  12.050  19.908  0.00  0.00    +0.000 F 
ATOM     31  F   UNL     1       0.979  12.135  18.569  0.00  0.00    +0.000 F 
ENDBRANCH  27  28
ENDBRANCH  24  27
ENDBRANCH  20  21
ENDBRANCH   7  20
TORSDOF 7
ENDMDL
MODEL 5
REMARK VINA RESULT:      -7.8      4.204      7.530
REMARK  Name = 
REMARK  8 active torsions:
REMARK  status: ('A' for Active; 'I' for Inactive)
REMARK    1  A    between atoms: C_1  and  O_2
REMARK    2  A    between atoms: O_2  and  C_3
REMARK    3  A    between atoms: C_7  and  C_8
REMARK    4  A    between atoms: C_12  and  C_13
REMARK    5  A    between atoms: N_19  and  C_20
REMARK    6  A    between atoms: C_20  and  C_21
REMARK    7  A    between atoms: C_24  and  O_25
REMARK    8  A    between atoms: O_25  and  C_26
REMARK                            x       y       z     vdW  Elec       q    Type
REMARK                         _______ _______ _______ _____ _____    ______ ____
ROOT
ATOM      1  C   UNL     1       5.516   5.191  18.103  0.00  0.00    +0.000 C 
ATOM      2  C   UNL     1       6.028   5.253  19.550  0.00  0.00    +0.000 C 
ATOM      3  C   UNL     1       7.532   5.425  19.541  0.00  0.00    +0.000 C 
ATOM      4  C   UNL     1       7.867   6.733  18.864  0.00  0.00    +0.000 C 
ATOM      5  C   UNL     1       7.229   6.938  17.503  0.00  0.00    +0.000 C 
ATOM      6  O   UNL     1       7.767   7.756  16.757  0.00  0.00    +0.000 OA
ATOM      7  N   UNL     1       6.044   6.264  17.214  0.00  0.00    +0.000 N 
ENDROOT
BRANCH   1  13
ATOM      8  C   UNL     1       3.106   6.130  18.100  0.00  0.00    +0.000 A 
ATOM      9  C   UNL     1       1.730   5.978  17.882  0.00  0.00    +0.000 A 
ATOM     10  C   UNL     1       1.176   4.723  17.684  0.00  0.00    +0.000 A 
ATOM     11  C   UNL     1       1.999   3.605  17.702  0.00  0.00    +0.000 A 
ATOM     12  C   UNL     1       3.395   3.724  17.879  0.00  0.00    +0.000 A 
ATOM     13  C   UNL     1       3.981   5.017  18.039  0.00  0.00    +0.000 A 
BRANCH  12  14
ATOM     14  C   UNL     1       4.199   2.437  17.911  0.00  0.00    +0.000 C 
ATOM     15  F   UNL     1       5.156   2.368  16.942  0.00  0.00    +0.000 F 
ATOM     16  F   UNL     1       4.860   2.251  19.084  0.00  0.00    +0.000 F 
ATOM     17  F   UNL     1       3.421   1.334  17.735  0.00  0.00    +0.000 F 
ENDBRANCH  12  14
BRANCH   8  19
ATOM     18  C   UNL     1       2.784   8.463  17.986  0.00  0.00    +0.000 C 
ATOM     19  O   UNL     1       3.637   7.371  18.350  0.00  0.00    +0.000 OA
ENDBRANCH   8  19
ENDBRANCH   1  13
BRANCH   7  20
ATOM     20  C   UNL     1       5.474   6.289  15.852  0.00  0.00    +0.000 C 
BRANCH  20  21
ATOM     21  C   UNL     1       5.903   5.316  14.782  0.00  0.00    +0.000 A 
ATOM     22  C   UNL     1       5.002   4.378  14.254  0.00  0.00    +0.000 A 
ATOM     23  C   UNL     1       5.375   3.567  13.178  0.00  0.00    +0.000 A 
ATOM     24  C   UNL     1       6.645   3.685  12.609  0.00  0.00    +0.000 A 
ATOM     25  C   UNL     1       7.573   4.548  13.189  0.00  0.00    +0.000 A 
ATOM     26  C   UNL     1       7.200   5.369  14.256  0.00  0.00    +0.000 A 
BRANCH  24  27
ATOM     27  O   UNL     1       6.892   2.870  11.546  0.00  0.00    +0.000 OA
BRANCH  27  28
ATOM     28  C   UNL     1       5.976   1.817  11.272  0.00  0.00    +0.000 C 
ATOM     29  F   UNL     1       4.725   2.218  10.961  0.00  0.00    +0.000 F 
ATOM     30  F   UNL     1       6.453   1.069  10.253  0.00  0.00    +0.000 F 
ATOM     31  F   UNL     1       5.891   1.024  12.365  0.00  0.00    +0.000 F 
ENDBRANCH  27  28
ENDBRANCH  24  27
ENDBRANCH  20  21
ENDBRANCH   7  20
TORSDOF 7
ENDMDL
MODEL 6
REMARK VINA RESULT:      -7.8      4.215      7.522
REMARK  Name = 
REMARK  8 active torsions:
REMARK  status: ('A' for Active; 'I' for Inactive)
REMARK    1  A    between atoms: C_1  and  O_2
REMARK    2  A    between atoms: O_2  and  C_3
REMARK    3  A    between atoms: C_7  and  C_8
REMARK    4  A    between atoms: C_12  and  C_13
REMARK    5  A    between atoms: N_19  and  C_20
REMARK    6  A    between atoms: C_20  and  C_21
REMARK    7  A    between atoms: C_24  and  O_25
REMARK    8  A    between atoms: O_25  and  C_26
REMARK                            x       y       z     vdW  Elec       q    Type
REMARK                         _______ _______ _______ _____ _____    ______ ____
ROOT
ATOM      1  C   UNL     1       5.473   5.133  18.036  0.00  0.00    +0.000 C 
ATOM      2  C   UNL     1       6.023   5.120  19.470  0.00  0.00    +0.000 C 
ATOM      3  C   UNL     1       7.527   5.287  19.431  0.00  0.00    +0.000 C 
ATOM      4  C   UNL     1       7.850   6.626  18.812  0.00  0.00    +0.000 C 
ATOM      5  C   UNL     1       7.177   6.903  17.480  0.00  0.00    +0.000 C 
ATOM      6  O   UNL     1       7.700   7.755  16.763  0.00  0.00    +0.000 OA
ATOM      7  N   UNL     1       5.983   6.247  17.188  0.00  0.00    +0.000 N 
ENDROOT
BRANCH   1  13
ATOM      8  C   UNL     1       3.069   6.084  18.090  0.00  0.00    +0.000 A 
ATOM      9  C   UNL     1       1.687   5.939  17.899  0.00  0.00    +0.000 A 
ATOM     10  C   UNL     1       1.123   4.688  17.706  0.00  0.00    +0.000 A 
ATOM     11  C   UNL     1       1.940   3.566  17.700  0.00  0.00    +0.000 A 
ATOM     12  C   UNL     1       3.340   3.677  17.849  0.00  0.00    +0.000 A 
ATOM     13  C   UNL     1       3.936   4.966  18.004  0.00  0.00    +0.000 A 
BRANCH  12  14
ATOM     14  C   UNL     1       4.139   2.386  17.857  0.00  0.00    +0.000 C 
ATOM     15  F   UNL     1       3.375   1.271  17.675  0.00  0.00    +0.000 F 
ATOM     16  F   UNL     1       5.084   2.338  16.881  0.00  0.00    +0.000 F 
ATOM     17  F   UNL     1       4.797   2.190  19.033  0.00  0.00    +0.000 F 
ENDBRANCH  12  14
BRANCH   8  19
ATOM     18  C   UNL     1       2.786   8.418  17.928  0.00  0.00    +0.000 C 
ATOM     19  O   UNL     1       3.611   7.321  18.334  0.00  0.00    +0.000 OA
ENDBRANCH   8  19
ENDBRANCH   1  13
BRANCH   7  20
ATOM     20  C   UNL     1       5.378   6.342  15.845  0.00  0.00    +0.000 C 
BRANCH  20  21
ATOM     21  C   UNL     1       5.758   5.409  14.722  0.00  0.00    +0.000 A 
ATOM     22  C   UNL     1       7.018   5.489  14.111  0.00  0.00    +0.000 A 
ATOM     23  C   UNL     1       7.404   4.541  13.159  0.00  0.00    +0.000 A 
ATOM     24  C   UNL     1       6.543   3.497  12.809  0.00  0.00    +0.000 A 
ATOM     25  C   UNL     1       5.257   3.469  13.344  0.00  0.00    +0.000 A 
ATOM     26  C   UNL     1       4.873   4.407  14.306  0.00  0.00    +0.000 A 
BRANCH  24  27
ATOM     27  O   UNL     1       7.031   2.612  11.896  0.00  0.00    +0.000 OA
BRANCH  27  28
ATOM     28  C   UNL     1       6.119   1.724  11.259  0.00  0.00    +0.000 C 
ATOM     29  F   UNL     1       5.858   0.591  11.945  0.00  0.00    +0.000 F 
ATOM     30  F   UNL     1       4.953   2.371  11.039  0.00  0.00    +0.000 F 
ATOM     31  F   UNL     1       6.630   1.368  10.059  0.00  0.00    +0.000 F 
ENDBRANCH  27  28
ENDBRANCH  24  27
ENDBRANCH  20  21
ENDBRANCH   7  20
TORSDOF 7
ENDMDL
MODEL 7
REMARK VINA RESULT:      -7.7      9.167     11.015
REMARK  Name = 
REMARK  8 active torsions:
REMARK  status: ('A' for Active; 'I' for Inactive)
REMARK    1  A    between atoms: C_1  and  O_2
REMARK    2  A    between atoms: O_2  and  C_3
REMARK    3  A    between atoms: C_7  and  C_8
REMARK    4  A    between atoms: C_12  and  C_13
REMARK    5  A    between atoms: N_19  and  C_20
REMARK    6  A    between atoms: C_20  and  C_21
REMARK    7  A    between atoms: C_24  and  O_25
REMARK    8  A    between atoms: O_25  and  C_26
REMARK                            x       y       z     vdW  Elec       q    Type
REMARK                         _______ _______ _______ _____ _____    ______ ____
ROOT
ATOM      1  C   UNL     1       8.067  14.268  18.619  0.00  0.00    +0.000 C 
ATOM      2  C   UNL     1       7.062  14.710  17.545  0.00  0.00    +0.000 C 
ATOM      3  C   UNL     1       5.700  14.892  18.179  0.00  0.00    +0.000 C 
ATOM      4  C   UNL     1       5.790  15.982  19.220  0.00  0.00    +0.000 C 
ATOM      5  C   UNL     1       6.909  15.820  20.231  0.00  0.00    +0.000 C 
ATOM      6  O   UNL     1       6.783  16.421  21.297  0.00  0.00    +0.000 OA
ATOM      7  N   UNL     1       8.032  15.079  19.869  0.00  0.00    +0.000 N 
ENDROOT
BRANCH   1  13
ATOM      8  C   UNL     1      10.310  15.166  17.696  0.00  0.00    +0.000 A 
ATOM      9  C   UNL     1      11.647  14.975  17.321  0.00  0.00    +0.000 A 
ATOM     10  C   UNL     1      12.174  13.700  17.191  0.00  0.00    +0.000 A 
ATOM     11  C   UNL     1      11.364  12.600  17.437  0.00  0.00    +0.000 A 
ATOM     12  C   UNL     1      10.024  12.755  17.856  0.00  0.00    +0.000 A 
ATOM     13  C   UNL     1       9.484  14.065  18.036  0.00  0.00    +0.000 A 
BRANCH  12  14
ATOM     14  C   UNL     1       9.216  11.488  18.070  0.00  0.00    +0.000 C 
ATOM     15  F   UNL     1       9.846  10.359  17.635  0.00  0.00    +0.000 F 
ATOM     16  F   UNL     1       8.925  11.256  19.378  0.00  0.00    +0.000 F 
ATOM     17  F   UNL     1       8.023  11.515  17.415  0.00  0.00    +0.000 F 
ENDBRANCH  12  14
BRANCH   8  19
ATOM     18  C   UNL     1      10.659  17.404  18.351  0.00  0.00    +0.000 C 
ATOM     19  O   UNL     1       9.783  16.431  17.770  0.00  0.00    +0.000 OA
ENDBRANCH   8  19
ENDBRANCH   1  13
BRANCH   7  20
ATOM     20  C   UNL     1       9.069  14.742  20.865  0.00  0.00    +0.000 C 
BRANCH  20  21
ATOM     21  C   UNL     1       8.765  13.931  22.100  0.00  0.00    +0.000 A 
ATOM     22  C   UNL     1       8.833  14.506  23.378  0.00  0.00    +0.000 A 
ATOM     23  C   UNL     1       8.430  13.781  24.503  0.00  0.00    +0.000 A 
ATOM     24  C   UNL     1       7.947  12.477  24.369  0.00  0.00    +0.000 A 
ATOM     25  C   UNL     1       7.966  11.870  23.115  0.00  0.00    +0.000 A 
ATOM     26  C   UNL     1       8.355  12.597  21.987  0.00  0.00    +0.000 A 
BRANCH  24  27
ATOM     27  O   UNL     1       7.552  11.873  25.524  0.00  0.00    +0.000 OA
BRANCH  27  28
ATOM     28  C   UNL     1       6.158  11.734  25.773  0.00  0.00    +0.000 C 
ATOM     29  F   UNL     1       5.829  11.543  27.068  0.00  0.00    +0.000 F 
ATOM     30  F   UNL     1       5.516  12.836  25.326  0.00  0.00    +0.000 F 
ATOM     31  F   UNL     1       5.698  10.672  25.073  0.00  0.00    +0.000 F 
ENDBRANCH  27  28
ENDBRANCH  24  27
ENDBRANCH  20  21
ENDBRANCH   7  20
TORSDOF 7
ENDMDL
MODEL 8
REMARK VINA RESULT:      -7.6      1.632      2.169
REMARK  Name = 
REMARK  8 active torsions:
REMARK  status: ('A' for Active; 'I' for Inactive)
REMARK    1  A    between atoms: C_1  and  O_2
REMARK    2  A    between atoms: O_2  and  C_3
REMARK    3  A    between atoms: C_7  and  C_8
REMARK    4  A    between atoms: C_12  and  C_13
REMARK    5  A    between atoms: N_19  and  C_20
REMARK    6  A    between atoms: C_20  and  C_21
REMARK    7  A    between atoms: C_24  and  O_25
REMARK    8  A    between atoms: O_25  and  C_26
REMARK                            x       y       z     vdW  Elec       q    Type
REMARK                         _______ _______ _______ _____ _____    ______ ____
ROOT
ATOM      1  C   UNL     1       3.703   4.192  19.799  0.00  0.00    +0.000 C 
ATOM      2  C   UNL     1       3.533   2.731  20.239  0.00  0.00    +0.000 C 
ATOM      3  C   UNL     1       2.675   2.680  21.485  0.00  0.00    +0.000 C 
ATOM      4  C   UNL     1       1.310   3.238  21.157  0.00  0.00    +0.000 C 
ATOM      5  C   UNL     1       1.312   4.596  20.480  0.00  0.00    +0.000 C 
ATOM      6  O   UNL     1       0.276   5.256  20.562  0.00  0.00    +0.000 OA
ATOM      7  N   UNL     1       2.436   4.975  19.750  0.00  0.00    +0.000 N 
ENDROOT
BRANCH   1  13
ATOM      8  C   UNL     1       5.886   4.847  18.576  0.00  0.00    +0.000 A 
ATOM      9  C   UNL     1       6.721   4.806  17.451  0.00  0.00    +0.000 A 
ATOM     10  C   UNL     1       6.258   4.323  16.237  0.00  0.00    +0.000 A 
ATOM     11  C   UNL     1       4.948   3.873  16.139  0.00  0.00    +0.000 A 
ATOM     12  C   UNL     1       4.091   3.862  17.261  0.00  0.00    +0.000 A 
ATOM     13  C   UNL     1       4.573   4.316  18.527  0.00  0.00    +0.000 A 
BRANCH  12  14
ATOM     14  C   UNL     1       2.670   3.376  17.039  0.00  0.00    +0.000 C 
ATOM     15  F   UNL     1       2.438   2.928  15.772  0.00  0.00    +0.000 F 
ATOM     16  F   UNL     1       2.325   2.345  17.854  0.00  0.00    +0.000 F 
ATOM     17  F   UNL     1       1.747   4.355  17.254  0.00  0.00    +0.000 F 
ENDBRANCH  12  14
BRANCH   8  19
ATOM     18  C   UNL     1       7.726   5.727  19.757  0.00  0.00    +0.000 C 
ATOM     19  O   UNL     1       6.338   5.377  19.758  0.00  0.00    +0.000 OA
ENDBRANCH   8  19
ENDBRANCH   1  13
BRANCH   7  20
ATOM     20  C   UNL     1       2.565   6.346  19.219  0.00  0.00    +0.000 C 
BRANCH  20  21
ATOM     21  C   UNL     1       1.972   7.541  19.923  0.00  0.00    +0.000 A 
ATOM     22  C   UNL     1       1.945   7.616  21.324  0.00  0.00    +0.000 A 
ATOM     23  C   UNL     1       1.507   8.780  21.962  0.00  0.00    +0.000 A 
ATOM     24  C   UNL     1       1.098   9.887  21.215  0.00  0.00    +0.000 A 
ATOM     25  C   UNL     1       1.034   9.784  19.827  0.00  0.00    +0.000 A 
ATOM     26  C   UNL     1       1.484   8.627  19.185  0.00  0.00    +0.000 A 
BRANCH  24  27
ATOM     27  O   UNL     1       0.722  10.979  21.936  0.00  0.00    +0.000 OA
BRANCH  27  28
ATOM     28  C   UNL     1      -0.658  11.144  22.244  0.00  0.00    +0.000 C 
ATOM     29  F   UNL     1      -1.494  11.009  21.194  0.00  0.00    +0.000 F 
ATOM     30  F   UNL     1      -1.010  10.248  23.192  0.00  0.00    +0.000 F 
ATOM     31  F   UNL     1      -0.841  12.384  22.756  0.00  0.00    +0.000 F 
ENDBRANCH  27  28
ENDBRANCH  24  27
ENDBRANCH  20  21
ENDBRANCH   7  20
TORSDOF 7
ENDMDL
MODEL 9
REMARK VINA RESULT:      -7.6      3.838      9.405
REMARK  Name = 
REMARK  8 active torsions:
REMARK  status: ('A' for Active; 'I' for Inactive)
REMARK    1  A    between atoms: C_1  and  O_2
REMARK    2  A    between atoms: O_2  and  C_3
REMARK    3  A    between atoms: C_7  and  C_8
REMARK    4  A    between atoms: C_12  and  C_13
REMARK    5  A    between atoms: N_19  and  C_20
REMARK    6  A    between atoms: C_20  and  C_21
REMARK    7  A    between atoms: C_24  and  O_25
REMARK    8  A    between atoms: O_25  and  C_26
REMARK                            x       y       z     vdW  Elec       q    Type
REMARK                         _______ _______ _______ _____ _____    ______ ____
ROOT
ATOM      1  C   UNL     1       1.122  12.825  21.051  0.00  0.00    +0.000 C 
ATOM      2  C   UNL     1       1.839  14.103  21.514  0.00  0.00    +0.000 C 
ATOM      3  C   UNL     1       3.255  14.102  20.982  0.00  0.00    +0.000 C 
ATOM      4  C   UNL     1       3.207  14.107  19.472  0.00  0.00    +0.000 C 
ATOM      5  C   UNL     1       2.329  13.037  18.850  0.00  0.00    +0.000 C 
ATOM      6  O   UNL     1       2.565  12.740  17.680  0.00  0.00    +0.000 OA
ATOM      7  N   UNL     1       1.274  12.522  19.601  0.00  0.00    +0.000 N 
ENDROOT
BRANCH   1  13
ATOM      8  C   UNL     1      -0.758  11.766  22.477  0.00  0.00    +0.000 A 
ATOM      9  C   UNL     1      -2.034  11.814  23.055  0.00  0.00    +0.000 A 
ATOM     10  C   UNL     1      -2.947  12.787  22.684  0.00  0.00    +0.000 A 
ATOM     11  C   UNL     1      -2.590  13.727  21.727  0.00  0.00    +0.000 A 
ATOM     12  C   UNL     1      -1.299  13.735  21.153  0.00  0.00    +0.000 A 
ATOM     13  C   UNL     1      -0.336  12.763  21.562  0.00  0.00    +0.000 A 
BRANCH  12  14
ATOM     14  C   UNL     1      -1.020  14.787  20.095  0.00  0.00    +0.000 C 
ATOM     15  F   UNL     1      -0.798  14.268  18.854  0.00  0.00    +0.000 F 
ATOM     16  F   UNL     1      -2.042  15.670  19.939  0.00  0.00    +0.000 F 
ATOM     17  F   UNL     1       0.084  15.532  20.383  0.00  0.00    +0.000 F 
ENDBRANCH  12  14
BRANCH   8  19
ATOM     18  C   UNL     1      -0.501   9.582  23.325  0.00  0.00    +0.000 C 
ATOM     19  O   UNL     1       0.120  10.766  22.812  0.00  0.00    +0.000 OA
ENDBRANCH   8  19
ENDBRANCH   1  13
BRANCH   7  20
ATOM     20  C   UNL     1       0.498  11.364  19.116  0.00  0.00    +0.000 C 
BRANCH  20  21
ATOM     21  C   UNL     1       1.079   9.973  19.059  0.00  0.00    +0.000 A 
ATOM     22  C   UNL     1       1.671   9.484  17.884  0.00  0.00    +0.000 A 
ATOM     23  C   UNL     1       2.315   8.243  17.881  0.00  0.00    +0.000 A 
ATOM     24  C   UNL     1       2.384   7.477  19.047  0.00  0.00    +0.000 A 
ATOM     25  C   UNL     1       1.717   7.916  20.189  0.00  0.00    +0.000 A 
ATOM     26  C   UNL     1       1.084   9.161  20.200  0.00  0.00    +0.000 A 
BRANCH  24  27
ATOM     27  O   UNL     1       3.062   6.300  18.940  0.00  0.00    +0.000 OA
BRANCH  27  28
ATOM     28  C   UNL     1       2.314   5.101  18.774  0.00  0.00    +0.000 C 
ATOM     29  F   UNL     1       1.463   4.818  19.782  0.00  0.00    +0.000 F 
ATOM     30  F   UNL     1       1.608   5.176  17.624  0.00  0.00    +0.000 F 
ATOM     31  F   UNL     1       3.178   4.065  18.665  0.00  0.00    +0.000 F 
ENDBRANCH  27  28
ENDBRANCH  24  27
ENDBRANCH  20  21
ENDBRANCH   7  20
TORSDOF 7
ENDMDL
