MODEL 1
REMARK VINA RESULT:      -3.5      0.000      0.000
REMARK  Name = 
REMARK  5 active torsions:
REMARK  status: ('A' for Active; 'I' for Inactive)
REMARK    1  A    between atoms: C_1  and  N_2
REMARK    2  A    between atoms: N_2  and  C_3
REMARK    3  A    between atoms: N_2  and  C_4
REMARK    4  A    between atoms: C_4  and  C_5
REMARK    5  A    between atoms: C_5  and  C_6
REMARK                            x       y       z     vdW  Elec       q    Type
REMARK                         _______ _______ _______ _____ _____    ______ ____
ROOT
ATOM      1  C   UNL     1       7.082   4.800  14.355  0.00  0.00    +0.000 C 
ENDROOT
BRANCH   1   3
ATOM      2  C   UNL     1       5.396   5.868  15.709  0.00  0.00    +0.000 C 
ATOM      3  N   UNL     1       6.820   5.499  15.634  0.00  0.00    +0.000 NA
ATOM      4  C   UNL     1       7.170   4.676  16.807  0.00  0.00    +0.000 C 
ENDBRANCH   1   3
BRANCH   1   5
ATOM      5  C   UNL     1       5.887   3.956  13.879  0.00  0.00    +0.000 C 
BRANCH   5   6
ATOM      6  C   UNL     1       6.097   3.478  12.442  0.00  0.00    +0.000 C 
ATOM      7 CL   UNL     1       4.525   3.271  11.630  0.00  0.00    +0.000 Cl
ENDBRANCH   5   6
ENDBRANCH   1   5
TORSDOF 3
ENDMDL
MODEL 2
REMARK VINA RESULT:      -3.4      6.635      7.515
REMARK  Name = 
REMARK  5 active torsions:
REMARK  status: ('A' for Active; 'I' for Inactive)
REMARK    1  A    between atoms: C_1  and  N_2
REMARK    2  A    between atoms: N_2  and  C_3
REMARK    3  A    between atoms: N_2  and  C_4
REMARK    4  A    between atoms: C_4  and  C_5
REMARK    5  A    between atoms: C_5  and  C_6
REMARK                            x       y       z     vdW  Elec       q    Type
REMARK                         _______ _______ _______ _____ _____    ______ ____
ROOT
ATOM      1  C   UNL     1       1.210   2.544  18.980  0.00  0.00    +0.000 C 
ENDROOT
BRANCH   1   3
ATOM      2  C   UNL     1       2.644   3.384  17.233  0.00  0.00    +0.000 C 
ATOM      3  N   UNL     1       2.247   2.183  17.987  0.00  0.00    +0.000 NA
ATOM      4  C   UNL     1       3.442   1.586  18.612  0.00  0.00    +0.000 C 
ENDBRANCH   1   3
BRANCH   1   5
ATOM      5  C   UNL     1       1.272   4.022  19.399  0.00  0.00    +0.000 C 
BRANCH   5   6
ATOM      6  C   UNL     1       1.625   4.155  20.880  0.00  0.00    +0.000 C 
ATOM      7 CL   UNL     1       1.499   2.570  21.685  0.00  0.00    +0.000 Cl
ENDBRANCH   5   6
ENDBRANCH   1   5
TORSDOF 3
ENDMDL
MODEL 3
REMARK VINA RESULT:      -3.3      6.353      7.014
REMARK  Name = 
REMARK  5 active torsions:
REMARK  status: ('A' for Active; 'I' for Inactive)
REMARK    1  A    between atoms: C_1  and  N_2
REMARK    2  A    between atoms: N_2  and  C_3
REMARK    3  A    between atoms: N_2  and  C_4
REMARK    4  A    between atoms: C_4  and  C_5
REMARK    5  A    between atoms: C_5  and  C_6
REMARK                            x       y       z     vdW  Elec       q    Type
REMARK                         _______ _______ _______ _____ _____    ______ ____
ROOT
ATOM      1  C   UNL     1       1.008   3.031  19.145  0.00  0.00    +0.000 C 
ENDROOT
BRANCH   1   3
ATOM      2  C   UNL     1       1.500   2.754  21.490  0.00  0.00    +0.000 C 
ATOM      3  N   UNL     1       0.943   3.670  20.480  0.00  0.00    +0.000 NA
ATOM      4  C   UNL     1       1.675   4.948  20.528  0.00  0.00    +0.000 C 
ENDBRANCH   1   3
BRANCH   1   5
ATOM      5  C   UNL     1       1.495   3.990  18.046  0.00  0.00    +0.000 C 
BRANCH   5   6
ATOM      6  C   UNL     1       2.635   3.364  17.243  0.00  0.00    +0.000 C 
ATOM      7 CL   UNL     1       3.850   2.667  18.344  0.00  0.00    +0.000 Cl
ENDBRANCH   5   6
ENDBRANCH   1   5
TORSDOF 3
ENDMDL
MODEL 4
REMARK VINA RESULT:      -3.3      6.712      7.525
REMARK  Name = 
REMARK  5 active torsions:
REMARK  status: ('A' for Active; 'I' for Inactive)
REMARK    1  A    between atoms: C_1  and  N_2
REMARK    2  A    between atoms: N_2  and  C_3
REMARK    3  A    between atoms: N_2  and  C_4
REMARK    4  A    between atoms: C_4  and  C_5
REMARK    5  A    between atoms: C_5  and  C_6
REMARK                            x       y       z     vdW  Elec       q    Type
REMARK                         _______ _______ _______ _____ _____    ______ ____
ROOT
ATOM      1  C   UNL     1       0.950   2.486  18.791  0.00  0.00    +0.000 C 
ENDROOT
BRANCH   1   3
ATOM      2  C   UNL     1       1.688   4.506  17.699  0.00  0.00    +0.000 C 
ATOM      3  N   UNL     1       1.754   3.034  17.674  0.00  0.00    +0.000 NA
ATOM      4  C   UNL     1       3.165   2.612  17.736  0.00  0.00    +0.000 C 
ENDBRANCH   1   3
BRANCH   1   5
ATOM      5  C   UNL     1       1.792   2.183  20.042  0.00  0.00    +0.000 C 
BRANCH   5   6
ATOM      6  C   UNL     1       1.341   3.042  21.223  0.00  0.00    +0.000 C 
ATOM      7 CL   UNL     1       2.245   4.577  21.244  0.00  0.00    +0.000 Cl
ENDBRANCH   5   6
ENDBRANCH   1   5
TORSDOF 3
ENDMDL
MODEL 5
REMARK VINA RESULT:      -3.2      6.432      7.317
REMARK  Name = 
REMARK  5 active torsions:
REMARK  status: ('A' for Active; 'I' for Inactive)
REMARK    1  A    between atoms: C_1  and  N_2
REMARK    2  A    between atoms: N_2  and  C_3
REMARK    3  A    between atoms: N_2  and  C_4
REMARK    4  A    between atoms: C_4  and  C_5
REMARK    5  A    between atoms: C_5  and  C_6
REMARK                            x       y       z     vdW  Elec       q    Type
REMARK                         _______ _______ _______ _____ _____    ______ ____
ROOT
ATOM      1  C   UNL     1       3.091   2.722  20.648  0.00  0.00    +0.000 C 
ENDROOT
BRANCH   1   3
ATOM      2  C   UNL     1       3.474   1.644  18.525  0.00  0.00    +0.000 C 
ATOM      3  N   UNL     1       4.102   2.419  19.609  0.00  0.00    +0.000 NA
ATOM      4  C   UNL     1       4.712   3.637  19.044  0.00  0.00    +0.000 C 
ENDBRANCH   1   3
BRANCH   1   5
ATOM      5  C   UNL     1       1.648   2.524  20.154  0.00  0.00    +0.000 C 
BRANCH   5   6
ATOM      6  C   UNL     1       0.889   3.851  20.144  0.00  0.00    +0.000 C 
ATOM      7 CL   UNL     1       1.911   5.148  20.815  0.00  0.00    +0.000 Cl
ENDBRANCH   5   6
ENDBRANCH   1   5
TORSDOF 3
ENDMDL
MODEL 6
REMARK VINA RESULT:      -3.2      5.664      6.701
REMARK  Name = 
REMARK  5 active torsions:
REMARK  status: ('A' for Active; 'I' for Inactive)
REMARK    1  A    between atoms: C_1  and  N_2
REMARK    2  A    between atoms: N_2  and  C_3
REMARK    3  A    between atoms: N_2  and  C_4
REMARK    4  A    between atoms: C_4  and  C_5
REMARK    5  A    between atoms: C_5  and  C_6
REMARK                            x       y       z     vdW  Elec       q    Type
REMARK                         _______ _______ _______ _____ _____    ______ ____
ROOT
ATOM      1  C   UNL     1       1.544   4.257  17.875  0.00  0.00    +0.000 C 
ENDROOT
BRANCH   1   3
ATOM      2  C   UNL     1       3.759   3.976  16.963  0.00  0.00    +0.000 C 
ATOM      3  N   UNL     1       2.447   3.333  17.149  0.00  0.00    +0.000 NA
ATOM      4  C   UNL     1       2.629   2.053  17.856  0.00  0.00    +0.000 C 
ENDBRANCH   1   3
BRANCH   1   5
ATOM      5  C   UNL     1       2.303   5.344  18.655  0.00  0.00    +0.000 C 
BRANCH   5   6
ATOM      6  C   UNL     1       2.016   5.238  20.153  0.00  0.00    +0.000 C 
ATOM      7 CL   UNL     1       0.915   3.875  20.473  0.00  0.00    +0.000 Cl
ENDBRANCH   5   6
ENDBRANCH   1   5
TORSDOF 3
ENDMDL
MODEL 7
REMARK VINA RESULT:      -3.2      6.155      7.144
REMARK  Name = 
REMARK  5 active torsions:
REMARK  status: ('A' for Active; 'I' for Inactive)
REMARK    1  A    between atoms: C_1  and  N_2
REMARK    2  A    between atoms: N_2  and  C_3
REMARK    3  A    between atoms: N_2  and  C_4
REMARK    4  A    between atoms: C_4  and  C_5
REMARK    5  A    between atoms: C_5  and  C_6
REMARK                            x       y       z     vdW  Elec       q    Type
REMARK                         _______ _______ _______ _____ _____    ______ ____
ROOT
ATOM      1  C   UNL     1       3.392   3.650  19.778  0.00  0.00    +0.000 C 
ENDROOT
BRANCH   1   3
ATOM      2  C   UNL     1       3.463   1.623  18.474  0.00  0.00    +0.000 C 
ATOM      3  N   UNL     1       3.848   3.044  18.506  0.00  0.00    +0.000 NA
ATOM      4  C   UNL     1       3.288   3.725  17.325  0.00  0.00    +0.000 C 
ENDBRANCH   1   3
BRANCH   1   5
ATOM      5  C   UNL     1       2.144   4.532  19.607  0.00  0.00    +0.000 C 
BRANCH   5   6
ATOM      6  C   UNL     1       0.946   3.930  20.342  0.00  0.00    +0.000 C 
ATOM      7 CL   UNL     1       1.502   2.746  21.552  0.00  0.00    +0.000 Cl
ENDBRANCH   5   6
ENDBRANCH   1   5
TORSDOF 3
ENDMDL
MODEL 8
REMARK VINA RESULT:      -3.2      5.455      6.039
REMARK  Name = 
REMARK  5 active torsions:
REMARK  status: ('A' for Active; 'I' for Inactive)
REMARK    1  A    between atoms: C_1  and  N_2
REMARK    2  A    between atoms: N_2  and  C_3
REMARK    3  A    between atoms: N_2  and  C_4
REMARK    4  A    between atoms: C_4  and  C_5
REMARK    5  A    between atoms: C_5  and  C_6
REMARK                            x       y       z     vdW  Elec       q    Type
REMARK                         _______ _______ _______ _____ _____    ______ ____
ROOT
ATOM      1  C   UNL     1       2.712   3.397  17.333  0.00  0.00    +0.000 C 
ENDROOT
BRANCH   1   3
ATOM      2  C   UNL     1       3.705   5.501  17.970  0.00  0.00    +0.000 C 
ATOM      3  N   UNL     1       3.955   4.060  17.789  0.00  0.00    +0.000 NA
ATOM      4  C   UNL     1       4.466   3.494  19.051  0.00  0.00    +0.000 C 
ENDBRANCH   1   3
BRANCH   1   5
ATOM      5  C   UNL     1       2.276   2.246  18.255  0.00  0.00    +0.000 C 
BRANCH   5   6
ATOM      6  C   UNL     1       0.864   2.484  18.793  0.00  0.00    +0.000 C 
ATOM      7 CL   UNL     1       0.897   3.718  20.077  0.00  0.00    +0.000 Cl
ENDBRANCH   5   6
ENDBRANCH   1   5
TORSDOF 3
ENDMDL
MODEL 9
REMARK VINA RESULT:      -3.2      5.268      6.052
REMARK  Name = 
REMARK  5 active torsions:
REMARK  status: ('A' for Active; 'I' for Inactive)
REMARK    1  A    between atoms: C_1  and  N_2
REMARK    2  A    between atoms: N_2  and  C_3
REMARK    3  A    between atoms: N_2  and  C_4
REMARK    4  A    between atoms: C_4  and  C_5
REMARK    5  A    between atoms: C_5  and  C_6
REMARK                            x       y       z     vdW  Elec       q    Type
REMARK                         _______ _______ _______ _____ _____    ______ ____
ROOT
ATOM      1  C   UNL     1       2.639   5.134  18.088  0.00  0.00    +0.000 C 
ENDROOT
BRANCH   1   3
ATOM      2  C   UNL     1       4.603   4.147  17.096  0.00  0.00    +0.000 C 
ATOM      3  N   UNL     1       3.916   4.438  18.366  0.00  0.00    +0.000 NA
ATOM      4  C   UNL     1       4.811   5.228  19.232  0.00  0.00    +0.000 C 
ENDBRANCH   1   3
BRANCH   1   5
ATOM      5  C   UNL     1       1.502   4.170  17.710  0.00  0.00    +0.000 C 
BRANCH   5   6
ATOM      6  C   UNL     1       1.239   3.169  18.835  0.00  0.00    +0.000 C 
ATOM      7 CL   UNL     1       0.916   4.033  20.360  0.00  0.00    +0.000 Cl
ENDBRANCH   5   6
ENDBRANCH   1   5
TORSDOF 3
ENDMDL
