MODEL 1
REMARK VINA RESULT:      -7.8      0.000      0.000
REMARK  Name = 
REMARK  4 active torsions:
REMARK  status: ('A' for Active; 'I' for Inactive)
REMARK    1  A    between atoms: C_2  and  C_5
REMARK    2  A    between atoms: N_3  and  O_4
REMARK    3  A    between atoms: N_14  and  C_15
REMARK    4  A    between atoms: C_15  and  C_16
REMARK                            x       y       z     vdW  Elec       q    Type
REMARK                         _______ _______ _______ _____ _____    ______ ____
ROOT
ATOM      1  C   UNL     1       2.039  12.852  18.651  0.00  0.00    +0.000 A 
ATOM      2  C   UNL     1       1.428  12.420  19.802  0.00  0.00    +0.000 A 
ATOM      3  N   UNL     1       1.206  11.118  20.089  0.00  0.00    +0.000 NA
ATOM      4  C   UNL     1       1.624  10.204  19.198  0.00  0.00    +0.000 A 
ATOM      5  N   UNL     1       1.537   8.886  19.511  0.00  0.00    +0.000 N 
ATOM      6  C   UNL     1       0.962   8.366  20.726  0.00  0.00    +0.000 C 
ATOM      7  C   UNL     1       1.587   6.965  20.853  0.00  0.00    +0.000 C 
ATOM      8  C   UNL     1       2.134   6.638  19.460  0.00  0.00    +0.000 C 
ATOM      9  C   UNL     1       3.650   6.265  19.458  0.00  0.00    +0.000 C 
ATOM     10  N   UNL     1       3.362   5.532  18.191  0.00  0.00    +0.000 NA
ATOM     11  C   UNL     1       2.015   5.229  18.773  0.00  0.00    +0.000 C 
ATOM     12  C   UNL     1       1.822   7.841  18.559  0.00  0.00    +0.000 C 
ATOM     13  N   UNL     1       2.202  10.548  18.029  0.00  0.00    +0.000 NA
ATOM     14  C   UNL     1       2.416  11.857  17.786  0.00  0.00    +0.000 A 
ENDROOT
BRANCH   1  16
ATOM     15  O   UNL     1       1.655  15.139  18.985  0.00  0.00    +0.000 OA
ATOM     16  C   UNL     1       2.328  14.272  18.435  0.00  0.00    +0.000 C 
ATOM     17  N   UNL     1       3.365  14.579  17.583  0.00  0.00    +0.000 N 
ATOM     18  H   UNL     1       3.684  13.953  16.848  0.00  0.00    +0.000 HD
BRANCH  17  19
ATOM     19  O   UNL     1       3.527  15.961  17.323  0.00  0.00    +0.000 OA
ATOM     20  H   UNL     1       4.299  15.975  16.714  0.00  0.00    +0.000 HD
ENDBRANCH  17  19
ENDBRANCH   1  16
BRANCH  10  21
ATOM     21  C   UNL     1       4.236   4.376  18.056  0.00  0.00    +0.000 C 
BRANCH  21  22
ATOM     22  C   UNL     1       5.251   4.549  16.943  0.00  0.00    +0.000 A 
ATOM     23  C   UNL     1       6.375   5.361  17.132  0.00  0.00    +0.000 A 
ATOM     24  C   UNL     1       7.256   5.603  16.074  0.00  0.00    +0.000 A 
ATOM     25  C   UNL     1       7.053   5.068  14.807  0.00  0.00    +0.000 A 
ATOM     26  N   UNL     1       7.918   5.365  13.821  0.00  0.00    +0.000 NA
ATOM     27  C   UNL     1       7.685   4.840  12.598  0.00  0.00    +0.000 A 
ATOM     28  C   UNL     1       6.621   4.006  12.307  0.00  0.00    +0.000 A 
ATOM     29  C   UNL     1       5.733   3.702  13.329  0.00  0.00    +0.000 A 
ATOM     30  C   UNL     1       5.934   4.237  14.613  0.00  0.00    +0.000 A 
ATOM     31  C   UNL     1       5.042   3.985  15.673  0.00  0.00    +0.000 A 
ENDBRANCH  21  22
ENDBRANCH  10  21
TORSDOF 4
ENDMDL
MODEL 2
REMARK VINA RESULT:      -7.7      2.273      4.200
REMARK  Name = 
REMARK  4 active torsions:
REMARK  status: ('A' for Active; 'I' for Inactive)
REMARK    1  A    between atoms: C_2  and  C_5
REMARK    2  A    between atoms: N_3  and  O_4
REMARK    3  A    between atoms: N_14  and  C_15
REMARK    4  A    between atoms: C_15  and  C_16
REMARK                            x       y       z     vdW  Elec       q    Type
REMARK                         _______ _______ _______ _____ _____    ______ ____
ROOT
ATOM      1  C   UNL     1       2.652  15.409  19.291  0.00  0.00    +0.000 A 
ATOM      2  C   UNL     1       1.768  15.572  20.329  0.00  0.00    +0.000 A 
ATOM      3  N   UNL     1       1.016  14.570  20.836  0.00  0.00    +0.000 NA
ATOM      4  C   UNL     1       1.161  13.348  20.297  0.00  0.00    +0.000 A 
ATOM      5  N   UNL     1       0.523  12.294  20.865  0.00  0.00    +0.000 N 
ATOM      6  C   UNL     1      -0.373  12.385  21.991  0.00  0.00    +0.000 C 
ATOM      7  C   UNL     1      -0.371  10.959  22.573  0.00  0.00    +0.000 C 
ATOM      8  C   UNL     1       0.191  10.069  21.460  0.00  0.00    +0.000 C 
ATOM      9  C   UNL     1       1.424   9.220  21.904  0.00  0.00    +0.000 C 
ATOM     10  N   UNL     1       1.050   8.289  20.800  0.00  0.00    +0.000 NA
ATOM     11  C   UNL     1      -0.374   8.648  21.094  0.00  0.00    +0.000 C 
ATOM     12  C   UNL     1       0.503  10.982  20.266  0.00  0.00    +0.000 C 
ATOM     13  N   UNL     1       1.983  13.113  19.255  0.00  0.00    +0.000 NA
ATOM     14  C   UNL     1       2.725  14.137  18.785  0.00  0.00    +0.000 A 
ENDROOT
BRANCH   1  16
ATOM     15  O   UNL     1       3.121  17.276  17.956  0.00  0.00    +0.000 OA
ATOM     16  C   UNL     1       3.502  16.515  18.841  0.00  0.00    +0.000 C 
ATOM     17  N   UNL     1       4.736  16.642  19.438  0.00  0.00    +0.000 N 
ATOM     18  H   UNL     1       5.227  15.864  19.869  0.00  0.00    +0.000 HD
BRANCH  17  19
ATOM     19  O   UNL     1       5.557  17.655  18.886  0.00  0.00    +0.000 OA
ATOM     20  H   UNL     1       6.432  17.463  19.290  0.00  0.00    +0.000 HD
ENDBRANCH  17  19
ENDBRANCH   1  16
BRANCH  10  21
ATOM     21  C   UNL     1       1.411   6.920  21.139  0.00  0.00    +0.000 C 
BRANCH  21  22
ATOM     22  C   UNL     1       2.049   6.188  19.974  0.00  0.00    +0.000 A 
ATOM     23  C   UNL     1       1.873   4.809  19.824  0.00  0.00    +0.000 A 
ATOM     24  C   UNL     1       2.545   4.118  18.812  0.00  0.00    +0.000 A 
ATOM     25  C   UNL     1       3.409   4.756  17.930  0.00  0.00    +0.000 A 
ATOM     26  N   UNL     1       4.051   4.032  16.997  0.00  0.00    +0.000 NA
ATOM     27  C   UNL     1       4.895   4.680  16.165  0.00  0.00    +0.000 A 
ATOM     28  C   UNL     1       5.123   6.043  16.206  0.00  0.00    +0.000 A 
ATOM     29  C   UNL     1       4.456   6.786  17.170  0.00  0.00    +0.000 A 
ATOM     30  C   UNL     1       3.579   6.147  18.063  0.00  0.00    +0.000 A 
ATOM     31  C   UNL     1       2.905   6.852  19.078  0.00  0.00    +0.000 A 
ENDBRANCH  21  22
ENDBRANCH  10  21
TORSDOF 4
ENDMDL
MODEL 3
REMARK VINA RESULT:      -7.6      4.540      8.162
REMARK  Name = 
REMARK  4 active torsions:
REMARK  status: ('A' for Active; 'I' for Inactive)
REMARK    1  A    between atoms: C_2  and  C_5
REMARK    2  A    between atoms: N_3  and  O_4
REMARK    3  A    between atoms: N_14  and  C_15
REMARK    4  A    between atoms: C_15  and  C_16
REMARK                            x       y       z     vdW  Elec       q    Type
REMARK                         _______ _______ _______ _____ _____    ______ ____
ROOT
ATOM      1  C   UNL     1       9.172  13.821  17.725  0.00  0.00    +0.000 A 
ATOM      2  C   UNL     1       8.935  15.013  18.363  0.00  0.00    +0.000 A 
ATOM      3  N   UNL     1       7.697  15.493  18.615  0.00  0.00    +0.000 NA
ATOM      4  C   UNL     1       6.649  14.748  18.230  0.00  0.00    +0.000 A 
ATOM      5  N   UNL     1       5.396  15.133  18.582  0.00  0.00    +0.000 N 
ATOM      6  C   UNL     1       5.080  16.342  19.302  0.00  0.00    +0.000 C 
ATOM      7  C   UNL     1       3.700  16.047  19.918  0.00  0.00    +0.000 C 
ATOM      8  C   UNL     1       3.152  14.852  19.131  0.00  0.00    +0.000 C 
ATOM      9  C   UNL     1       2.747  13.644  20.034  0.00  0.00    +0.000 C 
ATOM     10  N   UNL     1       1.838  13.250  18.919  0.00  0.00    +0.000 NA
ATOM     11  C   UNL     1       1.659  14.714  18.660  0.00  0.00    +0.000 C 
ATOM     12  C   UNL     1       4.212  14.477  18.086  0.00  0.00    +0.000 C 
ATOM     13  N   UNL     1       6.797  13.582  17.568  0.00  0.00    +0.000 NA
ATOM     14  C   UNL     1       8.049  13.132  17.346  0.00  0.00    +0.000 A 
ENDROOT
BRANCH   1  16
ATOM     15  O   UNL     1      11.436  14.050  17.166  0.00  0.00    +0.000 OA
ATOM     16  C   UNL     1      10.536  13.312  17.556  0.00  0.00    +0.000 C 
ATOM     17  N   UNL     1      10.748  11.980  17.834  0.00  0.00    +0.000 N 
ATOM     18  H   UNL     1      10.014  11.279  17.788  0.00  0.00    +0.000 HD
BRANCH  17  19
ATOM     19  O   UNL     1      12.055  11.518  17.545  0.00  0.00    +0.000 OA
ATOM     20  H   UNL     1      12.372  12.175  16.886  0.00  0.00    +0.000 HD
ENDBRANCH  17  19
ENDBRANCH   1  16
BRANCH  10  21
ATOM     21  C   UNL     1       0.654  12.578  19.436  0.00  0.00    +0.000 C 
BRANCH  21  22
ATOM     22  C   UNL     1       0.885  11.095  19.655  0.00  0.00    +0.000 A 
ATOM     23  C   UNL     1       0.659  10.523  20.911  0.00  0.00    +0.000 A 
ATOM     24  C   UNL     1       0.969   9.180  21.141  0.00  0.00    +0.000 A 
ATOM     25  C   UNL     1       1.516   8.369  20.153  0.00  0.00    +0.000 A 
ATOM     26  N   UNL     1       1.823   7.093  20.444  0.00  0.00    +0.000 NA
ATOM     27  C   UNL     1       2.365   6.335  19.465  0.00  0.00    +0.000 A 
ATOM     28  C   UNL     1       2.607   6.790  18.182  0.00  0.00    +0.000 A 
ATOM     29  C   UNL     1       2.285   8.108  17.887  0.00  0.00    +0.000 A 
ATOM     30  C   UNL     1       1.730   8.932  18.880  0.00  0.00    +0.000 A 
ATOM     31  C   UNL     1       1.419  10.284  18.639  0.00  0.00    +0.000 A 
ENDBRANCH  21  22
ENDBRANCH  10  21
TORSDOF 4
ENDMDL
MODEL 4
REMARK VINA RESULT:      -7.5      4.378      5.949
REMARK  Name = 
REMARK  4 active torsions:
REMARK  status: ('A' for Active; 'I' for Inactive)
REMARK    1  A    between atoms: C_2  and  C_5
REMARK    2  A    between atoms: N_3  and  O_4
REMARK    3  A    between atoms: N_14  and  C_15
REMARK    4  A    between atoms: C_15  and  C_16
REMARK                            x       y       z     vdW  Elec       q    Type
REMARK                         _______ _______ _______ _____ _____    ______ ____
ROOT
ATOM      1  C   UNL     1      -4.978  12.047  18.259  0.00  0.00    +0.000 A 
ATOM      2  C   UNL     1      -4.374  12.753  19.269  0.00  0.00    +0.000 A 
ATOM      3  N   UNL     1      -3.185  12.411  19.815  0.00  0.00    +0.000 NA
ATOM      4  C   UNL     1      -2.563  11.328  19.323  0.00  0.00    +0.000 A 
ATOM      5  N   UNL     1      -1.311  11.030  19.754  0.00  0.00    +0.000 N 
ATOM      6  C   UNL     1      -0.595  11.763  20.769  0.00  0.00    +0.000 C 
ATOM      7  C   UNL     1       0.879  11.417  20.495  0.00  0.00    +0.000 C 
ATOM      8  C   UNL     1       0.844  10.163  19.614  0.00  0.00    +0.000 C 
ATOM      9  C   UNL     1       1.630  10.322  18.274  0.00  0.00    +0.000 C 
ATOM     10  N   UNL     1       1.747   8.834  18.288  0.00  0.00    +0.000 NA
ATOM     11  C   UNL     1       1.815   8.939  19.780  0.00  0.00    +0.000 C 
ATOM     12  C   UNL     1      -0.633   9.810  19.393  0.00  0.00    +0.000 C 
ATOM     13  N   UNL     1      -3.105  10.562  18.354  0.00  0.00    +0.000 NA
ATOM     14  C   UNL     1      -4.287  10.943  17.828  0.00  0.00    +0.000 A 
ENDROOT
BRANCH   1  16
ATOM     15  O   UNL     1      -7.247  11.836  17.714  0.00  0.00    +0.000 OA
ATOM     16  C   UNL     1      -6.226  12.515  17.650  0.00  0.00    +0.000 C 
ATOM     17  N   UNL     1      -6.190  13.726  16.996  0.00  0.00    +0.000 N 
ATOM     18  H   UNL     1      -5.340  14.120  16.603  0.00  0.00    +0.000 HD
BRANCH  17  19
ATOM     19  O   UNL     1      -7.391  14.075  16.332  0.00  0.00    +0.000 OA
ATOM     20  H   UNL     1      -7.102  14.148  15.395  0.00  0.00    +0.000 HD
ENDBRANCH  17  19
ENDBRANCH   1  16
BRANCH  10  21
ATOM     21  C   UNL     1       2.987   8.412  17.654  0.00  0.00    +0.000 C 
BRANCH  21  22
ATOM     22  C   UNL     1       3.206   6.915  17.761  0.00  0.00    +0.000 A 
ATOM     23  C   UNL     1       4.431   6.352  17.387  0.00  0.00    +0.000 A 
ATOM     24  C   UNL     1       4.599   4.964  17.387  0.00  0.00    +0.000 A 
ATOM     25  C   UNL     1       3.572   4.097  17.742  0.00  0.00    +0.000 A 
ATOM     26  N   UNL     1       3.784   2.769  17.691  0.00  0.00    +0.000 NA
ATOM     27  C   UNL     1       2.762   1.954  18.029  0.00  0.00    +0.000 A 
ATOM     28  C   UNL     1       1.520   2.402  18.438  0.00  0.00    +0.000 A 
ATOM     29  C   UNL     1       1.308   3.772  18.491  0.00  0.00    +0.000 A 
ATOM     30  C   UNL     1       2.342   4.655  18.136  0.00  0.00    +0.000 A 
ATOM     31  C   UNL     1       2.164   6.052  18.141  0.00  0.00    +0.000 A 
ENDBRANCH  21  22
ENDBRANCH  10  21
TORSDOF 4
ENDMDL
MODEL 5
REMARK VINA RESULT:      -7.4      2.080      3.726
REMARK  Name = 
REMARK  4 active torsions:
REMARK  status: ('A' for Active; 'I' for Inactive)
REMARK    1  A    between atoms: C_2  and  C_5
REMARK    2  A    between atoms: N_3  and  O_4
REMARK    3  A    between atoms: N_14  and  C_15
REMARK    4  A    between atoms: C_15  and  C_16
REMARK                            x       y       z     vdW  Elec       q    Type
REMARK                         _______ _______ _______ _____ _____    ______ ____
ROOT
ATOM      1  C   UNL     1       1.832  14.792  18.898  0.00  0.00    +0.000 A 
ATOM      2  C   UNL     1       1.172  14.910  20.096  0.00  0.00    +0.000 A 
ATOM      3  N   UNL     1       0.606  13.868  20.745  0.00  0.00    +0.000 NA
ATOM      4  C   UNL     1       0.714  12.652  20.185  0.00  0.00    +0.000 A 
ATOM      5  N   UNL     1       0.275  11.566  20.869  0.00  0.00    +0.000 N 
ATOM      6  C   UNL     1      -0.373  11.612  22.156  0.00  0.00    +0.000 C 
ATOM      7  C   UNL     1      -0.161  10.196  22.721  0.00  0.00    +0.000 C 
ATOM      8  C   UNL     1       0.215   9.331  21.513  0.00  0.00    +0.000 C 
ATOM      9  C   UNL     1       1.565   8.566  21.691  0.00  0.00    +0.000 C 
ATOM     10  N   UNL     1       1.030   7.602  20.686  0.00  0.00    +0.000 NA
ATOM     11  C   UNL     1      -0.322   7.874  21.269  0.00  0.00    +0.000 C 
ATOM     12  C   UNL     1       0.216  10.249  20.284  0.00  0.00    +0.000 C 
ATOM     13  N   UNL     1       1.317  12.458  18.994  0.00  0.00    +0.000 NA
ATOM     14  C   UNL     1       1.879  13.521  18.385  0.00  0.00    +0.000 A 
ENDROOT
BRANCH   1  16
ATOM     15  O   UNL     1       3.723  16.011  18.245  0.00  0.00    +0.000 OA
ATOM     16  C   UNL     1       2.498  15.944  18.285  0.00  0.00    +0.000 C 
ATOM     17  N   UNL     1       1.692  16.941  17.781  0.00  0.00    +0.000 N 
ATOM     18  H   UNL     1       0.747  17.110  18.111  0.00  0.00    +0.000 HD
BRANCH  17  19
ATOM     19  O   UNL     1       2.388  18.078  17.303  0.00  0.00    +0.000 OA
ATOM     20  H   UNL     1       2.942  18.328  18.076  0.00  0.00    +0.000 HD
ENDBRANCH  17  19
ENDBRANCH   1  16
BRANCH  10  21
ATOM     21  C   UNL     1       1.540   6.261  20.939  0.00  0.00    +0.000 C 
BRANCH  21  22
ATOM     22  C   UNL     1       2.256   5.681  19.735  0.00  0.00    +0.000 A 
ATOM     23  C   UNL     1       2.271   4.299  19.520  0.00  0.00    +0.000 A 
ATOM     24  C   UNL     1       3.017   3.757  18.470  0.00  0.00    +0.000 A 
ATOM     25  C   UNL     1       3.772   4.550  17.614  0.00  0.00    +0.000 A 
ATOM     26  N   UNL     1       4.495   3.966  16.642  0.00  0.00    +0.000 NA
ATOM     27  C   UNL     1       5.229   4.764  15.836  0.00  0.00    +0.000 A 
ATOM     28  C   UNL     1       5.267   6.142  15.942  0.00  0.00    +0.000 A 
ATOM     29  C   UNL     1       4.517   6.739  16.946  0.00  0.00    +0.000 A 
ATOM     30  C   UNL     1       3.750   5.943  17.813  0.00  0.00    +0.000 A 
ATOM     31  C   UNL     1       2.999   6.499  18.867  0.00  0.00    +0.000 A 
ENDBRANCH  21  22
ENDBRANCH  10  21
TORSDOF 4
ENDMDL
MODEL 6
REMARK VINA RESULT:      -7.4      5.442     11.331
REMARK  Name = 
REMARK  4 active torsions:
REMARK  status: ('A' for Active; 'I' for Inactive)
REMARK    1  A    between atoms: C_2  and  C_5
REMARK    2  A    between atoms: N_3  and  O_4
REMARK    3  A    between atoms: N_14  and  C_15
REMARK    4  A    between atoms: C_15  and  C_16
REMARK                            x       y       z     vdW  Elec       q    Type
REMARK                         _______ _______ _______ _____ _____    ______ ____
ROOT
ATOM      1  C   UNL     1       3.182   4.354  20.027  0.00  0.00    +0.000 A 
ATOM      2  C   UNL     1       3.732   4.984  18.939  0.00  0.00    +0.000 A 
ATOM      3  N   UNL     1       3.315   6.185  18.479  0.00  0.00    +0.000 NA
ATOM      4  C   UNL     1       2.316   6.792  19.140  0.00  0.00    +0.000 A 
ATOM      5  N   UNL     1       1.960   8.054  18.789  0.00  0.00    +0.000 N 
ATOM      6  C   UNL     1       2.537   8.796  17.697  0.00  0.00    +0.000 C 
ATOM      7  C   UNL     1       2.236  10.263  18.055  0.00  0.00    +0.000 C 
ATOM      8  C   UNL     1       1.126  10.202  19.109  0.00  0.00    +0.000 C 
ATOM      9  C   UNL     1       1.480  10.955  20.431  0.00  0.00    +0.000 C 
ATOM     10  N   UNL     1       0.007  11.068  20.638  0.00  0.00    +0.000 NA
ATOM     11  C   UNL     1      -0.109  11.174  19.149  0.00  0.00    +0.000 C 
ATOM     12  C   UNL     1       0.807   8.719  19.343  0.00  0.00    +0.000 C 
ATOM     13  N   UNL     1       1.700   6.224  20.197  0.00  0.00    +0.000 NA
ATOM     14  C   UNL     1       2.154   5.031  20.632  0.00  0.00    +0.000 A 
ENDROOT
BRANCH   1  16
ATOM     15  O   UNL     1       3.254   2.551  21.521  0.00  0.00    +0.000 OA
ATOM     16  C   UNL     1       3.733   3.091  20.529  0.00  0.00    +0.000 C 
ATOM     17  N   UNL     1       4.809   2.563  19.852  0.00  0.00    +0.000 N 
ATOM     18  H   UNL     1       5.448   3.127  19.299  0.00  0.00    +0.000 HD
BRANCH  17  19
ATOM     19  O   UNL     1       5.370   1.407  20.447  0.00  0.00    +0.000 OA
ATOM     20  H   UNL     1       6.316   1.472  20.188  0.00  0.00    +0.000 HD
ENDBRANCH  17  19
ENDBRANCH   1  16
BRANCH  10  21
ATOM     21  C   UNL     1      -0.317  12.291  21.358  0.00  0.00    +0.000 C 
BRANCH  21  22
ATOM     22  C   UNL     1      -1.802  12.417  21.640  0.00  0.00    +0.000 A 
ATOM     23  C   UNL     1      -2.682  12.811  20.626  0.00  0.00    +0.000 A 
ATOM     24  C   UNL     1      -4.033  13.027  20.911  0.00  0.00    +0.000 A 
ATOM     25  C   UNL     1      -4.552  12.873  22.191  0.00  0.00    +0.000 A 
ATOM     26  N   UNL     1      -5.855  13.127  22.408  0.00  0.00    +0.000 NA
ATOM     27  C   UNL     1      -6.325  12.980  23.666  0.00  0.00    +0.000 A 
ATOM     28  C   UNL     1      -5.551  12.571  24.736  0.00  0.00    +0.000 A 
ATOM     29  C   UNL     1      -4.208  12.308  24.505  0.00  0.00    +0.000 A 
ATOM     30  C   UNL     1      -3.677  12.460  23.213  0.00  0.00    +0.000 A 
ATOM     31  C   UNL     1      -2.315  12.238  22.936  0.00  0.00    +0.000 A 
ENDBRANCH  21  22
ENDBRANCH  10  21
TORSDOF 4
ENDMDL
MODEL 7
REMARK VINA RESULT:      -7.4      5.334     11.140
REMARK  Name = 
REMARK  4 active torsions:
REMARK  status: ('A' for Active; 'I' for Inactive)
REMARK    1  A    between atoms: C_2  and  C_5
REMARK    2  A    between atoms: N_3  and  O_4
REMARK    3  A    between atoms: N_14  and  C_15
REMARK    4  A    between atoms: C_15  and  C_16
REMARK                            x       y       z     vdW  Elec       q    Type
REMARK                         _______ _______ _______ _____ _____    ______ ____
ROOT
ATOM      1  C   UNL     1       3.023   4.766  19.810  0.00  0.00    +0.000 A 
ATOM      2  C   UNL     1       3.553   5.448  18.743  0.00  0.00    +0.000 A 
ATOM      3  N   UNL     1       3.140   6.677  18.360  0.00  0.00    +0.000 NA
ATOM      4  C   UNL     1       2.168   7.260  19.080  0.00  0.00    +0.000 A 
ATOM      5  N   UNL     1       1.820   8.543  18.808  0.00  0.00    +0.000 N 
ATOM      6  C   UNL     1       2.378   9.337  17.741  0.00  0.00    +0.000 C 
ATOM      7  C   UNL     1       2.107  10.786  18.186  0.00  0.00    +0.000 C 
ATOM      8  C   UNL     1       1.025  10.682  19.266  0.00  0.00    +0.000 C 
ATOM      9  C   UNL     1       1.424  11.357  20.615  0.00  0.00    +0.000 C 
ATOM     10  N   UNL     1      -0.041  11.477  20.869  0.00  0.00    +0.000 NA
ATOM     11  C   UNL     1      -0.195  11.665  19.392  0.00  0.00    +0.000 C 
ATOM     12  C   UNL     1       0.692   9.192  19.428  0.00  0.00    +0.000 C 
ATOM     13  N   UNL     1       1.573   6.643  20.121  0.00  0.00    +0.000 NA
ATOM     14  C   UNL     1       2.021   5.423  20.478  0.00  0.00    +0.000 A 
ENDROOT
BRANCH   1  16
ATOM     15  O   UNL     1       3.036   2.829  21.127  0.00  0.00    +0.000 OA
ATOM     16  C   UNL     1       3.569   3.472  20.228  0.00  0.00    +0.000 C 
ATOM     17  N   UNL     1       4.703   3.032  19.583  0.00  0.00    +0.000 N 
ATOM     18  H   UNL     1       5.364   3.658  19.132  0.00  0.00    +0.000 HD
BRANCH  17  19
ATOM     19  O   UNL     1       5.250   1.834  20.103  0.00  0.00    +0.000 OA
ATOM     20  H   UNL     1       4.976   1.867  21.047  0.00  0.00    +0.000 HD
ENDBRANCH  17  19
ENDBRANCH   1  16
BRANCH  10  21
ATOM     21  C   UNL     1      -0.328  12.663  21.663  0.00  0.00    +0.000 C 
BRANCH  21  22
ATOM     22  C   UNL     1      -1.787  12.742  22.071  0.00  0.00    +0.000 A 
ATOM     23  C   UNL     1      -2.148  12.659  23.420  0.00  0.00    +0.000 A 
ATOM     24  C   UNL     1      -3.496  12.627  23.789  0.00  0.00    +0.000 A 
ATOM     25  C   UNL     1      -4.519  12.666  22.849  0.00  0.00    +0.000 A 
ATOM     26  N   UNL     1      -5.797  12.600  23.264  0.00  0.00    +0.000 NA
ATOM     27  C   UNL     1      -6.767  12.627  22.324  0.00  0.00    +0.000 A 
ATOM     28  C   UNL     1      -6.525  12.733  20.967  0.00  0.00    +0.000 A 
ATOM     29  C   UNL     1      -5.204  12.804  20.546  0.00  0.00    +0.000 A 
ATOM     30  C   UNL     1      -4.165  12.767  21.490  0.00  0.00    +0.000 A 
ATOM     31  C   UNL     1      -2.810  12.802  21.110  0.00  0.00    +0.000 A 
ENDBRANCH  21  22
ENDBRANCH  10  21
TORSDOF 4
ENDMDL
MODEL 8
REMARK VINA RESULT:      -7.4      4.357      6.793
REMARK  Name = 
REMARK  4 active torsions:
REMARK  status: ('A' for Active; 'I' for Inactive)
REMARK    1  A    between atoms: C_2  and  C_5
REMARK    2  A    between atoms: N_3  and  O_4
REMARK    3  A    between atoms: N_14  and  C_15
REMARK    4  A    between atoms: C_15  and  C_16
REMARK                            x       y       z     vdW  Elec       q    Type
REMARK                         _______ _______ _______ _____ _____    ______ ____
ROOT
ATOM      1  C   UNL     1      -3.182  12.714  23.208  0.00  0.00    +0.000 A 
ATOM      2  C   UNL     1      -2.902  13.767  22.374  0.00  0.00    +0.000 A 
ATOM      3  N   UNL     1      -1.902  13.757  21.465  0.00  0.00    +0.000 NA
ATOM      4  C   UNL     1      -1.158  12.644  21.370  0.00  0.00    +0.000 A 
ATOM      5  N   UNL     1      -0.232  12.547  20.383  0.00  0.00    +0.000 N 
ATOM      6  C   UNL     1       0.071  13.592  19.436  0.00  0.00    +0.000 C 
ATOM      7  C   UNL     1       0.713  12.838  18.257  0.00  0.00    +0.000 C 
ATOM      8  C   UNL     1       1.118  11.472  18.821  0.00  0.00    +0.000 C 
ATOM      9  C   UNL     1       0.528  10.268  18.022  0.00  0.00    +0.000 C 
ATOM     10  N   UNL     1       1.671   9.480  18.568  0.00  0.00    +0.000 NA
ATOM     11  C   UNL     1       2.470  10.744  18.487  0.00  0.00    +0.000 C 
ATOM     12  C   UNL     1       0.707  11.456  20.300  0.00  0.00    +0.000 C 
ATOM     13  N   UNL     1      -1.347  11.578  22.176  0.00  0.00    +0.000 NA
ATOM     14  C   UNL     1      -2.363  11.624  23.062  0.00  0.00    +0.000 A 
ENDROOT
BRANCH   1  16
ATOM     15  O   UNL     1      -4.395  11.995  25.079  0.00  0.00    +0.000 OA
ATOM     16  C   UNL     1      -4.333  12.752  24.115  0.00  0.00    +0.000 C 
ATOM     17  N   UNL     1      -5.333  13.653  23.823  0.00  0.00    +0.000 N 
ATOM     18  H   UNL     1      -5.505  14.007  22.887  0.00  0.00    +0.000 HD
BRANCH  17  19
ATOM     19  O   UNL     1      -6.468  13.568  24.666  0.00  0.00    +0.000 OA
ATOM     20  H   UNL     1      -6.741  14.509  24.750  0.00  0.00    +0.000 HD
ENDBRANCH  17  19
ENDBRANCH   1  16
BRANCH  10  21
ATOM     21  C   UNL     1       2.077   8.446  17.626  0.00  0.00    +0.000 C 
BRANCH  21  22
ATOM     22  C   UNL     1       2.570   7.194  18.325  0.00  0.00    +0.000 A 
ATOM     23  C   UNL     1       3.795   6.621  17.966  0.00  0.00    +0.000 A 
ATOM     24  C   UNL     1       4.201   5.411  18.536  0.00  0.00    +0.000 A 
ATOM     25  C   UNL     1       3.417   4.730  19.460  0.00  0.00    +0.000 A 
ATOM     26  N   UNL     1       3.848   3.554  19.949  0.00  0.00    +0.000 NA
ATOM     27  C   UNL     1       3.056   2.911  20.835  0.00  0.00    +0.000 A 
ATOM     28  C   UNL     1       1.841   3.398  21.279  0.00  0.00    +0.000 A 
ATOM     29  C   UNL     1       1.403   4.614  20.773  0.00  0.00    +0.000 A 
ATOM     30  C   UNL     1       2.192   5.308  19.840  0.00  0.00    +0.000 A 
ATOM     31  C   UNL     1       1.775   6.528  19.273  0.00  0.00    +0.000 A 
ENDBRANCH  21  22
ENDBRANCH  10  21
TORSDOF 4
ENDMDL
MODEL 9
REMARK VINA RESULT:      -7.3      3.650      7.035
REMARK  Name = 
REMARK  4 active torsions:
REMARK  status: ('A' for Active; 'I' for Inactive)
REMARK    1  A    between atoms: C_2  and  C_5
REMARK    2  A    between atoms: N_3  and  O_4
REMARK    3  A    between atoms: N_14  and  C_15
REMARK    4  A    between atoms: C_15  and  C_16
REMARK                            x       y       z     vdW  Elec       q    Type
REMARK                         _______ _______ _______ _____ _____    ______ ____
ROOT
ATOM      1  C   UNL     1       6.847  16.227  18.490  0.00  0.00    +0.000 A 
ATOM      2  C   UNL     1       5.910  17.198  18.739  0.00  0.00    +0.000 A 
ATOM      3  N   UNL     1       4.579  16.965  18.768  0.00  0.00    +0.000 NA
ATOM      4  C   UNL     1       4.163  15.707  18.554  0.00  0.00    +0.000 A 
ATOM      5  N   UNL     1       2.847  15.410  18.705  0.00  0.00    +0.000 N 
ATOM      6  C   UNL     1       1.819  16.369  19.023  0.00  0.00    +0.000 C 
ATOM      7  C   UNL     1       0.689  15.508  19.616  0.00  0.00    +0.000 C 
ATOM      8  C   UNL     1       1.002  14.073  19.179  0.00  0.00    +0.000 C 
ATOM      9  C   UNL     1       1.093  13.065  20.368  0.00  0.00    +0.000 C 
ATOM     10  N   UNL     1       0.764  12.012  19.364  0.00  0.00    +0.000 NA
ATOM     11  C   UNL     1      -0.078  13.045  18.681  0.00  0.00    +0.000 C 
ATOM     12  C   UNL     1       2.294  14.126  18.352  0.00  0.00    +0.000 C 
ATOM     13  N   UNL     1       5.017  14.702  18.270  0.00  0.00    +0.000 NA
ATOM     14  C   UNL     1       6.338  14.974  18.262  0.00  0.00    +0.000 A 
ENDROOT
BRANCH   1  16
ATOM     15  O   UNL     1       8.690  17.671  18.411  0.00  0.00    +0.000 OA
ATOM     16  C   UNL     1       8.281  16.523  18.556  0.00  0.00    +0.000 C 
ATOM     17  N   UNL     1       9.133  15.461  18.766  0.00  0.00    +0.000 N 
ATOM     18  H   UNL     1       8.897  14.504  18.521  0.00  0.00    +0.000 HD
BRANCH  17  19
ATOM     19  O   UNL     1      10.509  15.789  18.708  0.00  0.00    +0.000 OA
ATOM     20  H   UNL     1      10.835  15.210  17.983  0.00  0.00    +0.000 HD
ENDBRANCH  17  19
ENDBRANCH   1  16
BRANCH  10  21
ATOM     21  C   UNL     1       0.010  10.931  19.983  0.00  0.00    +0.000 C 
BRANCH  21  22
ATOM     22  C   UNL     1       0.722   9.596  19.871  0.00  0.00    +0.000 A 
ATOM     23  C   UNL     1       0.678   8.681  20.928  0.00  0.00    +0.000 A 
ATOM     24  C   UNL     1       1.418   7.497  20.867  0.00  0.00    +0.000 A 
ATOM     25  C   UNL     1       2.223   7.185  19.778  0.00  0.00    +0.000 A 
ATOM     26  N   UNL     1       2.937   6.045  19.792  0.00  0.00    +0.000 NA
ATOM     27  C   UNL     1       3.720   5.779  18.724  0.00  0.00    +0.000 A 
ATOM     28  C   UNL     1       3.819   6.598  17.615  0.00  0.00    +0.000 A 
ATOM     29  C   UNL     1       3.078   7.772  17.606  0.00  0.00    +0.000 A 
ATOM     30  C   UNL     1       2.260   8.092  18.702  0.00  0.00    +0.000 A 
ATOM     31  C   UNL     1       1.516   9.287  18.754  0.00  0.00    +0.000 A 
ENDBRANCH  21  22
ENDBRANCH  10  21
TORSDOF 4
ENDMDL
