MODEL 1
REMARK VINA RESULT:      -7.3      0.000      0.000
REMARK  Name = 
REMARK  9 active torsions:
REMARK  status: ('A' for Active; 'I' for Inactive)
REMARK    1  A    between atoms: C_1  and  C_2
REMARK    2  A    between atoms: C_2  and  C_3
REMARK    3  A    between atoms: C_3  and  O_4
REMARK    4  A    between atoms: O_4  and  C_5
REMARK    5  A    between atoms: C_8  and  N_9
REMARK    6  A    between atoms: C_13  and  S_14
REMARK    7  A    between atoms: S_14  and  C_15
REMARK    8  A    between atoms: N_16  and  C_17
REMARK    9  A    between atoms: N_18  and  C_19
REMARK                            x       y       z     vdW  Elec       q    Type
REMARK                         _______ _______ _______ _____ _____    ______ ____
ROOT
ATOM      1  N   UNL     1       2.153   7.775  18.894  0.00  0.00    +0.000 N 
ATOM      2  C   UNL     1       1.746   7.646  20.202  0.00  0.00    +0.000 C 
ATOM      3  O   UNL     1       2.034   6.786  21.026  0.00  0.00    +0.000 OA
ATOM      4  C   UNL     1       0.851   8.782  20.569  0.00  0.00    +0.000 C 
ATOM      5  C   UNL     1       0.736   9.614  19.314  0.00  0.00    +0.000 C 
ATOM      6  C   UNL     1       1.646   8.918  18.318  0.00  0.00    +0.000 C 
ATOM      7  O   UNL     1       1.795   9.312  17.169  0.00  0.00    +0.000 OA
ENDROOT
BRANCH   1  11
ATOM      8  C   UNL     1       4.601   4.913  16.872  0.00  0.00    +0.000 A 
ATOM      9  C   UNL     1       4.980   6.245  16.984  0.00  0.00    +0.000 A 
ATOM     10  C   UNL     1       4.170   7.170  17.642  0.00  0.00    +0.000 A 
ATOM     11  C   UNL     1       2.948   6.800  18.214  0.00  0.00    +0.000 A 
ATOM     12  C   UNL     1       2.571   5.451  18.104  0.00  0.00    +0.000 A 
ATOM     13  C   UNL     1       3.386   4.520  17.431  0.00  0.00    +0.000 A 
BRANCH   8  14
ATOM     14  O   UNL     1       5.342   3.938  16.251  0.00  0.00    +0.000 OA
BRANCH  14  15
ATOM     15  C   UNL     1       6.098   4.403  15.125  0.00  0.00    +0.000 C 
BRANCH  15  17
ATOM     16  C   UNL     1       6.553   3.817  12.750  0.00  0.00    +0.000 C 
ATOM     17  C   UNL     1       5.472   3.954  13.813  0.00  0.00    +0.000 C 
ENDBRANCH  15  17
ENDBRANCH  14  15
ENDBRANCH   8  14
ENDBRANCH   1  11
BRANCH   5  18
ATOM     18  S   UNL     1       1.183  11.370  19.459  0.00  0.00    +0.000 S 
BRANCH  18  19
ATOM     19  C   UNL     1      -0.300  12.251  19.154  0.00  0.00    +0.000 C 
ATOM     20  N   UNL     1      -0.420  13.499  18.882  0.00  0.00    +0.000 NA
ATOM     21  C   UNL     1       0.579  14.527  18.844  0.00  0.00    +0.000 C 
ATOM     22  N   UNL     1      -1.394  11.434  19.282  0.00  0.00    +0.000 N 
ATOM     23  H   UNL     1      -1.257  10.546  19.748  0.00  0.00    +0.000 HD
BRANCH  22  24
ATOM     24  C   UNL     1      -2.657  11.638  18.700  0.00  0.00    +0.000 A 
ATOM     25  C   UNL     1      -3.737  12.135  19.447  0.00  0.00    +0.000 A 
ATOM     26  C   UNL     1      -4.995  12.315  18.874  0.00  0.00    +0.000 A 
ATOM     27  C   UNL     1      -5.190  11.974  17.545  0.00  0.00    +0.000 A 
ATOM     28  F   UNL     1      -6.395  12.149  16.990  0.00  0.00    +0.000 F 
ATOM     29  C   UNL     1      -4.151  11.448  16.786  0.00  0.00    +0.000 A 
ATOM     30  C   UNL     1      -2.886  11.278  17.363  0.00  0.00    +0.000 A 
ENDBRANCH  22  24
ENDBRANCH  18  19
ENDBRANCH   5  18
TORSDOF 7
ENDMDL
MODEL 2
REMARK VINA RESULT:      -7.3      1.398      1.626
REMARK  Name = 
REMARK  9 active torsions:
REMARK  status: ('A' for Active; 'I' for Inactive)
REMARK    1  A    between atoms: C_1  and  C_2
REMARK    2  A    between atoms: C_2  and  C_3
REMARK    3  A    between atoms: C_3  and  O_4
REMARK    4  A    between atoms: O_4  and  C_5
REMARK    5  A    between atoms: C_8  and  N_9
REMARK    6  A    between atoms: C_13  and  S_14
REMARK    7  A    between atoms: S_14  and  C_15
REMARK    8  A    between atoms: N_16  and  C_17
REMARK    9  A    between atoms: N_18  and  C_19
REMARK                            x       y       z     vdW  Elec       q    Type
REMARK                         _______ _______ _______ _____ _____    ______ ____
ROOT
ATOM      1  N   UNL     1       2.819   6.493  18.904  0.00  0.00    +0.000 N 
ATOM      2  C   UNL     1       2.441   6.006  20.134  0.00  0.00    +0.000 C 
ATOM      3  O   UNL     1       2.809   4.994  20.719  0.00  0.00    +0.000 OA
ATOM      4  C   UNL     1       1.459   6.936  20.766  0.00  0.00    +0.000 C 
ATOM      5  C   UNL     1       1.260   8.044  19.759  0.00  0.00    +0.000 C 
ATOM      6  C   UNL     1       2.213   7.697  18.629  0.00  0.00    +0.000 C 
ATOM      7  O   UNL     1       2.316   8.378  17.616  0.00  0.00    +0.000 OA
ENDROOT
BRANCH   1  11
ATOM      8  C   UNL     1       5.472   4.439  16.255  0.00  0.00    +0.000 A 
ATOM      9  C   UNL     1       5.776   5.697  16.757  0.00  0.00    +0.000 A 
ATOM     10  C   UNL     1       4.900   6.359  17.618  0.00  0.00    +0.000 A 
ATOM     11  C   UNL     1       3.684   5.789  18.009  0.00  0.00    +0.000 A 
ATOM     12  C   UNL     1       3.383   4.512  17.503  0.00  0.00    +0.000 A 
ATOM     13  C   UNL     1       4.265   3.850  16.628  0.00  0.00    +0.000 A 
BRANCH   8  14
ATOM     14  O   UNL     1       6.281   3.715  15.414  0.00  0.00    +0.000 OA
BRANCH  14  15
ATOM     15  C   UNL     1       6.454   4.302  14.118  0.00  0.00    +0.000 C 
BRANCH  15  17
ATOM     16  C   UNL     1       5.926   3.088  12.011  0.00  0.00    +0.000 C 
ATOM     17  C   UNL     1       5.341   3.886  13.168  0.00  0.00    +0.000 C 
ENDBRANCH  15  17
ENDBRANCH  14  15
ENDBRANCH   8  14
ENDBRANCH   1  11
BRANCH   5  18
ATOM     18  S   UNL     1       1.563   9.738  20.344  0.00  0.00    +0.000 S 
BRANCH  18  19
ATOM     19  C   UNL     1       0.518  10.755  19.374  0.00  0.00    +0.000 C 
ATOM     20  N   UNL     1       0.839  11.831  18.753  0.00  0.00    +0.000 NA
ATOM     21  C   UNL     1       2.080  12.548  18.749  0.00  0.00    +0.000 C 
ATOM     22  N   UNL     1      -0.770  10.282  19.375  0.00  0.00    +0.000 N 
ATOM     23  H   UNL     1      -1.011   9.599  20.080  0.00  0.00    +0.000 HD
BRANCH  22  24
ATOM     24  C   UNL     1      -1.751  10.539  18.401  0.00  0.00    +0.000 A 
ATOM     25  C   UNL     1      -2.858  11.358  18.673  0.00  0.00    +0.000 A 
ATOM     26  C   UNL     1      -3.841  11.593  17.713  0.00  0.00    +0.000 A 
ATOM     27  C   UNL     1      -3.736  10.984  16.473  0.00  0.00    +0.000 A 
ATOM     28  F   UNL     1      -4.677  11.210  15.547  0.00  0.00    +0.000 F 
ATOM     29  C   UNL     1      -2.670  10.140  16.182  0.00  0.00    +0.000 A 
ATOM     30  C   UNL     1      -1.680   9.916  17.145  0.00  0.00    +0.000 A 
ENDBRANCH  22  24
ENDBRANCH  18  19
ENDBRANCH   5  18
TORSDOF 7
ENDMDL
MODEL 3
REMARK VINA RESULT:      -7.3      2.510      3.311
REMARK  Name = 
REMARK  9 active torsions:
REMARK  status: ('A' for Active; 'I' for Inactive)
REMARK    1  A    between atoms: C_1  and  C_2
REMARK    2  A    between atoms: C_2  and  C_3
REMARK    3  A    between atoms: C_3  and  O_4
REMARK    4  A    between atoms: O_4  and  C_5
REMARK    5  A    between atoms: C_8  and  N_9
REMARK    6  A    between atoms: C_13  and  S_14
REMARK    7  A    between atoms: S_14  and  C_15
REMARK    8  A    between atoms: N_16  and  C_17
REMARK    9  A    between atoms: N_18  and  C_19
REMARK                            x       y       z     vdW  Elec       q    Type
REMARK                         _______ _______ _______ _____ _____    ______ ____
ROOT
ATOM      1  N   UNL     1       1.711   8.224  19.862  0.00  0.00    +0.000 N 
ATOM      2  C   UNL     1       1.677   8.888  18.658  0.00  0.00    +0.000 C 
ATOM      3  O   UNL     1       1.886   8.464  17.528  0.00  0.00    +0.000 OA
ATOM      4  C   UNL     1       1.298  10.315  18.877  0.00  0.00    +0.000 C 
ATOM      5  C   UNL     1       1.128  10.453  20.372  0.00  0.00    +0.000 C 
ATOM      6  C   UNL     1       1.360   9.051  20.905  0.00  0.00    +0.000 C 
ATOM      7  O   UNL     1       1.314   8.780  22.098  0.00  0.00    +0.000 OA
ENDROOT
BRANCH   1  11
ATOM      8  C   UNL     1       3.034   4.179  20.263  0.00  0.00    +0.000 A 
ATOM      9  C   UNL     1       3.801   5.133  19.608  0.00  0.00    +0.000 A 
ATOM     10  C   UNL     1       3.356   6.450  19.479  0.00  0.00    +0.000 A 
ATOM     11  C   UNL     1       2.125   6.863  20.001  0.00  0.00    +0.000 A 
ATOM     12  C   UNL     1       1.355   5.895  20.669  0.00  0.00    +0.000 A 
ATOM     13  C   UNL     1       1.802   4.565  20.789  0.00  0.00    +0.000 A 
BRANCH   8  14
ATOM     14  O   UNL     1       3.402   2.868  20.443  0.00  0.00    +0.000 OA
BRANCH  14  15
ATOM     15  C   UNL     1       3.627   2.150  19.223  0.00  0.00    +0.000 C 
BRANCH  15  17
ATOM     16  C   UNL     1       2.543   2.985  17.144  0.00  0.00    +0.000 C 
ATOM     17  C   UNL     1       2.369   2.098  18.369  0.00  0.00    +0.000 C 
ENDBRANCH  15  17
ENDBRANCH  14  15
ENDBRANCH   8  14
ENDBRANCH   1  11
BRANCH   5  18
ATOM     18  S   UNL     1      -0.471  11.094  20.952  0.00  0.00    +0.000 S 
BRANCH  18  19
ATOM     19  C   UNL     1      -1.302  11.635  19.508  0.00  0.00    +0.000 C 
ATOM     20  N   UNL     1      -1.175  12.767  18.917  0.00  0.00    +0.000 NA
ATOM     21  C   UNL     1      -0.417  13.920  19.303  0.00  0.00    +0.000 C 
ATOM     22  N   UNL     1      -2.188  10.686  19.064  0.00  0.00    +0.000 N 
ATOM     23  H   UNL     1      -2.431   9.944  19.706  0.00  0.00    +0.000 HD
BRANCH  22  24
ATOM     24  C   UNL     1      -2.680  10.557  17.753  0.00  0.00    +0.000 A 
ATOM     25  C   UNL     1      -1.948   9.891  16.757  0.00  0.00    +0.000 A 
ATOM     26  C   UNL     1      -2.427   9.785  15.453  0.00  0.00    +0.000 A 
ATOM     27  C   UNL     1      -3.640  10.369  15.126  0.00  0.00    +0.000 A 
ATOM     28  F   UNL     1      -4.105  10.266  13.875  0.00  0.00    +0.000 F 
ATOM     29  C   UNL     1      -4.374  11.065  16.080  0.00  0.00    +0.000 A 
ATOM     30  C   UNL     1      -3.894  11.160  17.391  0.00  0.00    +0.000 A 
ENDBRANCH  22  24
ENDBRANCH  18  19
ENDBRANCH   5  18
TORSDOF 7
ENDMDL
MODEL 4
REMARK VINA RESULT:      -7.3      2.534      3.482
REMARK  Name = 
REMARK  9 active torsions:
REMARK  status: ('A' for Active; 'I' for Inactive)
REMARK    1  A    between atoms: C_1  and  C_2
REMARK    2  A    between atoms: C_2  and  C_3
REMARK    3  A    between atoms: C_3  and  O_4
REMARK    4  A    between atoms: O_4  and  C_5
REMARK    5  A    between atoms: C_8  and  N_9
REMARK    6  A    between atoms: C_13  and  S_14
REMARK    7  A    between atoms: S_14  and  C_15
REMARK    8  A    between atoms: N_16  and  C_17
REMARK    9  A    between atoms: N_18  and  C_19
REMARK                            x       y       z     vdW  Elec       q    Type
REMARK                         _______ _______ _______ _____ _____    ______ ____
ROOT
ATOM      1  N   UNL     1       1.696   8.500  19.770  0.00  0.00    +0.000 N 
ATOM      2  C   UNL     1       1.706   9.167  18.566  0.00  0.00    +0.000 C 
ATOM      3  O   UNL     1       1.912   8.735  17.438  0.00  0.00    +0.000 OA
ATOM      4  C   UNL     1       1.383  10.608  18.782  0.00  0.00    +0.000 C 
ATOM      5  C   UNL     1       1.198  10.751  20.275  0.00  0.00    +0.000 C 
ATOM      6  C   UNL     1       1.365   9.340  20.809  0.00  0.00    +0.000 C 
ATOM      7  O   UNL     1       1.291   9.070  22.001  0.00  0.00    +0.000 OA
ENDROOT
BRANCH   1  11
ATOM      8  C   UNL     1       2.675   4.363  20.214  0.00  0.00    +0.000 A 
ATOM      9  C   UNL     1       1.508   4.896  20.747  0.00  0.00    +0.000 A 
ATOM     10  C   UNL     1       1.202   6.249  20.599  0.00  0.00    +0.000 A 
ATOM     11  C   UNL     1       2.052   7.123  19.913  0.00  0.00    +0.000 A 
ATOM     12  C   UNL     1       3.228   6.579  19.370  0.00  0.00    +0.000 A 
ATOM     13  C   UNL     1       3.539   5.214  19.528  0.00  0.00    +0.000 A 
BRANCH   8  14
ATOM     14  O   UNL     1       3.045   3.044  20.304  0.00  0.00    +0.000 OA
BRANCH  14  15
ATOM     15  C   UNL     1       2.095   2.128  19.744  0.00  0.00    +0.000 C 
BRANCH  15  17
ATOM     16  C   UNL     1       3.472   1.855  17.688  0.00  0.00    +0.000 C 
ATOM     17  C   UNL     1       2.088   2.198  18.224  0.00  0.00    +0.000 C 
ENDBRANCH  15  17
ENDBRANCH  14  15
ENDBRANCH   8  14
ENDBRANCH   1  11
BRANCH   5  18
ATOM     18  S   UNL     1      -0.381  11.457  20.833  0.00  0.00    +0.000 S 
BRANCH  18  19
ATOM     19  C   UNL     1      -1.228  11.910  19.368  0.00  0.00    +0.000 C 
ATOM     20  N   UNL     1      -1.080  12.986  18.687  0.00  0.00    +0.000 NA
ATOM     21  C   UNL     1      -0.277  14.141  18.964  0.00  0.00    +0.000 C 
ATOM     22  N   UNL     1      -2.153  10.958  19.020  0.00  0.00    +0.000 N 
ATOM     23  H   UNL     1      -2.404  10.277  19.724  0.00  0.00    +0.000 HD
BRANCH  22  24
ATOM     24  C   UNL     1      -2.679  10.742  17.734  0.00  0.00    +0.000 A 
ATOM     25  C   UNL     1      -2.015   9.936  16.796  0.00  0.00    +0.000 A 
ATOM     26  C   UNL     1      -2.526   9.741  15.514  0.00  0.00    +0.000 A 
ATOM     27  C   UNL     1      -3.702  10.377  15.150  0.00  0.00    +0.000 A 
ATOM     28  F   UNL     1      -4.198  10.190  13.921  0.00  0.00    +0.000 F 
ATOM     29  C   UNL     1      -4.367  11.209  16.043  0.00  0.00    +0.000 A 
ATOM     30  C   UNL     1      -3.855  11.393  17.333  0.00  0.00    +0.000 A 
ENDBRANCH  22  24
ENDBRANCH  18  19
ENDBRANCH   5  18
TORSDOF 7
ENDMDL
MODEL 5
REMARK VINA RESULT:      -7.3      1.500      2.067
REMARK  Name = 
REMARK  9 active torsions:
REMARK  status: ('A' for Active; 'I' for Inactive)
REMARK    1  A    between atoms: C_1  and  C_2
REMARK    2  A    between atoms: C_2  and  C_3
REMARK    3  A    between atoms: C_3  and  O_4
REMARK    4  A    between atoms: O_4  and  C_5
REMARK    5  A    between atoms: C_8  and  N_9
REMARK    6  A    between atoms: C_13  and  S_14
REMARK    7  A    between atoms: S_14  and  C_15
REMARK    8  A    between atoms: N_16  and  C_17
REMARK    9  A    between atoms: N_18  and  C_19
REMARK                            x       y       z     vdW  Elec       q    Type
REMARK                         _______ _______ _______ _____ _____    ______ ____
ROOT
ATOM      1  N   UNL     1       3.151   6.588  18.586  0.00  0.00    +0.000 N 
ATOM      2  C   UNL     1       2.822   5.966  19.768  0.00  0.00    +0.000 C 
ATOM      3  O   UNL     1       3.285   4.948  20.268  0.00  0.00    +0.000 OA
ATOM      4  C   UNL     1       1.757   6.742  20.468  0.00  0.00    +0.000 C 
ATOM      5  C   UNL     1       1.452   7.907  19.555  0.00  0.00    +0.000 C 
ATOM      6  C   UNL     1       2.432   7.748  18.407  0.00  0.00    +0.000 C 
ATOM      7  O   UNL     1       2.469   8.518  17.456  0.00  0.00    +0.000 OA
ENDROOT
BRANCH   1  11
ATOM      8  C   UNL     1       5.860   4.914  15.734  0.00  0.00    +0.000 A 
ATOM      9  C   UNL     1       4.738   4.219  16.166  0.00  0.00    +0.000 A 
ATOM     10  C   UNL     1       3.864   4.774  17.101  0.00  0.00    +0.000 A 
ATOM     11  C   UNL     1       4.078   6.047  17.641  0.00  0.00    +0.000 A 
ATOM     12  C   UNL     1       5.212   6.749  17.196  0.00  0.00    +0.000 A 
ATOM     13  C   UNL     1       6.098   6.182  16.259  0.00  0.00    +0.000 A 
BRANCH   8  14
ATOM     14  O   UNL     1       6.763   4.445  14.811  0.00  0.00    +0.000 OA
BRANCH  14  15
ATOM     15  C   UNL     1       6.163   3.880  13.638  0.00  0.00    +0.000 C 
BRANCH  15  17
ATOM     16  C   UNL     1       7.891   5.329  12.584  0.00  0.00    +0.000 C 
ATOM     17  C   UNL     1       7.049   4.072  12.416  0.00  0.00    +0.000 C 
ENDBRANCH  15  17
ENDBRANCH  14  15
ENDBRANCH   8  14
ENDBRANCH   1  11
BRANCH   5  18
ATOM     18  S   UNL     1       1.592   9.567  20.283  0.00  0.00    +0.000 S 
BRANCH  18  19
ATOM     19  C   UNL     1       0.583  10.594  19.285  0.00  0.00    +0.000 C 
ATOM     20  N   UNL     1       0.958  11.590  18.569  0.00  0.00    +0.000 NA
ATOM     21  C   UNL     1       2.251  12.198  18.452  0.00  0.00    +0.000 C 
ATOM     22  N   UNL     1      -0.736  10.232  19.381  0.00  0.00    +0.000 N 
ATOM     23  H   UNL     1      -0.995   9.625  20.147  0.00  0.00    +0.000 HD
BRANCH  22  24
ATOM     24  C   UNL     1      -1.742  10.498  18.435  0.00  0.00    +0.000 A 
ATOM     25  C   UNL     1      -2.809  11.364  18.723  0.00  0.00    +0.000 A 
ATOM     26  C   UNL     1      -3.818  11.608  17.792  0.00  0.00    +0.000 A 
ATOM     27  C   UNL     1      -3.779  10.963  16.567  0.00  0.00    +0.000 A 
ATOM     28  F   UNL     1      -4.745  11.198  15.669  0.00  0.00    +0.000 F 
ATOM     29  C   UNL     1      -2.755  10.074  16.262  0.00  0.00    +0.000 A 
ATOM     30  C   UNL     1      -1.739   9.840  17.196  0.00  0.00    +0.000 A 
ENDBRANCH  22  24
ENDBRANCH  18  19
ENDBRANCH   5  18
TORSDOF 7
ENDMDL
MODEL 6
REMARK VINA RESULT:      -7.2      1.438      2.128
REMARK  Name = 
REMARK  9 active torsions:
REMARK  status: ('A' for Active; 'I' for Inactive)
REMARK    1  A    between atoms: C_1  and  C_2
REMARK    2  A    between atoms: C_2  and  C_3
REMARK    3  A    between atoms: C_3  and  O_4
REMARK    4  A    between atoms: O_4  and  C_5
REMARK    5  A    between atoms: C_8  and  N_9
REMARK    6  A    between atoms: C_13  and  S_14
REMARK    7  A    between atoms: S_14  and  C_15
REMARK    8  A    between atoms: N_16  and  C_17
REMARK    9  A    between atoms: N_18  and  C_19
REMARK                            x       y       z     vdW  Elec       q    Type
REMARK                         _______ _______ _______ _____ _____    ______ ____
ROOT
ATOM      1  N   UNL     1       2.994   6.687  18.769  0.00  0.00    +0.000 N 
ATOM      2  C   UNL     1       2.676   6.070  19.957  0.00  0.00    +0.000 C 
ATOM      3  O   UNL     1       3.158   5.066  20.467  0.00  0.00    +0.000 OA
ATOM      4  C   UNL     1       1.595   6.833  20.649  0.00  0.00    +0.000 C 
ATOM      5  C   UNL     1       1.270   7.982  19.725  0.00  0.00    +0.000 C 
ATOM      6  C   UNL     1       2.254   7.831  18.579  0.00  0.00    +0.000 C 
ATOM      7  O   UNL     1       2.276   8.593  17.621  0.00  0.00    +0.000 OA
ENDROOT
BRANCH   1  11
ATOM      8  C   UNL     1       5.739   5.034  15.939  0.00  0.00    +0.000 A 
ATOM      9  C   UNL     1       4.668   4.297  16.429  0.00  0.00    +0.000 A 
ATOM     10  C   UNL     1       3.782   4.846  17.357  0.00  0.00    +0.000 A 
ATOM     11  C   UNL     1       3.932   6.154  17.830  0.00  0.00    +0.000 A 
ATOM     12  C   UNL     1       5.013   6.898  17.326  0.00  0.00    +0.000 A 
ATOM     13  C   UNL     1       5.912   6.338  16.397  0.00  0.00    +0.000 A 
BRANCH   8  14
ATOM     14  O   UNL     1       6.649   4.574  15.019  0.00  0.00    +0.000 OA
BRANCH  14  15
ATOM     15  C   UNL     1       6.139   3.556  14.148  0.00  0.00    +0.000 C 
BRANCH  15  17
ATOM     16  C   UNL     1       5.816   2.817  11.793  0.00  0.00    +0.000 C 
ATOM     17  C   UNL     1       6.481   3.849  12.694  0.00  0.00    +0.000 C 
ENDBRANCH  15  17
ENDBRANCH  14  15
ENDBRANCH   8  14
ENDBRANCH   1  11
BRANCH   5  18
ATOM     18  S   UNL     1       1.378   9.652  20.436  0.00  0.00    +0.000 S 
BRANCH  18  19
ATOM     19  C   UNL     1       0.370  10.655  19.413  0.00  0.00    +0.000 C 
ATOM     20  N   UNL     1       0.714  11.723  18.792  0.00  0.00    +0.000 NA
ATOM     21  C   UNL     1       1.955  12.441  18.826  0.00  0.00    +0.000 C 
ATOM     22  N   UNL     1      -0.917  10.180  19.371  0.00  0.00    +0.000 N 
ATOM     23  H   UNL     1      -1.184   9.506  20.075  0.00  0.00    +0.000 HD
BRANCH  22  24
ATOM     24  C   UNL     1      -1.859  10.423  18.356  0.00  0.00    +0.000 A 
ATOM     25  C   UNL     1      -1.756   9.811  17.097  0.00  0.00    +0.000 A 
ATOM     26  C   UNL     1      -2.678  10.071  16.085  0.00  0.00    +0.000 A 
ATOM     27  C   UNL     1      -3.704  10.973  16.318  0.00  0.00    +0.000 A 
ATOM     28  F   UNL     1      -4.593  11.223  15.349  0.00  0.00    +0.000 F 
ATOM     29  C   UNL     1      -3.816  11.622  17.542  0.00  0.00    +0.000 A 
ATOM     30  C   UNL     1      -2.893  11.349  18.559  0.00  0.00    +0.000 A 
ENDBRANCH  22  24
ENDBRANCH  18  19
ENDBRANCH   5  18
TORSDOF 7
ENDMDL
MODEL 7
REMARK VINA RESULT:      -7.2      5.186     11.109
REMARK  Name = 
REMARK  9 active torsions:
REMARK  status: ('A' for Active; 'I' for Inactive)
REMARK    1  A    between atoms: C_1  and  C_2
REMARK    2  A    between atoms: C_2  and  C_3
REMARK    3  A    between atoms: C_3  and  O_4
REMARK    4  A    between atoms: O_4  and  C_5
REMARK    5  A    between atoms: C_8  and  N_9
REMARK    6  A    between atoms: C_13  and  S_14
REMARK    7  A    between atoms: S_14  and  C_15
REMARK    8  A    between atoms: N_16  and  C_17
REMARK    9  A    between atoms: N_18  and  C_19
REMARK                            x       y       z     vdW  Elec       q    Type
REMARK                         _______ _______ _______ _____ _____    ______ ____
ROOT
ATOM      1  N   UNL     1      -1.050  11.352  21.960  0.00  0.00    +0.000 N 
ATOM      2  C   UNL     1      -1.188  11.314  20.592  0.00  0.00    +0.000 C 
ATOM      3  O   UNL     1      -1.704  12.130  19.838  0.00  0.00    +0.000 OA
ATOM      4  C   UNL     1      -0.560  10.071  20.055  0.00  0.00    +0.000 C 
ATOM      5  C   UNL     1      -0.042   9.334  21.267  0.00  0.00    +0.000 C 
ATOM      6  C   UNL     1      -0.357  10.260  22.429  0.00  0.00    +0.000 C 
ATOM      7  O   UNL     1      -0.086   9.980  23.590  0.00  0.00    +0.000 OA
ENDROOT
BRANCH   1  11
ATOM      8  C   UNL     1      -2.815  14.342  24.454  0.00  0.00    +0.000 A 
ATOM      9  C   UNL     1      -3.483  13.163  24.149  0.00  0.00    +0.000 A 
ATOM     10  C   UNL     1      -2.898  12.197  23.330  0.00  0.00    +0.000 A 
ATOM     11  C   UNL     1      -1.622  12.372  22.783  0.00  0.00    +0.000 A 
ATOM     12  C   UNL     1      -0.947  13.564  23.100  0.00  0.00    +0.000 A 
ATOM     13  C   UNL     1      -1.544  14.542  23.919  0.00  0.00    +0.000 A 
BRANCH   8  14
ATOM     14  O   UNL     1      -3.313  15.337  25.258  0.00  0.00    +0.000 OA
BRANCH  14  15
ATOM     15  C   UNL     1      -3.939  16.411  24.544  0.00  0.00    +0.000 C 
BRANCH  15  17
ATOM     16  C   UNL     1      -5.290  18.310  25.417  0.00  0.00    +0.000 C 
ATOM     17  C   UNL     1      -3.895  17.707  25.340  0.00  0.00    +0.000 C 
ENDBRANCH  15  17
ENDBRANCH  14  15
ENDBRANCH   8  14
ENDBRANCH   1  11
BRANCH   5  18
ATOM     18  S   UNL     1       1.723   8.901  21.262  0.00  0.00    +0.000 S 
BRANCH  18  19
ATOM     19  C   UNL     1       1.869   7.573  20.130  0.00  0.00    +0.000 C 
ATOM     20  N   UNL     1       2.116   7.647  18.873  0.00  0.00    +0.000 NA
ATOM     21  C   UNL     1       2.245   8.802  18.033  0.00  0.00    +0.000 C 
ATOM     22  N   UNL     1       1.639   6.370  20.748  0.00  0.00    +0.000 N 
ATOM     23  H   UNL     1       1.198   6.395  21.658  0.00  0.00    +0.000 HD
BRANCH  22  24
ATOM     24  C   UNL     1       2.089   5.112  20.312  0.00  0.00    +0.000 A 
ATOM     25  C   UNL     1       3.434   4.890  19.975  0.00  0.00    +0.000 A 
ATOM     26  C   UNL     1       3.873   3.648  19.520  0.00  0.00    +0.000 A 
ATOM     27  C   UNL     1       2.959   2.617  19.375  0.00  0.00    +0.000 A 
ATOM     28  F   UNL     1       3.378   1.422  18.942  0.00  0.00    +0.000 F 
ATOM     29  C   UNL     1       1.614   2.812  19.668  0.00  0.00    +0.000 A 
ATOM     30  C   UNL     1       1.179   4.058  20.134  0.00  0.00    +0.000 A 
ENDBRANCH  22  24
ENDBRANCH  18  19
ENDBRANCH   5  18
TORSDOF 7
ENDMDL
MODEL 8
REMARK VINA RESULT:      -7.1      1.007      1.475
REMARK  Name = 
REMARK  9 active torsions:
REMARK  status: ('A' for Active; 'I' for Inactive)
REMARK    1  A    between atoms: C_1  and  C_2
REMARK    2  A    between atoms: C_2  and  C_3
REMARK    3  A    between atoms: C_3  and  O_4
REMARK    4  A    between atoms: O_4  and  C_5
REMARK    5  A    between atoms: C_8  and  N_9
REMARK    6  A    between atoms: C_13  and  S_14
REMARK    7  A    between atoms: S_14  and  C_15
REMARK    8  A    between atoms: N_16  and  C_17
REMARK    9  A    between atoms: N_18  and  C_19
REMARK                            x       y       z     vdW  Elec       q    Type
REMARK                         _______ _______ _______ _____ _____    ______ ____
ROOT
ATOM      1  N   UNL     1       1.965   8.065  19.055  0.00  0.00    +0.000 N 
ATOM      2  C   UNL     1       1.528   7.854  20.343  0.00  0.00    +0.000 C 
ATOM      3  O   UNL     1       1.822   6.962  21.129  0.00  0.00    +0.000 OA
ATOM      4  C   UNL     1       0.585   8.940  20.741  0.00  0.00    +0.000 C 
ATOM      5  C   UNL     1       0.476   9.833  19.528  0.00  0.00    +0.000 C 
ATOM      6  C   UNL     1       1.436   9.220  18.525  0.00  0.00    +0.000 C 
ATOM      7  O   UNL     1       1.604   9.679  17.402  0.00  0.00    +0.000 OA
ENDROOT
BRANCH   1  11
ATOM      8  C   UNL     1       4.555   5.405  16.937  0.00  0.00    +0.000 A 
ATOM      9  C   UNL     1       4.697   6.783  16.846  0.00  0.00    +0.000 A 
ATOM     10  C   UNL     1       3.842   7.641  17.538  0.00  0.00    +0.000 A 
ATOM     11  C   UNL     1       2.811   7.154  18.349  0.00  0.00    +0.000 A 
ATOM     12  C   UNL     1       2.675   5.758  18.444  0.00  0.00    +0.000 A 
ATOM     13  C   UNL     1       3.534   4.894  17.736  0.00  0.00    +0.000 A 
BRANCH   8  14
ATOM     14  O   UNL     1       5.358   4.492  16.298  0.00  0.00    +0.000 OA
BRANCH  14  15
ATOM     15  C   UNL     1       6.755   4.808  16.342  0.00  0.00    +0.000 C 
BRANCH  15  17
ATOM     16  C   UNL     1       7.709   5.845  18.394  0.00  0.00    +0.000 C 
ATOM     17  C   UNL     1       7.343   4.531  17.718  0.00  0.00    +0.000 C 
ENDBRANCH  15  17
ENDBRANCH  14  15
ENDBRANCH   8  14
ENDBRANCH   1  11
BRANCH   5  18
ATOM     18  S   UNL     1       0.860  11.593  19.778  0.00  0.00    +0.000 S 
BRANCH  18  19
ATOM     19  C   UNL     1      -0.619  12.447  19.390  0.00  0.00    +0.000 C 
ATOM     20  N   UNL     1      -0.742  13.685  19.078  0.00  0.00    +0.000 NA
ATOM     21  C   UNL     1       0.246  14.724  19.052  0.00  0.00    +0.000 C 
ATOM     22  N   UNL     1      -1.709  11.620  19.496  0.00  0.00    +0.000 N 
ATOM     23  H   UNL     1      -1.580  10.748  19.991  0.00  0.00    +0.000 HD
BRANCH  22  24
ATOM     24  C   UNL     1      -2.950  11.794  18.858  0.00  0.00    +0.000 A 
ATOM     25  C   UNL     1      -4.058  12.319  19.542  0.00  0.00    +0.000 A 
ATOM     26  C   UNL     1      -5.294  12.469  18.914  0.00  0.00    +0.000 A 
ATOM     27  C   UNL     1      -5.437  12.068  17.596  0.00  0.00    +0.000 A 
ATOM     28  F   UNL     1      -6.622  12.213  16.989  0.00  0.00    +0.000 F 
ATOM     29  C   UNL     1      -4.369  11.513  16.900  0.00  0.00    +0.000 A 
ATOM     30  C   UNL     1      -3.127  11.374  17.531  0.00  0.00    +0.000 A 
ENDBRANCH  22  24
ENDBRANCH  18  19
ENDBRANCH   5  18
TORSDOF 7
ENDMDL
MODEL 9
REMARK VINA RESULT:      -7.1      2.623      3.337
REMARK  Name = 
REMARK  9 active torsions:
REMARK  status: ('A' for Active; 'I' for Inactive)
REMARK    1  A    between atoms: C_1  and  C_2
REMARK    2  A    between atoms: C_2  and  C_3
REMARK    3  A    between atoms: C_3  and  O_4
REMARK    4  A    between atoms: O_4  and  C_5
REMARK    5  A    between atoms: C_8  and  N_9
REMARK    6  A    between atoms: C_13  and  S_14
REMARK    7  A    between atoms: S_14  and  C_15
REMARK    8  A    between atoms: N_16  and  C_17
REMARK    9  A    between atoms: N_18  and  C_19
REMARK                            x       y       z     vdW  Elec       q    Type
REMARK                         _______ _______ _______ _____ _____    ______ ____
ROOT
ATOM      1  N   UNL     1       2.170   7.671  18.988  0.00  0.00    +0.000 N 
ATOM      2  C   UNL     1       1.692   7.580  20.274  0.00  0.00    +0.000 C 
ATOM      3  O   UNL     1       1.865   6.701  21.109  0.00  0.00    +0.000 OA
ATOM      4  C   UNL     1       0.880   8.790  20.599  0.00  0.00    +0.000 C 
ATOM      5  C   UNL     1       0.897   9.626  19.341  0.00  0.00    +0.000 C 
ATOM      6  C   UNL     1       1.791   8.851  18.390  0.00  0.00    +0.000 C 
ATOM      7  O   UNL     1       2.030   9.229  17.250  0.00  0.00    +0.000 OA
ENDROOT
BRANCH   1  11
ATOM      8  C   UNL     1       4.308   4.520  17.046  0.00  0.00    +0.000 A 
ATOM      9  C   UNL     1       2.992   4.358  17.459  0.00  0.00    +0.000 A 
ATOM     10  C   UNL     1       2.306   5.393  18.096  0.00  0.00    +0.000 A 
ATOM     11  C   UNL     1       2.911   6.630  18.345  0.00  0.00    +0.000 A 
ATOM     12  C   UNL     1       4.241   6.791  17.920  0.00  0.00    +0.000 A 
ATOM     13  C   UNL     1       4.934   5.742  17.285  0.00  0.00    +0.000 A 
BRANCH   8  14
ATOM     14  O   UNL     1       5.049   3.559  16.404  0.00  0.00    +0.000 OA
BRANCH  14  15
ATOM     15  C   UNL     1       6.216   4.063  15.741  0.00  0.00    +0.000 C 
BRANCH  15  17
ATOM     16  C   UNL     1       7.185   4.846  13.586  0.00  0.00    +0.000 C 
ATOM     17  C   UNL     1       6.023   4.103  14.232  0.00  0.00    +0.000 C 
ENDBRANCH  15  17
ENDBRANCH  14  15
ENDBRANCH   8  14
ENDBRANCH   1  11
BRANCH   5  18
ATOM     18  S   UNL     1       1.486  11.338  19.511  0.00  0.00    +0.000 S 
BRANCH  18  19
ATOM     19  C   UNL     1       0.100  12.248  20.077  0.00  0.00    +0.000 C 
ATOM     20  N   UNL     1      -0.903  12.647  19.383  0.00  0.00    +0.000 NA
ATOM     21  C   UNL     1      -1.132  12.555  17.971  0.00  0.00    +0.000 C 
ATOM     22  N   UNL     1       0.217  12.546  21.411  0.00  0.00    +0.000 N 
ATOM     23  H   UNL     1       1.130  12.438  21.831  0.00  0.00    +0.000 HD
BRANCH  22  24
ATOM     24  C   UNL     1      -0.838  12.845  22.291  0.00  0.00    +0.000 A 
ATOM     25  C   UNL     1      -0.891  14.064  22.985  0.00  0.00    +0.000 A 
ATOM     26  C   UNL     1      -1.925  14.349  23.875  0.00  0.00    +0.000 A 
ATOM     27  C   UNL     1      -2.908  13.399  24.098  0.00  0.00    +0.000 A 
ATOM     28  F   UNL     1      -3.905  13.671  24.950  0.00  0.00    +0.000 F 
ATOM     29  C   UNL     1      -2.868  12.169  23.453  0.00  0.00    +0.000 A 
ATOM     30  C   UNL     1      -1.833  11.891  22.552  0.00  0.00    +0.000 A 
ENDBRANCH  22  24
ENDBRANCH  18  19
ENDBRANCH   5  18
TORSDOF 7
ENDMDL
