MODEL 1
REMARK VINA RESULT:      -6.6      0.000      0.000
REMARK  Name = 
REMARK  6 active torsions:
REMARK  status: ('A' for Active; 'I' for Inactive)
REMARK    1  A    between atoms: C_1  and  O_2
REMARK    2  A    between atoms: O_2  and  C_3
REMARK    3  A    between atoms: C_3  and  C_5
REMARK    4  A    between atoms: C_10  and  S_11
REMARK    5  A    between atoms: S_11  and  N_14
REMARK    6  A    between atoms: N_14  and  C_15
REMARK                            x       y       z     vdW  Elec       q    Type
REMARK                         _______ _______ _______ _____ _____    ______ ____
ROOT
ATOM      1  C   UNL     1      -0.276  13.022  21.214  0.00  0.00    +0.000 C 
ATOM      2  C   UNL     1      -0.255  11.666  20.486  0.00  0.00    +0.000 C 
ATOM      3  C   UNL     1      -1.070  11.702  19.193  0.00  0.00    +0.000 C 
ATOM      4  C   UNL     1      -1.143  10.329  18.527  0.00  0.00    +0.000 C 
ATOM      5  C   UNL     1      -2.062  10.322  17.299  0.00  0.00    +0.000 C 
ATOM      6  C   UNL     1      -3.521   9.966  17.616  0.00  0.00    +0.000 C 
ATOM      7  C   UNL     1      -4.377  11.151  18.079  0.00  0.00    +0.000 C 
ATOM      8  C   UNL     1      -5.824  10.719  18.328  0.00  0.00    +0.000 C 
ATOM      9  C   UNL     1      -6.753  11.865  18.758  0.00  0.00    +0.000 C 
ATOM     10  C   UNL     1      -6.821  12.081  20.275  0.00  0.00    +0.000 C 
ATOM     11  C   UNL     1      -5.899  13.189  20.777  0.00  0.00    +0.000 C 
ATOM     12  C   UNL     1      -5.661  13.092  22.271  0.00  0.00    +0.000 C 
ATOM     13  O   UNL     1      -6.023  12.153  22.967  0.00  0.00    +0.000 OA
ATOM     14  N   UNL     1      -4.824  14.092  22.746  0.00  0.00    +0.000 N 
ATOM     15  C   UNL     1      -3.538  13.661  23.267  0.00  0.00    +0.000 C 
ATOM     16  C   UNL     1      -2.564  13.603  22.092  0.00  0.00    +0.000 C 
ATOM     17  C   UNL     1      -1.191  13.066  22.455  0.00  0.00    +0.000 C 
ATOM     18  H   UNL     1      -4.787  14.942  22.199  0.00  0.00    +0.000 HD
ENDROOT
BRANCH   1  19
ATOM     19  N   UNL     1       1.065  13.498  21.576  0.00  0.00    +0.000 NA
ATOM     20  H   UNL     1       1.615  12.884  22.201  0.00  0.00    +0.000 HD
BRANCH  19  21
ATOM     21  S   UNL     1       1.463  15.106  21.792  0.00  0.00    +0.000 S 
ATOM     22  O   UNL     1       2.827  15.300  21.370  0.00  0.00    +0.000 OA
ATOM     23  O   UNL     1       1.036  15.505  23.113  0.00  0.00    +0.000 OA
BRANCH  21  29
ATOM     24  C   UNL     1       0.584  15.865  19.261  0.00  0.00    +0.000 A 
ATOM     25  C   UNL     1      -0.328  16.530  18.425  0.00  0.00    +0.000 A 
ATOM     26  C   UNL     1      -1.368  17.293  18.965  0.00  0.00    +0.000 A 
ATOM     27  C   UNL     1      -1.517  17.401  20.344  0.00  0.00    +0.000 A 
ATOM     28  C   UNL     1      -0.641  16.727  21.189  0.00  0.00    +0.000 A 
ATOM     29  C   UNL     1       0.414  15.968  20.651  0.00  0.00    +0.000 A 
BRANCH  24  30
ATOM     30  C   UNL     1       1.768  15.220  18.631  0.00  0.00    +0.000 C 
ATOM     31  O   UNL     1       2.748  15.842  18.252  0.00  0.00    +0.000 OA
BRANCH  30  33
ATOM     32  C   UNL     1       2.717  13.091  18.323  0.00  0.00    +0.000 C 
ATOM     33  O   UNL     1       1.539  13.897  18.434  0.00  0.00    +0.000 OA
ENDBRANCH  30  33
ENDBRANCH  24  30
ENDBRANCH  21  29
ENDBRANCH  19  21
ENDBRANCH   1  19
TORSDOF 5
ENDMDL
MODEL 2
REMARK VINA RESULT:      -6.6      1.348      2.497
REMARK  Name = 
REMARK  6 active torsions:
REMARK  status: ('A' for Active; 'I' for Inactive)
REMARK    1  A    between atoms: C_1  and  O_2
REMARK    2  A    between atoms: O_2  and  C_3
REMARK    3  A    between atoms: C_3  and  C_5
REMARK    4  A    between atoms: C_10  and  S_11
REMARK    5  A    between atoms: S_11  and  N_14
REMARK    6  A    between atoms: N_14  and  C_15
REMARK                            x       y       z     vdW  Elec       q    Type
REMARK                         _______ _______ _______ _____ _____    ______ ____
ROOT
ATOM      1  C   UNL     1      -0.841  12.287  21.026  0.00  0.00    +0.000 C 
ATOM      2  C   UNL     1      -1.013  11.200  19.951  0.00  0.00    +0.000 C 
ATOM      3  C   UNL     1      -1.796  11.715  18.742  0.00  0.00    +0.000 C 
ATOM      4  C   UNL     1      -2.065  10.609  17.724  0.00  0.00    +0.000 C 
ATOM      5  C   UNL     1      -2.959  11.080  16.570  0.00  0.00    +0.000 C 
ATOM      6  C   UNL     1      -4.458  10.869  16.817  0.00  0.00    +0.000 C 
ATOM      7  C   UNL     1      -5.133  11.990  17.616  0.00  0.00    +0.000 C 
ATOM      8  C   UNL     1      -6.632  11.724  17.777  0.00  0.00    +0.000 C 
ATOM      9  C   UNL     1      -7.384  12.828  18.535  0.00  0.00    +0.000 C 
ATOM     10  C   UNL     1      -7.440  12.620  20.054  0.00  0.00    +0.000 C 
ATOM     11  C   UNL     1      -6.369  13.396  20.817  0.00  0.00    +0.000 C 
ATOM     12  C   UNL     1      -6.169  12.852  22.218  0.00  0.00    +0.000 C 
ATOM     13  O   UNL     1      -6.676  11.820  22.636  0.00  0.00    +0.000 OA
ATOM     14  N   UNL     1      -5.198  13.545  22.927  0.00  0.00    +0.000 N 
ATOM     15  C   UNL     1      -3.998  12.801  23.270  0.00  0.00    +0.000 C 
ATOM     16  C   UNL     1      -3.028  12.930  22.097  0.00  0.00    +0.000 C 
ATOM     17  C   UNL     1      -1.755  12.118  22.257  0.00  0.00    +0.000 C 
ATOM     18  H   UNL     1      -5.026  14.498  22.636  0.00  0.00    +0.000 HD
ENDROOT
BRANCH   1  19
ATOM     19  N   UNL     1       0.551  12.440  21.468  0.00  0.00    +0.000 NA
ATOM     20  H   UNL     1       0.711  12.429  22.489  0.00  0.00    +0.000 HD
BRANCH  19  21
ATOM     21  S   UNL     1       1.687  13.377  20.679  0.00  0.00    +0.000 S 
ATOM     22  O   UNL     1       2.056  12.714  19.454  0.00  0.00    +0.000 OA
ATOM     23  O   UNL     1       2.695  13.769  21.637  0.00  0.00    +0.000 OA
BRANCH  21  29
ATOM     24  C   UNL     1       0.563  15.873  21.191  0.00  0.00    +0.000 A 
ATOM     25  C   UNL     1      -0.086  17.041  20.758  0.00  0.00    +0.000 A 
ATOM     26  C   UNL     1      -0.497  17.179  19.428  0.00  0.00    +0.000 A 
ATOM     27  C   UNL     1      -0.264  16.158  18.512  0.00  0.00    +0.000 A 
ATOM     28  C   UNL     1       0.403  15.005  18.915  0.00  0.00    +0.000 A 
ATOM     29  C   UNL     1       0.808  14.856  20.253  0.00  0.00    +0.000 A 
BRANCH  24  30
ATOM     30  C   UNL     1       0.814  15.712  22.649  0.00  0.00    +0.000 C 
ATOM     31  O   UNL     1       1.784  16.188  23.218  0.00  0.00    +0.000 OA
BRANCH  30  33
ATOM     32  C   UNL     1      -1.046  15.505  24.073  0.00  0.00    +0.000 C 
ATOM     33  O   UNL     1      -0.101  14.876  23.199  0.00  0.00    +0.000 OA
ENDBRANCH  30  33
ENDBRANCH  24  30
ENDBRANCH  21  29
ENDBRANCH  19  21
ENDBRANCH   1  19
TORSDOF 5
ENDMDL
MODEL 3
REMARK VINA RESULT:      -6.2      1.798      2.622
REMARK  Name = 
REMARK  6 active torsions:
REMARK  status: ('A' for Active; 'I' for Inactive)
REMARK    1  A    between atoms: C_1  and  O_2
REMARK    2  A    between atoms: O_2  and  C_3
REMARK    3  A    between atoms: C_3  and  C_5
REMARK    4  A    between atoms: C_10  and  S_11
REMARK    5  A    between atoms: S_11  and  N_14
REMARK    6  A    between atoms: N_14  and  C_15
REMARK                            x       y       z     vdW  Elec       q    Type
REMARK                         _______ _______ _______ _____ _____    ______ ____
ROOT
ATOM      1  C   UNL     1      -0.219  12.857  21.188  0.00  0.00    +0.000 C 
ATOM      2  C   UNL     1      -0.236  11.521  20.427  0.00  0.00    +0.000 C 
ATOM      3  C   UNL     1      -1.041  11.614  19.130  0.00  0.00    +0.000 C 
ATOM      4  C   UNL     1      -1.152  10.261  18.429  0.00  0.00    +0.000 C 
ATOM      5  C   UNL     1      -2.063  10.314  17.196  0.00  0.00    +0.000 C 
ATOM      6  C   UNL     1      -3.534   9.997  17.495  0.00  0.00    +0.000 C 
ATOM      7  C   UNL     1      -4.356  11.195  17.983  0.00  0.00    +0.000 C 
ATOM      8  C   UNL     1      -5.817  10.803  18.212  0.00  0.00    +0.000 C 
ATOM      9  C   UNL     1      -6.712  11.967  18.666  0.00  0.00    +0.000 C 
ATOM     10  C   UNL     1      -6.784  12.147  20.188  0.00  0.00    +0.000 C 
ATOM     11  C   UNL     1      -5.831  13.213  20.723  0.00  0.00    +0.000 C 
ATOM     12  C   UNL     1      -5.606  13.070  22.215  0.00  0.00    +0.000 C 
ATOM     13  O   UNL     1      -6.002  12.126  22.885  0.00  0.00    +0.000 OA
ATOM     14  N   UNL     1      -4.742  14.031  22.720  0.00  0.00    +0.000 N 
ATOM     15  C   UNL     1      -3.473  13.547  23.238  0.00  0.00    +0.000 C 
ATOM     16  C   UNL     1      -2.493  13.488  22.067  0.00  0.00    +0.000 C 
ATOM     17  C   UNL     1      -1.140  12.899  22.425  0.00  0.00    +0.000 C 
ATOM     18  H   UNL     1      -4.674  14.893  22.195  0.00  0.00    +0.000 HD
ENDROOT
BRANCH   1  19
ATOM     19  N   UNL     1       1.133  13.281  21.570  0.00  0.00    +0.000 NA
ATOM     20  H   UNL     1       1.602  12.716  22.299  0.00  0.00    +0.000 HD
BRANCH  19  21
ATOM     21  S   UNL     1       1.641  14.872  21.610  0.00  0.00    +0.000 S 
ATOM     22  O   UNL     1       2.688  14.994  22.593  0.00  0.00    +0.000 OA
ATOM     23  O   UNL     1       0.473  15.719  21.670  0.00  0.00    +0.000 OA
BRANCH  21  29
ATOM     24  C   UNL     1       2.815  16.401  19.600  0.00  0.00    +0.000 A 
ATOM     25  C   UNL     1       3.433  16.513  18.343  0.00  0.00    +0.000 A 
ATOM     26  C   UNL     1       3.575  15.396  17.515  0.00  0.00    +0.000 A 
ATOM     27  C   UNL     1       3.109  14.151  17.927  0.00  0.00    +0.000 A 
ATOM     28  C   UNL     1       2.520  14.014  19.180  0.00  0.00    +0.000 A 
ATOM     29  C   UNL     1       2.364  15.136  20.012  0.00  0.00    +0.000 A 
BRANCH  24  30
ATOM     30  C   UNL     1       2.534  17.652  20.355  0.00  0.00    +0.000 C 
ATOM     31  O   UNL     1       1.590  18.386  20.107  0.00  0.00    +0.000 OA
BRANCH  30  33
ATOM     32  C   UNL     1       3.097  18.456  22.492  0.00  0.00    +0.000 C 
ATOM     33  O   UNL     1       3.528  17.905  21.243  0.00  0.00    +0.000 OA
ENDBRANCH  30  33
ENDBRANCH  24  30
ENDBRANCH  21  29
ENDBRANCH  19  21
ENDBRANCH   1  19
TORSDOF 5
ENDMDL
MODEL 4
REMARK VINA RESULT:      -6.2      2.994      4.807
REMARK  Name = 
REMARK  6 active torsions:
REMARK  status: ('A' for Active; 'I' for Inactive)
REMARK    1  A    between atoms: C_1  and  O_2
REMARK    2  A    between atoms: O_2  and  C_3
REMARK    3  A    between atoms: C_3  and  C_5
REMARK    4  A    between atoms: C_10  and  S_11
REMARK    5  A    between atoms: S_11  and  N_14
REMARK    6  A    between atoms: N_14  and  C_15
REMARK                            x       y       z     vdW  Elec       q    Type
REMARK                         _______ _______ _______ _____ _____    ______ ____
ROOT
ATOM      1  C   UNL     1      -3.679  13.247  23.040  0.00  0.00    +0.000 C 
ATOM      2  C   UNL     1      -2.667  12.099  23.193  0.00  0.00    +0.000 C 
ATOM      3  C   UNL     1      -1.623  12.106  22.075  0.00  0.00    +0.000 C 
ATOM      4  C   UNL     1      -0.685  10.904  22.163  0.00  0.00    +0.000 C 
ATOM      5  C   UNL     1       0.283  10.828  20.975  0.00  0.00    +0.000 C 
ATOM      6  C   UNL     1      -0.247  10.010  19.791  0.00  0.00    +0.000 C 
ATOM      7  C   UNL     1      -1.149  10.793  18.830  0.00  0.00    +0.000 C 
ATOM      8  C   UNL     1      -1.593   9.917  17.657  0.00  0.00    +0.000 C 
ATOM      9  C   UNL     1      -2.470  10.648  16.628  0.00  0.00    +0.000 C 
ATOM     10  C   UNL     1      -3.974  10.579  16.924  0.00  0.00    +0.000 C 
ATOM     11  C   UNL     1      -4.512  11.811  17.646  0.00  0.00    +0.000 C 
ATOM     12  C   UNL     1      -5.854  11.542  18.298  0.00  0.00    +0.000 C 
ATOM     13  O   UNL     1      -6.371  10.436  18.380  0.00  0.00    +0.000 OA
ATOM     14  N   UNL     1      -6.360  12.651  18.960  0.00  0.00    +0.000 N 
ATOM     15  C   UNL     1      -6.477  12.540  20.405  0.00  0.00    +0.000 C 
ATOM     16  C   UNL     1      -5.140  12.970  21.006  0.00  0.00    +0.000 C 
ATOM     17  C   UNL     1      -5.063  12.811  22.514  0.00  0.00    +0.000 C 
ATOM     18  H   UNL     1      -6.033  13.553  18.639  0.00  0.00    +0.000 HD
ENDROOT
BRANCH   1  19
ATOM     19  N   UNL     1      -3.847  14.031  24.269  0.00  0.00    +0.000 NA
ATOM     20  H   UNL     1      -4.340  13.562  25.048  0.00  0.00    +0.000 HD
BRANCH  19  21
ATOM     21  S   UNL     1      -4.085  15.684  24.302  0.00  0.00    +0.000 S 
ATOM     22  O   UNL     1      -3.334  16.232  25.403  0.00  0.00    +0.000 OA
ATOM     23  O   UNL     1      -5.500  15.941  24.175  0.00  0.00    +0.000 OA
BRANCH  21  29
ATOM     24  C   UNL     1      -1.949  16.253  22.607  0.00  0.00    +0.000 A 
ATOM     25  C   UNL     1      -1.443  16.665  21.364  0.00  0.00    +0.000 A 
ATOM     26  C   UNL     1      -2.304  17.091  20.347  0.00  0.00    +0.000 A 
ATOM     27  C   UNL     1      -3.680  17.108  20.554  0.00  0.00    +0.000 A 
ATOM     28  C   UNL     1      -4.202  16.676  21.769  0.00  0.00    +0.000 A 
ATOM     29  C   UNL     1      -3.341  16.259  22.798  0.00  0.00    +0.000 A 
BRANCH  24  30
ATOM     30  C   UNL     1      -0.978  15.983  23.703  0.00  0.00    +0.000 C 
ATOM     31  O   UNL     1      -0.725  14.861  24.112  0.00  0.00    +0.000 OA
BRANCH  30  33
ATOM     32  C   UNL     1       0.140  17.013  25.497  0.00  0.00    +0.000 C 
ATOM     33  O   UNL     1      -0.535  17.147  24.241  0.00  0.00    +0.000 OA
ENDBRANCH  30  33
ENDBRANCH  24  30
ENDBRANCH  21  29
ENDBRANCH  19  21
ENDBRANCH   1  19
TORSDOF 5
ENDMDL
MODEL 5
REMARK VINA RESULT:      -6.2      1.972      2.887
REMARK  Name = 
REMARK  6 active torsions:
REMARK  status: ('A' for Active; 'I' for Inactive)
REMARK    1  A    between atoms: C_1  and  O_2
REMARK    2  A    between atoms: O_2  and  C_3
REMARK    3  A    between atoms: C_3  and  C_5
REMARK    4  A    between atoms: C_10  and  S_11
REMARK    5  A    between atoms: S_11  and  N_14
REMARK    6  A    between atoms: N_14  and  C_15
REMARK                            x       y       z     vdW  Elec       q    Type
REMARK                         _______ _______ _______ _____ _____    ______ ____
ROOT
ATOM      1  C   UNL     1      -1.643  13.292  22.922  0.00  0.00    +0.000 C 
ATOM      2  C   UNL     1      -0.828  12.099  22.395  0.00  0.00    +0.000 C 
ATOM      3  C   UNL     1      -0.671  12.143  20.874  0.00  0.00    +0.000 C 
ATOM      4  C   UNL     1       0.042  10.903  20.339  0.00  0.00    +0.000 C 
ATOM      5  C   UNL     1       0.091  10.872  18.806  0.00  0.00    +0.000 C 
ATOM      6  C   UNL     1      -1.101  10.156  18.159  0.00  0.00    +0.000 C 
ATOM      7  C   UNL     1      -2.341  11.037  17.965  0.00  0.00    +0.000 C 
ATOM      8  C   UNL     1      -3.464  10.260  17.273  0.00  0.00    +0.000 C 
ATOM      9  C   UNL     1      -4.728  11.093  17.009  0.00  0.00    +0.000 C 
ATOM     10  C   UNL     1      -5.751  11.061  18.152  0.00  0.00    +0.000 C 
ATOM     11  C   UNL     1      -5.656  12.260  19.091  0.00  0.00    +0.000 C 
ATOM     12  C   UNL     1      -6.350  11.998  20.413  0.00  0.00    +0.000 C 
ATOM     13  O   UNL     1      -6.790  10.909  20.756  0.00  0.00    +0.000 OA
ATOM     14  N   UNL     1      -6.274  13.078  21.281  0.00  0.00    +0.000 N 
ATOM     15  C   UNL     1      -5.505  12.873  22.497  0.00  0.00    +0.000 C 
ATOM     16  C   UNL     1      -4.049  13.210  22.179  0.00  0.00    +0.000 C 
ATOM     17  C   UNL     1      -3.091  12.947  23.327  0.00  0.00    +0.000 C 
ATOM     18  H   UNL     1      -6.143  13.986  20.855  0.00  0.00    +0.000 HD
ENDROOT
BRANCH   1  19
ATOM     19  N   UNL     1      -0.980  13.997  24.026  0.00  0.00    +0.000 NA
ATOM     20  H   UNL     1      -0.893  13.476  24.914  0.00  0.00    +0.000 HD
BRANCH  19  21
ATOM     21  S   UNL     1      -1.092  15.643  24.290  0.00  0.00    +0.000 S 
ATOM     22  O   UNL     1       0.123  16.087  24.925  0.00  0.00    +0.000 OA
ATOM     23  O   UNL     1      -2.378  15.920  24.885  0.00  0.00    +0.000 OA
BRANCH  21  29
ATOM     24  C   UNL     1      -0.048  16.252  21.781  0.00  0.00    +0.000 A 
ATOM     25  C   UNL     1      -0.189  16.776  20.485  0.00  0.00    +0.000 A 
ATOM     26  C   UNL     1      -1.381  17.388  20.087  0.00  0.00    +0.000 A 
ATOM     27  C   UNL     1      -2.451  17.484  20.972  0.00  0.00    +0.000 A 
ATOM     28  C   UNL     1      -2.341  16.946  22.251  0.00  0.00    +0.000 A 
ATOM     29  C   UNL     1      -1.140  16.340  22.660  0.00  0.00    +0.000 A 
BRANCH  24  30
ATOM     30  C   UNL     1       1.298  15.776  22.200  0.00  0.00    +0.000 C 
ATOM     31  O   UNL     1       1.587  14.595  22.312  0.00  0.00    +0.000 OA
BRANCH  30  33
ATOM     32  C   UNL     1       3.322  16.917  21.837  0.00  0.00    +0.000 C 
ATOM     33  O   UNL     1       2.085  16.825  22.551  0.00  0.00    +0.000 OA
ENDBRANCH  30  33
ENDBRANCH  24  30
ENDBRANCH  21  29
ENDBRANCH  19  21
ENDBRANCH   1  19
TORSDOF 5
ENDMDL
MODEL 6
REMARK VINA RESULT:      -6.2      6.130      9.438
REMARK  Name = 
REMARK  6 active torsions:
REMARK  status: ('A' for Active; 'I' for Inactive)
REMARK    1  A    between atoms: C_1  and  O_2
REMARK    2  A    between atoms: O_2  and  C_3
REMARK    3  A    between atoms: C_3  and  C_5
REMARK    4  A    between atoms: C_10  and  S_11
REMARK    5  A    between atoms: S_11  and  N_14
REMARK    6  A    between atoms: N_14  and  C_15
REMARK                            x       y       z     vdW  Elec       q    Type
REMARK                         _______ _______ _______ _____ _____    ______ ____
ROOT
ATOM      1  C   UNL     1       1.683   8.494  18.732  0.00  0.00    +0.000 C 
ATOM      2  C   UNL     1       1.575   8.318  20.256  0.00  0.00    +0.000 C 
ATOM      3  C   UNL     1       0.278   8.912  20.808  0.00  0.00    +0.000 C 
ATOM      4  C   UNL     1       0.220   8.838  22.333  0.00  0.00    +0.000 C 
ATOM      5  C   UNL     1      -1.015   9.544  22.907  0.00  0.00    +0.000 C 
ATOM      6  C   UNL     1      -0.786  11.024  23.239  0.00  0.00    +0.000 C 
ATOM      7  C   UNL     1      -0.964  11.977  22.050  0.00  0.00    +0.000 C 
ATOM      8  C   UNL     1      -0.766  13.432  22.478  0.00  0.00    +0.000 C 
ATOM      9  C   UNL     1      -0.968  14.450  21.344  0.00  0.00    +0.000 C 
ATOM     10  C   UNL     1       0.308  14.771  20.554  0.00  0.00    +0.000 C 
ATOM     11  C   UNL     1       0.441  13.973  19.260  0.00  0.00    +0.000 C 
ATOM     12  C   UNL     1       1.865  13.980  18.738  0.00  0.00    +0.000 C 
ATOM     13  O   UNL     1       2.823  14.425  19.355  0.00  0.00    +0.000 OA
ATOM     14  N   UNL     1       2.007  13.259  17.560  0.00  0.00    +0.000 N 
ATOM     15  C   UNL     1       2.830  12.064  17.633  0.00  0.00    +0.000 C 
ATOM     16  C   UNL     1       1.925  10.910  18.061  0.00  0.00    +0.000 C 
ATOM     17  C   UNL     1       2.661   9.600  18.284  0.00  0.00    +0.000 C 
ATOM     18  H   UNL     1       1.174  13.156  16.996  0.00  0.00    +0.000 HD
ENDROOT
BRANCH   1  19
ATOM     19  N   UNL     1       2.004   7.244  18.033  0.00  0.00    +0.000 NA
ATOM     20  H   UNL     1       1.240   6.551  17.960  0.00  0.00    +0.000 HD
BRANCH  19  21
ATOM     21  S   UNL     1       3.501   6.503  18.077  0.00  0.00    +0.000 S 
ATOM     22  O   UNL     1       4.093   6.746  19.368  0.00  0.00    +0.000 OA
ATOM     23  O   UNL     1       4.210   6.842  16.866  0.00  0.00    +0.000 OA
BRANCH  21  29
ATOM     24  C   UNL     1       4.136   3.806  17.797  0.00  0.00    +0.000 A 
ATOM     25  C   UNL     1       3.765   2.451  17.782  0.00  0.00    +0.000 A 
ATOM     26  C   UNL     1       2.424   2.076  17.912  0.00  0.00    +0.000 A 
ATOM     27  C   UNL     1       1.435   3.043  18.063  0.00  0.00    +0.000 A 
ATOM     28  C   UNL     1       1.785   4.389  18.109  0.00  0.00    +0.000 A 
ATOM     29  C   UNL     1       3.131   4.772  17.967  0.00  0.00    +0.000 A 
BRANCH  24  30
ATOM     30  C   UNL     1       5.548   4.148  17.476  0.00  0.00    +0.000 C 
ATOM     31  O   UNL     1       6.000   4.133  16.342  0.00  0.00    +0.000 OA
BRANCH  30  33
ATOM     32  C   UNL     1       7.309   5.313  18.511  0.00  0.00    +0.000 C 
ATOM     33  O   UNL     1       6.259   4.344  18.615  0.00  0.00    +0.000 OA
ENDBRANCH  30  33
ENDBRANCH  24  30
ENDBRANCH  21  29
ENDBRANCH  19  21
ENDBRANCH   1  19
TORSDOF 5
ENDMDL
MODEL 7
REMARK VINA RESULT:      -6.1      6.403      9.481
REMARK  Name = 
REMARK  6 active torsions:
REMARK  status: ('A' for Active; 'I' for Inactive)
REMARK    1  A    between atoms: C_1  and  O_2
REMARK    2  A    between atoms: O_2  and  C_3
REMARK    3  A    between atoms: C_3  and  C_5
REMARK    4  A    between atoms: C_10  and  S_11
REMARK    5  A    between atoms: S_11  and  N_14
REMARK    6  A    between atoms: N_14  and  C_15
REMARK                            x       y       z     vdW  Elec       q    Type
REMARK                         _______ _______ _______ _____ _____    ______ ____
ROOT
ATOM      1  C   UNL     1       1.862   8.548  18.530  0.00  0.00    +0.000 C 
ATOM      2  C   UNL     1       1.799   8.231  20.034  0.00  0.00    +0.000 C 
ATOM      3  C   UNL     1       0.467   8.660  20.651  0.00  0.00    +0.000 C 
ATOM      4  C   UNL     1       0.444   8.448  22.164  0.00  0.00    +0.000 C 
ATOM      5  C   UNL     1      -0.835   8.992  22.812  0.00  0.00    +0.000 C 
ATOM      6  C   UNL     1      -0.727  10.452  23.272  0.00  0.00    +0.000 C 
ATOM      7  C   UNL     1      -1.008  11.485  22.175  0.00  0.00    +0.000 C 
ATOM      8  C   UNL     1      -0.925  12.910  22.727  0.00  0.00    +0.000 C 
ATOM      9  C   UNL     1      -1.234  14.001  21.691  0.00  0.00    +0.000 C 
ATOM     10  C   UNL     1      -0.006  14.499  20.918  0.00  0.00    +0.000 C 
ATOM     11  C   UNL     1       0.170  13.832  19.556  0.00  0.00    +0.000 C 
ATOM     12  C   UNL     1       1.578  14.007  19.021  0.00  0.00    +0.000 C 
ATOM     13  O   UNL     1       2.507  14.477  19.664  0.00  0.00    +0.000 OA
ATOM     14  N   UNL     1       1.758  13.407  17.783  0.00  0.00    +0.000 N 
ATOM     15  C   UNL     1       2.681  12.286  17.739  0.00  0.00    +0.000 C 
ATOM     16  C   UNL     1       1.886  11.025  18.074  0.00  0.00    +0.000 C 
ATOM     17  C   UNL     1       2.734   9.769  18.171  0.00  0.00    +0.000 C 
ATOM     18  H   UNL     1       0.926  13.282  17.221  0.00  0.00    +0.000 HD
ENDROOT
BRANCH   1  19
ATOM     19  N   UNL     1       2.275   7.396  17.719  0.00  0.00    +0.000 NA
ATOM     20  H   UNL     1       1.776   7.265  16.823  0.00  0.00    +0.000 HD
BRANCH  19  21
ATOM     21  S   UNL     1       2.788   5.938  18.353  0.00  0.00    +0.000 S 
ATOM     22  O   UNL     1       1.703   4.994  18.263  0.00  0.00    +0.000 OA
ATOM     23  O   UNL     1       3.436   6.197  19.618  0.00  0.00    +0.000 OA
BRANCH  21  29
ATOM     24  C   UNL     1       4.406   4.053  17.095  0.00  0.00    +0.000 A 
ATOM     25  C   UNL     1       5.384   3.710  16.148  0.00  0.00    +0.000 A 
ATOM     26  C   UNL     1       6.017   4.696  15.384  0.00  0.00    +0.000 A 
ATOM     27  C   UNL     1       5.681   6.036  15.551  0.00  0.00    +0.000 A 
ATOM     28  C   UNL     1       4.694   6.393  16.464  0.00  0.00    +0.000 A 
ATOM     29  C   UNL     1       4.064   5.407  17.242  0.00  0.00    +0.000 A 
BRANCH  24  30
ATOM     30  C   UNL     1       3.900   2.983  17.997  0.00  0.00    +0.000 C 
ATOM     31  O   UNL     1       3.003   2.214  17.688  0.00  0.00    +0.000 OA
BRANCH  30  33
ATOM     32  C   UNL     1       3.703   2.557  20.301  0.00  0.00    +0.000 C 
ATOM     33  O   UNL     1       4.482   3.078  19.219  0.00  0.00    +0.000 OA
ENDBRANCH  30  33
ENDBRANCH  24  30
ENDBRANCH  21  29
ENDBRANCH  19  21
ENDBRANCH   1  19
TORSDOF 5
ENDMDL
MODEL 8
REMARK VINA RESULT:      -6.1      3.481      6.399
REMARK  Name = 
REMARK  6 active torsions:
REMARK  status: ('A' for Active; 'I' for Inactive)
REMARK    1  A    between atoms: C_1  and  O_2
REMARK    2  A    between atoms: O_2  and  C_3
REMARK    3  A    between atoms: C_3  and  C_5
REMARK    4  A    between atoms: C_10  and  S_11
REMARK    5  A    between atoms: S_11  and  N_14
REMARK    6  A    between atoms: N_14  and  C_15
REMARK                            x       y       z     vdW  Elec       q    Type
REMARK                         _______ _______ _______ _____ _____    ______ ____
ROOT
ATOM      1  C   UNL     1      -1.377  11.170  18.705  0.00  0.00    +0.000 C 
ATOM      2  C   UNL     1      -1.077  12.307  19.697  0.00  0.00    +0.000 C 
ATOM      3  C   UNL     1      -1.848  12.138  21.008  0.00  0.00    +0.000 C 
ATOM      4  C   UNL     1      -1.637  13.321  21.950  0.00  0.00    +0.000 C 
ATOM      5  C   UNL     1      -2.504  13.226  23.212  0.00  0.00    +0.000 C 
ATOM      6  C   UNL     1      -3.875  13.901  23.077  0.00  0.00    +0.000 C 
ATOM      7  C   UNL     1      -4.955  13.022  22.436  0.00  0.00    +0.000 C 
ATOM      8  C   UNL     1      -6.299  13.753  22.383  0.00  0.00    +0.000 C 
ATOM      9  C   UNL     1      -7.441  12.917  21.786  0.00  0.00    +0.000 C 
ATOM     10  C   UNL     1      -7.592  13.054  20.266  0.00  0.00    +0.000 C 
ATOM     11  C   UNL     1      -6.914  11.934  19.481  0.00  0.00    +0.000 C 
ATOM     12  C   UNL     1      -6.703  12.311  18.028  0.00  0.00    +0.000 C 
ATOM     13  O   UNL     1      -6.897  13.429  17.570  0.00  0.00    +0.000 OA
ATOM     14  N   UNL     1      -6.087  11.304  17.298  0.00  0.00    +0.000 N 
ATOM     15  C   UNL     1      -4.757  11.598  16.792  0.00  0.00    +0.000 C 
ATOM     16  C   UNL     1      -3.758  11.220  17.884  0.00  0.00    +0.000 C 
ATOM     17  C   UNL     1      -2.318  11.565  17.548  0.00  0.00    +0.000 C 
ATOM     18  H   UNL     1      -6.198  10.363  17.651  0.00  0.00    +0.000 HD
ENDROOT
BRANCH   1  19
ATOM     19  N   UNL     1      -0.163  10.550  18.160  0.00  0.00    +0.000 NA
ATOM     20  H   UNL     1      -0.295   9.668  17.638  0.00  0.00    +0.000 HD
BRANCH  19  21
ATOM     21  S   UNL     1       1.332  10.604  18.904  0.00  0.00    +0.000 S 
ATOM     22  O   UNL     1       1.183  11.248  20.184  0.00  0.00    +0.000 OA
ATOM     23  O   UNL     1       2.298  11.085  17.945  0.00  0.00    +0.000 OA
BRANCH  21  29
ATOM     24  C   UNL     1       1.511   8.289  20.442  0.00  0.00    +0.000 A 
ATOM     25  C   UNL     1       1.796   6.920  20.573  0.00  0.00    +0.000 A 
ATOM     26  C   UNL     1       2.305   6.189  19.495  0.00  0.00    +0.000 A 
ATOM     27  C   UNL     1       2.534   6.810  18.271  0.00  0.00    +0.000 A 
ATOM     28  C   UNL     1       2.232   8.158  18.113  0.00  0.00    +0.000 A 
ATOM     29  C   UNL     1       1.731   8.901  19.197  0.00  0.00    +0.000 A 
BRANCH  24  30
ATOM     30  C   UNL     1       1.143   9.047  21.668  0.00  0.00    +0.000 C 
ATOM     31  O   UNL     1       1.964   9.452  22.477  0.00  0.00    +0.000 OA
BRANCH  30  33
ATOM     32  C   UNL     1      -0.665   9.449  23.117  0.00  0.00    +0.000 C 
ATOM     33  O   UNL     1      -0.205   9.102  21.806  0.00  0.00    +0.000 OA
ENDBRANCH  30  33
ENDBRANCH  24  30
ENDBRANCH  21  29
ENDBRANCH  19  21
ENDBRANCH   1  19
TORSDOF 5
ENDMDL
MODEL 9
REMARK VINA RESULT:      -6.1      4.908      7.480
REMARK  Name = 
REMARK  6 active torsions:
REMARK  status: ('A' for Active; 'I' for Inactive)
REMARK    1  A    between atoms: C_1  and  O_2
REMARK    2  A    between atoms: O_2  and  C_3
REMARK    3  A    between atoms: C_3  and  C_5
REMARK    4  A    between atoms: C_10  and  S_11
REMARK    5  A    between atoms: S_11  and  N_14
REMARK    6  A    between atoms: N_14  and  C_15
REMARK                            x       y       z     vdW  Elec       q    Type
REMARK                         _______ _______ _______ _____ _____    ______ ____
ROOT
ATOM      1  C   UNL     1      -0.326  10.308  19.930  0.00  0.00    +0.000 C 
ATOM      2  C   UNL     1      -0.324  11.596  20.772  0.00  0.00    +0.000 C 
ATOM      3  C   UNL     1      -1.496  11.637  21.754  0.00  0.00    +0.000 C 
ATOM      4  C   UNL     1      -1.558  12.962  22.512  0.00  0.00    +0.000 C 
ATOM      5  C   UNL     1      -2.801  13.067  23.404  0.00  0.00    +0.000 C 
ATOM      6  C   UNL     1      -4.015  13.697  22.709  0.00  0.00    +0.000 C 
ATOM      7  C   UNL     1      -4.857  12.714  21.888  0.00  0.00    +0.000 C 
ATOM      8  C   UNL     1      -6.070  13.412  21.269  0.00  0.00    +0.000 C 
ATOM      9  C   UNL     1      -6.984  12.478  20.461  0.00  0.00    +0.000 C 
ATOM     10  C   UNL     1      -6.610  12.361  18.978  0.00  0.00    +0.000 C 
ATOM     11  C   UNL     1      -5.761  11.134  18.657  0.00  0.00    +0.000 C 
ATOM     12  C   UNL     1      -5.058  11.269  17.320  0.00  0.00    +0.000 C 
ATOM     13  O   UNL     1      -5.036  12.294  16.653  0.00  0.00    +0.000 OA
ATOM     14  N   UNL     1      -4.281  10.162  17.010  0.00  0.00    +0.000 N 
ATOM     15  C   UNL     1      -2.846  10.382  16.944  0.00  0.00    +0.000 C 
ATOM     16  C   UNL     1      -2.289  10.198  18.355  0.00  0.00    +0.000 C 
ATOM     17  C   UNL     1      -0.805  10.498  18.476  0.00  0.00    +0.000 C 
ATOM     18  H   UNL     1      -4.547   9.291  17.449  0.00  0.00    +0.000 HD
ENDROOT
BRANCH   1  19
ATOM     19  N   UNL     1       0.970   9.619  19.933  0.00  0.00    +0.000 NA
ATOM     20  H   UNL     1       1.557   9.744  19.091  0.00  0.00    +0.000 HD
BRANCH  19  21
ATOM     21  S   UNL     1       1.242   8.137  20.654  0.00  0.00    +0.000 S 
ATOM     22  O   UNL     1      -0.020   7.455  20.790  0.00  0.00    +0.000 OA
ATOM     23  O   UNL     1       2.096   8.341  21.801  0.00  0.00    +0.000 OA
BRANCH  21  29
ATOM     24  C   UNL     1       2.351   5.852  19.511  0.00  0.00    +0.000 A 
ATOM     25  C   UNL     1       3.086   5.219  18.496  0.00  0.00    +0.000 A 
ATOM     26  C   UNL     1       3.684   5.964  17.476  0.00  0.00    +0.000 A 
ATOM     27  C   UNL     1       3.555   7.350  17.450  0.00  0.00    +0.000 A 
ATOM     28  C   UNL     1       2.807   7.993  18.431  0.00  0.00    +0.000 A 
ATOM     29  C   UNL     1       2.214   7.249  19.466  0.00  0.00    +0.000 A 
BRANCH  24  30
ATOM     30  C   UNL     1       1.892   5.026  20.661  0.00  0.00    +0.000 C 
ATOM     31  O   UNL     1       2.540   4.887  21.687  0.00  0.00    +0.000 OA
BRANCH  30  33
ATOM     32  C   UNL     1       0.899   2.976  20.079  0.00  0.00    +0.000 C 
ATOM     33  O   UNL     1       0.744   4.373  20.349  0.00  0.00    +0.000 OA
ENDBRANCH  30  33
ENDBRANCH  24  30
ENDBRANCH  21  29
ENDBRANCH  19  21
ENDBRANCH   1  19
TORSDOF 5
ENDMDL
