MODEL 1
REMARK VINA RESULT:      -7.6      0.000      0.000
REMARK  Name = 
REMARK  2 active torsions:
REMARK  status: ('A' for Active; 'I' for Inactive)
REMARK    1  A    between atoms: N_7  and  C_8
REMARK    2  A    between atoms: C_10  and  C_11
REMARK                            x       y       z     vdW  Elec       q    Type
REMARK                         _______ _______ _______ _____ _____    ______ ____
ROOT
ATOM      1  C   UNL     1       2.585   7.701  18.923  0.00  0.00    +0.000 C 
ATOM      2  C   UNL     1       1.746   8.780  18.203  0.00  0.00    +0.000 C 
ATOM      3  C   UNL     1       1.158   9.614  19.350  0.00  0.00    +0.000 C 
ATOM      4  N   UNL     1       0.844   8.587  20.322  0.00  0.00    +0.000 N 
ATOM      5  C   UNL     1       0.224   8.877  21.502  0.00  0.00    +0.000 C 
ATOM      6  O   UNL     1      -0.196   9.981  21.829  0.00  0.00    +0.000 OA
ATOM      7  C   UNL     1       1.837   7.541  20.272  0.00  0.00    +0.000 C 
ENDROOT
BRANCH   1  14
ATOM      8  N   UNL     1       4.896   2.579  19.098  0.00  0.00    +0.000 NA
ATOM      9  C   UNL     1       3.778   2.543  18.474  0.00  0.00    +0.000 C 
ATOM     10  N   UNL     1       3.025   1.421  18.410  0.00  0.00    +0.000 N 
ATOM     11  N   UNL     1       3.263   3.574  17.745  0.00  0.00    +0.000 N 
ATOM     12  C   UNL     1       1.890   4.052  17.985  0.00  0.00    +0.000 C 
ATOM     13  C   UNL     1       1.878   5.351  18.823  0.00  0.00    +0.000 C 
ATOM     14  N   UNL     1       2.720   6.417  18.221  0.00  0.00    +0.000 NA
ATOM     15  C   UNL     1       4.104   5.899  18.145  0.00  0.00    +0.000 C 
ATOM     16  C   UNL     1       4.161   4.638  17.258  0.00  0.00    +0.000 C 
ATOM     17  H   UNL     1       5.049   1.680  19.560  0.00  0.00    +0.000 HD
ATOM     18  H   UNL     1       3.539   0.566  18.579  0.00  0.00    +0.000 HD
ATOM     19  H   UNL     1       2.530   1.369  17.526  0.00  0.00    +0.000 HD
ENDBRANCH   1  14
BRANCH   3  20
ATOM     20  C   UNL     1      -0.015  10.480  18.818  0.00  0.00    +0.000 C 
ATOM     21  O   UNL     1      -0.982   9.996  18.235  0.00  0.00    +0.000 OA
ATOM     22  N   UNL     1       0.155  11.853  18.935  0.00  0.00    +0.000 N 
ATOM     23  C   UNL     1      -0.814  12.803  18.421  0.00  0.00    +0.000 C 
ATOM     24  C   UNL     1      -0.063  14.126  18.446  0.00  0.00    +0.000 C 
ATOM     25  C   UNL     1       0.755  14.016  19.720  0.00  0.00    +0.000 C 
ATOM     26  F   UNL     1       1.892  14.739  19.633  0.00  0.00    +0.000 F 
ATOM     27  F   UNL     1       0.052  14.484  20.774  0.00  0.00    +0.000 F 
ATOM     28  C   UNL     1       1.047  12.527  19.879  0.00  0.00    +0.000 C 
ENDBRANCH   3  20
TORSDOF 2
ENDMDL
MODEL 2
REMARK VINA RESULT:      -7.4      4.732      8.486
REMARK  Name = 
REMARK  2 active torsions:
REMARK  status: ('A' for Active; 'I' for Inactive)
REMARK    1  A    between atoms: N_7  and  C_8
REMARK    2  A    between atoms: C_10  and  C_11
REMARK                            x       y       z     vdW  Elec       q    Type
REMARK                         _______ _______ _______ _____ _____    ______ ____
ROOT
ATOM      1  C   UNL     1       2.122   7.045  19.314  0.00  0.00    +0.000 C 
ATOM      2  C   UNL     1       3.553   6.814  18.781  0.00  0.00    +0.000 C 
ATOM      3  C   UNL     1       3.742   5.293  18.881  0.00  0.00    +0.000 C 
ATOM      4  N   UNL     1       3.084   5.004  20.139  0.00  0.00    +0.000 N 
ATOM      5  C   UNL     1       3.069   3.748  20.672  0.00  0.00    +0.000 C 
ATOM      6  O   UNL     1       3.653   2.775  20.209  0.00  0.00    +0.000 OA
ATOM      7  C   UNL     1       1.942   5.870  20.309  0.00  0.00    +0.000 C 
ENDROOT
BRANCH   1  14
ATOM      8  N   UNL     1      -1.571  11.233  19.969  0.00  0.00    +0.000 NA
ATOM      9  C   UNL     1      -0.848  11.106  21.020  0.00  0.00    +0.000 C 
ATOM     10  N   UNL     1      -1.285  11.483  22.243  0.00  0.00    +0.000 N 
ATOM     11  N   UNL     1       0.442  10.668  21.025  0.00  0.00    +0.000 N 
ATOM     12  C   UNL     1       0.859   9.565  21.908  0.00  0.00    +0.000 C 
ATOM     13  C   UNL     1       0.979   8.231  21.135  0.00  0.00    +0.000 C 
ATOM     14  N   UNL     1       1.877   8.344  19.957  0.00  0.00    +0.000 NA
ATOM     15  C   UNL     1       1.308   9.376  19.062  0.00  0.00    +0.000 C 
ATOM     16  C   UNL     1       1.238  10.738  19.785  0.00  0.00    +0.000 C 
ATOM     17  H   UNL     1      -2.494  11.581  20.239  0.00  0.00    +0.000 HD
ATOM     18  H   UNL     1      -2.040  12.158  22.225  0.00  0.00    +0.000 HD
ATOM     19  H   UNL     1      -0.517  11.827  22.810  0.00  0.00    +0.000 HD
ENDBRANCH   1  14
BRANCH   3  20
ATOM     20  C   UNL     1       5.250   4.946  18.763  0.00  0.00    +0.000 C 
ATOM     21  O   UNL     1       5.996   4.904  19.739  0.00  0.00    +0.000 OA
ATOM     22  N   UNL     1       5.731   4.802  17.469  0.00  0.00    +0.000 N 
ATOM     23  C   UNL     1       7.130   4.549  17.183  0.00  0.00    +0.000 C 
ATOM     24  C   UNL     1       7.244   4.824  15.691  0.00  0.00    +0.000 C 
ATOM     25  C   UNL     1       5.929   4.286  15.156  0.00  0.00    +0.000 C 
ATOM     26  F   UNL     1       5.555   4.940  14.037  0.00  0.00    +0.000 F 
ATOM     27  F   UNL     1       6.047   2.976  14.846  0.00  0.00    +0.000 F 
ATOM     28  C   UNL     1       4.926   4.489  16.287  0.00  0.00    +0.000 C 
ENDBRANCH   3  20
TORSDOF 2
ENDMDL
MODEL 3
REMARK VINA RESULT:      -7.2      4.613      8.539
REMARK  Name = 
REMARK  2 active torsions:
REMARK  status: ('A' for Active; 'I' for Inactive)
REMARK    1  A    between atoms: N_7  and  C_8
REMARK    2  A    between atoms: C_10  and  C_11
REMARK                            x       y       z     vdW  Elec       q    Type
REMARK                         _______ _______ _______ _____ _____    ______ ____
ROOT
ATOM      1  C   UNL     1       2.123   7.714  18.657  0.00  0.00    +0.000 C 
ATOM      2  C   UNL     1       3.563   7.336  18.249  0.00  0.00    +0.000 C 
ATOM      3  C   UNL     1       3.656   5.838  18.574  0.00  0.00    +0.000 C 
ATOM      4  N   UNL     1       2.917   5.768  19.819  0.00  0.00    +0.000 N 
ATOM      5  C   UNL     1       2.799   4.604  20.522  0.00  0.00    +0.000 C 
ATOM      6  O   UNL     1       3.348   3.546  20.238  0.00  0.00    +0.000 OA
ATOM      7  C   UNL     1       1.822   6.707  19.796  0.00  0.00    +0.000 C 
ENDROOT
BRANCH   1  14
ATOM      8  N   UNL     1      -0.820  12.428  17.805  0.00  0.00    +0.000 NA
ATOM      9  C   UNL     1      -0.480  12.330  19.037  0.00  0.00    +0.000 C 
ATOM     10  N   UNL     1      -1.193  12.912  20.029  0.00  0.00    +0.000 N 
ATOM     11  N   UNL     1       0.654  11.720  19.482  0.00  0.00    +0.000 N 
ATOM     12  C   UNL     1       0.590  10.685  20.529  0.00  0.00    +0.000 C 
ATOM     13  C   UNL     1       0.707   9.263  19.932  0.00  0.00    +0.000 C 
ATOM     14  N   UNL     1       1.923   9.103  19.093  0.00  0.00    +0.000 NA
ATOM     15  C   UNL     1       1.834  10.088  17.992  0.00  0.00    +0.000 C 
ATOM     16  C   UNL     1       1.785  11.524  18.555  0.00  0.00    +0.000 C 
ATOM     17  H   UNL     1      -1.708  12.932  17.744  0.00  0.00    +0.000 HD
ATOM     18  H   UNL     1      -1.780  13.678  19.724  0.00  0.00    +0.000 HD
ATOM     19  H   UNL     1      -0.584  13.211  20.783  0.00  0.00    +0.000 HD
ENDBRANCH   1  14
BRANCH   3  20
ATOM     20  C   UNL     1       5.144   5.399  18.598  0.00  0.00    +0.000 C 
ATOM     21  O   UNL     1       5.838   5.469  19.610  0.00  0.00    +0.000 OA
ATOM     22  N   UNL     1       5.679   5.034  17.370  0.00  0.00    +0.000 N 
ATOM     23  C   UNL     1       7.073   4.669  17.206  0.00  0.00    +0.000 C 
ATOM     24  C   UNL     1       7.277   4.706  15.699  0.00  0.00    +0.000 C 
ATOM     25  C   UNL     1       5.960   4.160  15.177  0.00  0.00    +0.000 C 
ATOM     26  F   UNL     1       5.682   4.653  13.951  0.00  0.00    +0.000 F 
ATOM     27  F   UNL     1       6.015   2.814  15.073  0.00  0.00    +0.000 F 
ATOM     28  C   UNL     1       4.917   4.585  16.204  0.00  0.00    +0.000 C 
ENDBRANCH   3  20
TORSDOF 2
ENDMDL
MODEL 4
REMARK VINA RESULT:      -7.2      4.942      8.618
REMARK  Name = 
REMARK  2 active torsions:
REMARK  status: ('A' for Active; 'I' for Inactive)
REMARK    1  A    between atoms: N_7  and  C_8
REMARK    2  A    between atoms: C_10  and  C_11
REMARK                            x       y       z     vdW  Elec       q    Type
REMARK                         _______ _______ _______ _____ _____    ______ ____
ROOT
ATOM      1  C   UNL     1       2.444   7.276  18.492  0.00  0.00    +0.000 C 
ATOM      2  C   UNL     1       3.741   7.247  17.655  0.00  0.00    +0.000 C 
ATOM      3  C   UNL     1       4.258   5.811  17.828  0.00  0.00    +0.000 C 
ATOM      4  N   UNL     1       3.962   5.566  19.226  0.00  0.00    +0.000 N 
ATOM      5  C   UNL     1       4.323   4.404  19.844  0.00  0.00    +0.000 C 
ATOM      6  O   UNL     1       4.982   3.505  19.335  0.00  0.00    +0.000 OA
ATOM      7  C   UNL     1       2.731   6.222  19.592  0.00  0.00    +0.000 C 
ENDROOT
BRANCH   1  14
ATOM      8  N   UNL     1      -1.653  11.088  19.038  0.00  0.00    +0.000 NA
ATOM      9  C   UNL     1      -0.892  11.099  20.069  0.00  0.00    +0.000 C 
ATOM     10  N   UNL     1      -1.332  11.500  21.283  0.00  0.00    +0.000 N 
ATOM     11  N   UNL     1       0.437  10.800  20.055  0.00  0.00    +0.000 N 
ATOM     12  C   UNL     1       0.993   9.800  20.983  0.00  0.00    +0.000 C 
ATOM     13  C   UNL     1       1.233   8.443  20.282  0.00  0.00    +0.000 C 
ATOM     14  N   UNL     1       2.081   8.578  19.069  0.00  0.00    +0.000 NA
ATOM     15  C   UNL     1       1.380   9.491  18.138  0.00  0.00    +0.000 C 
ATOM     16  C   UNL     1       1.186  10.878  18.786  0.00  0.00    +0.000 C 
ATOM     17  H   UNL     1      -2.600  11.353  19.319  0.00  0.00    +0.000 HD
ATOM     18  H   UNL     1      -2.154  12.090  21.253  0.00  0.00    +0.000 HD
ATOM     19  H   UNL     1      -0.589  11.955  21.804  0.00  0.00    +0.000 HD
ENDBRANCH   1  14
BRANCH   3  20
ATOM     20  C   UNL     1       5.743   5.733  17.384  0.00  0.00    +0.000 C 
ATOM     21  O   UNL     1       6.663   6.167  18.075  0.00  0.00    +0.000 OA
ATOM     22  N   UNL     1       5.959   5.250  16.101  0.00  0.00    +0.000 N 
ATOM     23  C   UNL     1       7.281   5.182  15.508  0.00  0.00    +0.000 C 
ATOM     24  C   UNL     1       6.997   4.949  14.031  0.00  0.00    +0.000 C 
ATOM     25  C   UNL     1       5.793   4.025  14.070  0.00  0.00    +0.000 C 
ATOM     26  F   UNL     1       5.028   4.176  12.969  0.00  0.00    +0.000 F 
ATOM     27  F   UNL     1       6.191   2.734  14.118  0.00  0.00    +0.000 F 
ATOM     28  C   UNL     1       5.037   4.409  15.337  0.00  0.00    +0.000 C 
ENDBRANCH   3  20
TORSDOF 2
ENDMDL
MODEL 5
REMARK VINA RESULT:      -6.9      1.182      1.268
REMARK  Name = 
REMARK  2 active torsions:
REMARK  status: ('A' for Active; 'I' for Inactive)
REMARK    1  A    between atoms: N_7  and  C_8
REMARK    2  A    between atoms: C_10  and  C_11
REMARK                            x       y       z     vdW  Elec       q    Type
REMARK                         _______ _______ _______ _____ _____    ______ ____
ROOT
ATOM      1  C   UNL     1       2.002   8.033  20.097  0.00  0.00    +0.000 C 
ATOM      2  C   UNL     1       1.249   9.140  19.327  0.00  0.00    +0.000 C 
ATOM      3  C   UNL     1       0.837  10.134  20.423  0.00  0.00    +0.000 C 
ATOM      4  N   UNL     1       0.470   9.237  21.501  0.00  0.00    +0.000 N 
ATOM      5  C   UNL     1      -0.035   9.699  22.681  0.00  0.00    +0.000 C 
ATOM      6  O   UNL     1      -0.303  10.869  22.928  0.00  0.00    +0.000 OA
ATOM      7  C   UNL     1       1.329   8.078  21.493  0.00  0.00    +0.000 C 
ENDROOT
BRANCH   1  14
ATOM      8  N   UNL     1       5.019   3.550  18.543  0.00  0.00    +0.000 NA
ATOM      9  C   UNL     1       3.845   3.192  18.913  0.00  0.00    +0.000 C 
ATOM     10  N   UNL     1       3.592   1.959  19.408  0.00  0.00    +0.000 N 
ATOM     11  N   UNL     1       2.724   3.955  18.780  0.00  0.00    +0.000 N 
ATOM     12  C   UNL     1       1.845   4.208  19.934  0.00  0.00    +0.000 C 
ATOM     13  C   UNL     1       2.076   5.617  20.529  0.00  0.00    +0.000 C 
ATOM     14  N   UNL     1       1.943   6.688  19.508  0.00  0.00    +0.000 NA
ATOM     15  C   UNL     1       2.954   6.429  18.459  0.00  0.00    +0.000 C 
ATOM     16  C   UNL     1       2.707   5.056  17.798  0.00  0.00    +0.000 C 
ATOM     17  H   UNL     1       5.678   2.797  18.751  0.00  0.00    +0.000 HD
ATOM     18  H   UNL     1       4.278   1.261  19.153  0.00  0.00    +0.000 HD
ATOM     19  H   UNL     1       2.660   1.651  19.149  0.00  0.00    +0.000 HD
ENDBRANCH   1  14
BRANCH   3  20
ATOM     20  C   UNL     1      -0.259  11.087  19.878  0.00  0.00    +0.000 C 
ATOM     21  O   UNL     1      -1.360  10.686  19.509  0.00  0.00    +0.000 OA
ATOM     22  N   UNL     1       0.125  12.412  19.721  0.00  0.00    +0.000 N 
ATOM     23  C   UNL     1      -0.757  13.416  19.156  0.00  0.00    +0.000 C 
ATOM     24  C   UNL     1       0.176  14.578  18.850  0.00  0.00    +0.000 C 
ATOM     25  C   UNL     1       1.142  14.540  20.021  0.00  0.00    +0.000 C 
ATOM     26  F   UNL     1       2.348  15.036  19.673  0.00  0.00    +0.000 F 
ATOM     27  F   UNL     1       0.672  15.287  21.044  0.00  0.00    +0.000 F 
ATOM     28  C   UNL     1       1.232  13.070  20.416  0.00  0.00    +0.000 C 
ENDBRANCH   3  20
TORSDOF 2
ENDMDL
MODEL 6
REMARK VINA RESULT:      -6.6      5.257      8.813
REMARK  Name = 
REMARK  2 active torsions:
REMARK  status: ('A' for Active; 'I' for Inactive)
REMARK    1  A    between atoms: N_7  and  C_8
REMARK    2  A    between atoms: C_10  and  C_11
REMARK                            x       y       z     vdW  Elec       q    Type
REMARK                         _______ _______ _______ _____ _____    ______ ____
ROOT
ATOM      1  C   UNL     1       2.992   7.027  18.113  0.00  0.00    +0.000 C 
ATOM      2  C   UNL     1       4.074   7.081  17.011  0.00  0.00    +0.000 C 
ATOM      3  C   UNL     1       4.858   5.775  17.203  0.00  0.00    +0.000 C 
ATOM      4  N   UNL     1       4.906   5.677  18.648  0.00  0.00    +0.000 N 
ATOM      5  C   UNL     1       5.585   4.676  19.279  0.00  0.00    +0.000 C 
ATOM      6  O   UNL     1       6.271   3.826  18.725  0.00  0.00    +0.000 OA
ATOM      7  C   UNL     1       3.681   6.184  19.217  0.00  0.00    +0.000 C 
ENDROOT
BRANCH   1  14
ATOM      8  N   UNL     1      -1.071  10.904  17.856  0.00  0.00    +0.000 NA
ATOM      9  C   UNL     1      -0.547  10.883  19.025  0.00  0.00    +0.000 C 
ATOM     10  N   UNL     1      -1.230  11.271  20.127  0.00  0.00    +0.000 N 
ATOM     11  N   UNL     1       0.751  10.559  19.288  0.00  0.00    +0.000 N 
ATOM     12  C   UNL     1       1.081   9.533  20.292  0.00  0.00    +0.000 C 
ATOM     13  C   UNL     1       1.445   8.184  19.629  0.00  0.00    +0.000 C 
ATOM     14  N   UNL     1       2.534   8.325  18.627  0.00  0.00    +0.000 NA
ATOM     15  C   UNL     1       2.061   9.266  17.588  0.00  0.00    +0.000 C 
ATOM     16  C   UNL     1       1.753  10.645  18.209  0.00  0.00    +0.000 C 
ATOM     17  H   UNL     1      -2.052  11.181  17.935  0.00  0.00    +0.000 HD
ATOM     18  H   UNL     1      -2.018  11.876  19.934  0.00  0.00    +0.000 HD
ATOM     19  H   UNL     1      -0.608  11.702  20.803  0.00  0.00    +0.000 HD
ENDBRANCH   1  14
BRANCH   3  20
ATOM     20  C   UNL     1       6.210   5.862  16.445  0.00  0.00    +0.000 C 
ATOM     21  O   UNL     1       7.170   6.495  16.877  0.00  0.00    +0.000 OA
ATOM     22  N   UNL     1       6.228   5.277  15.186  0.00  0.00    +0.000 N 
ATOM     23  C   UNL     1       7.389   5.334  14.318  0.00  0.00    +0.000 C 
ATOM     24  C   UNL     1       6.844   4.902  12.965  0.00  0.00    +0.000 C 
ATOM     25  C   UNL     1       5.843   3.826  13.342  0.00  0.00    +0.000 C 
ATOM     26  F   UNL     1       4.849   3.745  12.432  0.00  0.00    +0.000 F 
ATOM     27  F   UNL     1       6.447   2.618  13.397  0.00  0.00    +0.000 F 
ATOM     28  C   UNL     1       5.317   4.234  14.714  0.00  0.00    +0.000 C 
ENDBRANCH   3  20
TORSDOF 2
ENDMDL
MODEL 7
REMARK VINA RESULT:      -6.6      4.356      8.068
REMARK  Name = 
REMARK  2 active torsions:
REMARK  status: ('A' for Active; 'I' for Inactive)
REMARK    1  A    between atoms: N_7  and  C_8
REMARK    2  A    between atoms: C_10  and  C_11
REMARK                            x       y       z     vdW  Elec       q    Type
REMARK                         _______ _______ _______ _____ _____    ______ ____
ROOT
ATOM      1  C   UNL     1       2.003   6.448  19.030  0.00  0.00    +0.000 C 
ATOM      2  C   UNL     1       3.005   6.293  17.865  0.00  0.00    +0.000 C 
ATOM      3  C   UNL     1       3.341   4.795  17.867  0.00  0.00    +0.000 C 
ATOM      4  N   UNL     1       3.408   4.517  19.288  0.00  0.00    +0.000 N 
ATOM      5  C   UNL     1       3.756   3.287  19.765  0.00  0.00    +0.000 C 
ATOM      6  O   UNL     1       4.118   2.338  19.080  0.00  0.00    +0.000 OA
ATOM      7  C   UNL     1       2.428   5.309  19.991  0.00  0.00    +0.000 C 
ENDROOT
BRANCH   1  14
ATOM      8  N   UNL     1      -1.052  11.028  20.172  0.00  0.00    +0.000 NA
ATOM      9  C   UNL     1      -0.221  10.797  21.121  0.00  0.00    +0.000 C 
ATOM     10  N   UNL     1      -0.450  11.200  22.392  0.00  0.00    +0.000 N 
ATOM     11  N   UNL     1       0.999  10.211  20.957  0.00  0.00    +0.000 N 
ATOM     12  C   UNL     1       1.391   9.050  21.775  0.00  0.00    +0.000 C 
ATOM     13  C   UNL     1       1.252   7.726  20.988  0.00  0.00    +0.000 C 
ATOM     14  N   UNL     1       1.998   7.755  19.703  0.00  0.00    +0.000 NA
ATOM     15  C   UNL     1       1.446   8.864  18.894  0.00  0.00    +0.000 C 
ATOM     16  C   UNL     1       1.631  10.210  19.625  0.00  0.00    +0.000 C 
ATOM     17  H   UNL     1      -1.884  11.477  20.561  0.00  0.00    +0.000 HD
ATOM     18  H   UNL     1      -1.115  11.958  22.473  0.00  0.00    +0.000 HD
ATOM     19  H   UNL     1       0.420  11.440  22.856  0.00  0.00    +0.000 HD
ENDBRANCH   1  14
BRANCH   3  20
ATOM     20  C   UNL     1       4.622   4.546  17.027  0.00  0.00    +0.000 C 
ATOM     21  O   UNL     1       4.590   4.039  15.908  0.00  0.00    +0.000 OA
ATOM     22  N   UNL     1       5.821   4.822  17.669  0.00  0.00    +0.000 N 
ATOM     23  C   UNL     1       7.110   4.576  17.050  0.00  0.00    +0.000 C 
ATOM     24  C   UNL     1       8.088   4.676  18.212  0.00  0.00    +0.000 C 
ATOM     25  C   UNL     1       7.498   5.802  19.041  0.00  0.00    +0.000 C 
ATOM     26  F   UNL     1       7.811   5.660  20.347  0.00  0.00    +0.000 F 
ATOM     27  F   UNL     1       7.983   6.994  18.631  0.00  0.00    +0.000 F 
ATOM     28  C   UNL     1       5.992   5.719  18.813  0.00  0.00    +0.000 C 
ENDBRANCH   3  20
TORSDOF 2
ENDMDL
MODEL 8
REMARK VINA RESULT:      -6.5      2.334      3.387
REMARK  Name = 
REMARK  2 active torsions:
REMARK  status: ('A' for Active; 'I' for Inactive)
REMARK    1  A    between atoms: N_7  and  C_8
REMARK    2  A    between atoms: C_10  and  C_11
REMARK                            x       y       z     vdW  Elec       q    Type
REMARK                         _______ _______ _______ _____ _____    ______ ____
ROOT
ATOM      1  C   UNL     1       1.639   8.623  18.582  0.00  0.00    +0.000 C 
ATOM      2  C   UNL     1       0.974   9.114  19.887  0.00  0.00    +0.000 C 
ATOM      3  C   UNL     1       0.480  10.526  19.539  0.00  0.00    +0.000 C 
ATOM      4  N   UNL     1       1.572  11.020  18.725  0.00  0.00    +0.000 N 
ATOM      5  C   UNL     1       1.589  12.296  18.242  0.00  0.00    +0.000 C 
ATOM      6  O   UNL     1       0.759  13.161  18.495  0.00  0.00    +0.000 OA
ATOM      7  C   UNL     1       2.125   9.946  17.936  0.00  0.00    +0.000 C 
ENDROOT
BRANCH   1  14
ATOM      8  N   UNL     1       3.177   3.248  17.992  0.00  0.00    +0.000 NA
ATOM      9  C   UNL     1       4.183   4.022  17.817  0.00  0.00    +0.000 C 
ATOM     10  N   UNL     1       5.241   3.665  17.054  0.00  0.00    +0.000 N 
ATOM     11  N   UNL     1       4.348   5.229  18.428  0.00  0.00    +0.000 N 
ATOM     12  C   UNL     1       4.641   6.438  17.639  0.00  0.00    +0.000 C 
ATOM     13  C   UNL     1       3.381   7.315  17.450  0.00  0.00    +0.000 C 
ATOM     14  N   UNL     1       2.739   7.662  18.744  0.00  0.00    +0.000 NA
ATOM     15  C   UNL     1       2.355   6.393  19.403  0.00  0.00    +0.000 C 
ATOM     16  C   UNL     1       3.603   5.524  19.667  0.00  0.00    +0.000 C 
ATOM     17  H   UNL     1       3.300   2.408  17.423  0.00  0.00    +0.000 HD
ATOM     18  H   UNL     1       5.341   2.667  16.923  0.00  0.00    +0.000 HD
ATOM     19  H   UNL     1       6.100   4.062  17.421  0.00  0.00    +0.000 HD
ENDBRANCH   1  14
BRANCH   3  20
ATOM     20  C   UNL     1       0.149  11.300  20.843  0.00  0.00    +0.000 C 
ATOM     21  O   UNL     1       0.945  11.394  21.775  0.00  0.00    +0.000 OA
ATOM     22  N   UNL     1      -1.150  11.778  20.941  0.00  0.00    +0.000 N 
ATOM     23  C   UNL     1      -1.641  12.459  22.124  0.00  0.00    +0.000 C 
ATOM     24  C   UNL     1      -3.150  12.469  21.929  0.00  0.00    +0.000 C 
ATOM     25  C   UNL     1      -3.286  12.692  20.434  0.00  0.00    +0.000 C 
ATOM     26  F   UNL     1      -4.427  12.147  19.962  0.00  0.00    +0.000 F 
ATOM     27  F   UNL     1      -3.318  14.014  20.155  0.00  0.00    +0.000 F 
ATOM     28  C   UNL     1      -2.053  12.036  19.819  0.00  0.00    +0.000 C 
ENDBRANCH   3  20
TORSDOF 2
ENDMDL
MODEL 9
REMARK VINA RESULT:      -6.5      9.282     10.462
REMARK  Name = 
REMARK  2 active torsions:
REMARK  status: ('A' for Active; 'I' for Inactive)
REMARK    1  A    between atoms: N_7  and  C_8
REMARK    2  A    between atoms: C_10  and  C_11
REMARK                            x       y       z     vdW  Elec       q    Type
REMARK                         _______ _______ _______ _____ _____    ______ ____
ROOT
ATOM      1  C   UNL     1       8.211  13.085  21.443  0.00  0.00    +0.000 C 
ATOM      2  C   UNL     1       8.564  12.656  22.884  0.00  0.00    +0.000 C 
ATOM      3  C   UNL     1       7.291  12.971  23.683  0.00  0.00    +0.000 C 
ATOM      4  N   UNL     1       6.879  14.225  23.085  0.00  0.00    +0.000 N 
ATOM      5  C   UNL     1       5.800  14.922  23.545  0.00  0.00    +0.000 C 
ATOM      6  O   UNL     1       5.131  14.624  24.528  0.00  0.00    +0.000 OA
ATOM      7  C   UNL     1       7.182  14.221  21.674  0.00  0.00    +0.000 C 
ENDROOT
BRANCH   1  14
ATOM      8  N   UNL     1      11.998  11.519  17.594  0.00  0.00    +0.000 NA
ATOM      9  C   UNL     1      11.692  12.754  17.443  0.00  0.00    +0.000 C 
ATOM     10  N   UNL     1      11.789  13.378  16.246  0.00  0.00    +0.000 N 
ATOM     11  N   UNL     1      11.324  13.591  18.453  0.00  0.00    +0.000 N 
ATOM     12  C   UNL     1      10.084  14.380  18.361  0.00  0.00    +0.000 C 
ATOM     13  C   UNL     1       8.944  13.750  19.195  0.00  0.00    +0.000 C 
ATOM     14  N   UNL     1       9.337  13.532  20.611  0.00  0.00    +0.000 NA
ATOM     15  C   UNL     1      10.504  12.621  20.612  0.00  0.00    +0.000 C 
ATOM     16  C   UNL     1      11.683  13.253  19.843  0.00  0.00    +0.000 C 
ATOM     17  H   UNL     1      12.240  11.121  16.683  0.00  0.00    +0.000 HD
ATOM     18  H   UNL     1      12.417  12.927  15.593  0.00  0.00    +0.000 HD
ATOM     19  H   UNL     1      12.044  14.353  16.368  0.00  0.00    +0.000 HD
ENDBRANCH   1  14
BRANCH   3  20
ATOM     20  C   UNL     1       7.615  12.972  25.201  0.00  0.00    +0.000 C 
ATOM     21  O   UNL     1       8.562  13.596  25.674  0.00  0.00    +0.000 OA
ATOM     22  N   UNL     1       6.837  12.125  25.979  0.00  0.00    +0.000 N 
ATOM     23  C   UNL     1       7.059  11.954  27.402  0.00  0.00    +0.000 C 
ATOM     24  C   UNL     1       6.249  10.711  27.742  0.00  0.00    +0.000 C 
ATOM     25  C   UNL     1       5.022  10.868  26.861  0.00  0.00    +0.000 C 
ATOM     26  F   UNL     1       4.498   9.666  26.540  0.00  0.00    +0.000 F 
ATOM     27  F   UNL     1       4.066  11.572  27.506  0.00  0.00    +0.000 F 
ATOM     28  C   UNL     1       5.511  11.617  25.626  0.00  0.00    +0.000 C 
ENDBRANCH   3  20
TORSDOF 2
ENDMDL
