MODEL 1
REMARK VINA RESULT:      -8.8      0.000      0.000
REMARK  Name = 
REMARK  8 active torsions:
REMARK  status: ('A' for Active; 'I' for Inactive)
REMARK    1  A    between atoms: C_1  and  O_2
REMARK    2  A    between atoms: O_2  and  C_3
REMARK    3  A    between atoms: C_5  and  C_6
REMARK    4  A    between atoms: C_12  and  C_13
REMARK    5  A    between atoms: C_22  and  O_23
REMARK    6  A    between atoms: O_23  and  C_24
REMARK    7  A    between atoms: C_24  and  C_25
REMARK    8  A    between atoms: C_24  and  C_26
REMARK                            x       y       z     vdW  Elec       q    Type
REMARK                         _______ _______ _______ _____ _____    ______ ____
ROOT
ATOM      1  C   UNL     1       4.528   4.128  18.377  0.00  0.00    +0.000 A 
ATOM      2  C   UNL     1       4.480   2.870  18.939  0.00  0.00    +0.000 A 
ATOM      3  N   UNL     1       3.536   2.878  19.934  0.00  0.00    +0.000 N 
ATOM      4  C   UNL     1       2.956   4.124  20.027  0.00  0.00    +0.000 A 
ATOM      5  C   UNL     1       1.978   4.598  20.907  0.00  0.00    +0.000 A 
ATOM      6  C   UNL     1       1.571   5.933  20.769  0.00  0.00    +0.000 A 
ATOM      7  C   UNL     1       2.093   6.770  19.773  0.00  0.00    +0.000 A 
ATOM      8  C   UNL     1       3.069   6.251  18.904  0.00  0.00    +0.000 A 
ATOM      9  C   UNL     1       3.531   4.922  19.041  0.00  0.00    +0.000 A 
ATOM     10  H   UNL     1       3.303   2.091  20.521  0.00  0.00    +0.000 HD
ENDROOT
BRANCH   7  11
ATOM     11  C   UNL     1       1.694   8.179  19.628  0.00  0.00    +0.000 A 
ATOM     12  N   UNL     1       1.207   8.927  20.601  0.00  0.00    +0.000 NA
ATOM     13  N   UNL     1       0.870  10.197  20.173  0.00  0.00    +0.000 NA
ATOM     14  C   UNL     1       1.134  10.382  18.901  0.00  0.00    +0.000 A 
ATOM     15  N   UNL     1       0.883  11.513  18.219  0.00  0.00    +0.000 N 
ATOM     16  S   UNL     1       1.859   9.029  18.139  0.00  0.00    +0.000 S 
ATOM     17  H   UNL     1       0.688  12.342  18.769  0.00  0.00    +0.000 HD
ATOM     18  H   UNL     1       1.386  11.682  17.357  0.00  0.00    +0.000 HD
ENDBRANCH   7  11
BRANCH   1  21
ATOM     19  C   UNL     1       7.065   5.921  16.407  0.00  0.00    +0.000 A 
ATOM     20  C   UNL     1       6.267   5.615  17.476  0.00  0.00    +0.000 A 
ATOM     21  C   UNL     1       5.464   4.507  17.326  0.00  0.00    +0.000 A 
ATOM     22  N   UNL     1       5.478   3.738  16.219  0.00  0.00    +0.000 NA
ATOM     23  C   UNL     1       6.306   4.136  15.244  0.00  0.00    +0.000 A 
ATOM     24  N   UNL     1       7.116   5.197  15.282  0.00  0.00    +0.000 NA
BRANCH  19  26
ATOM     25  C   UNL     1       7.779   7.633  17.830  0.00  0.00    +0.000 C 
ATOM     26  O   UNL     1       7.824   7.068  16.524  0.00  0.00    +0.000 OA
ENDBRANCH  19  26
BRANCH  23  27
ATOM     27  O   UNL     1       6.397   3.403  14.084  0.00  0.00    +0.000 OA
BRANCH  27  28
ATOM     28  C   UNL     1       6.075   4.136  12.900  0.00  0.00    +0.000 C 
ATOM     29  C   UNL     1       7.288   4.197  11.973  0.00  0.00    +0.000 C 
ATOM     30  C   UNL     1       4.939   3.373  12.225  0.00  0.00    +0.000 C 
ENDBRANCH  27  28
ENDBRANCH  23  27
ENDBRANCH   1  21
TORSDOF 5
ENDMDL
MODEL 2
REMARK VINA RESULT:      -8.5      0.975      3.272
REMARK  Name = 
REMARK  8 active torsions:
REMARK  status: ('A' for Active; 'I' for Inactive)
REMARK    1  A    between atoms: C_1  and  O_2
REMARK    2  A    between atoms: O_2  and  C_3
REMARK    3  A    between atoms: C_5  and  C_6
REMARK    4  A    between atoms: C_12  and  C_13
REMARK    5  A    between atoms: C_22  and  O_23
REMARK    6  A    between atoms: O_23  and  C_24
REMARK    7  A    between atoms: C_24  and  C_25
REMARK    8  A    between atoms: C_24  and  C_26
REMARK                            x       y       z     vdW  Elec       q    Type
REMARK                         _______ _______ _______ _____ _____    ______ ____
ROOT
ATOM      1  C   UNL     1       4.280   3.686  17.609  0.00  0.00    +0.000 A 
ATOM      2  C   UNL     1       4.141   2.340  17.873  0.00  0.00    +0.000 A 
ATOM      3  N   UNL     1       3.200   2.190  18.858  0.00  0.00    +0.000 N 
ATOM      4  C   UNL     1       2.711   3.419  19.239  0.00  0.00    +0.000 A 
ATOM      5  C   UNL     1       1.769   3.750  20.218  0.00  0.00    +0.000 A 
ATOM      6  C   UNL     1       1.459   5.106  20.391  0.00  0.00    +0.000 A 
ATOM      7  C   UNL     1       2.039   6.108  19.602  0.00  0.00    +0.000 A 
ATOM      8  C   UNL     1       2.977   5.732  18.622  0.00  0.00    +0.000 A 
ATOM      9  C   UNL     1       3.342   4.377  18.450  0.00  0.00    +0.000 A 
ATOM     10  H   UNL     1       2.910   1.308  19.257  0.00  0.00    +0.000 HD
ENDROOT
BRANCH   7  11
ATOM     11  C   UNL     1       1.743   7.537  19.784  0.00  0.00    +0.000 A 
ATOM     12  N   UNL     1       1.378   8.091  20.926  0.00  0.00    +0.000 NA
ATOM     13  N   UNL     1       1.114   9.441  20.799  0.00  0.00    +0.000 NA
ATOM     14  C   UNL     1       1.310   9.875  19.576  0.00  0.00    +0.000 A 
ATOM     15  N   UNL     1       1.106  11.139  19.166  0.00  0.00    +0.000 N 
ATOM     16  S   UNL     1       1.879   8.673  18.496  0.00  0.00    +0.000 S 
ATOM     17  H   UNL     1       1.011  11.843  19.890  0.00  0.00    +0.000 HD
ATOM     18  H   UNL     1       1.565  11.456  18.322  0.00  0.00    +0.000 HD
ENDBRANCH   7  11
BRANCH   1  21
ATOM     19  C   UNL     1       6.345   4.203  14.609  0.00  0.00    +0.000 A 
ATOM     20  C   UNL     1       5.372   3.663  15.405  0.00  0.00    +0.000 A 
ATOM     21  C   UNL     1       5.241   4.226  16.655  0.00  0.00    +0.000 A 
ATOM     22  N   UNL     1       5.988   5.269  17.070  0.00  0.00    +0.000 NA
ATOM     23  C   UNL     1       6.903   5.714  16.197  0.00  0.00    +0.000 A 
ATOM     24  N   UNL     1       7.119   5.234  14.970  0.00  0.00    +0.000 NA
BRANCH  19  26
ATOM     25  C   UNL     1       5.336   3.561  12.600  0.00  0.00    +0.000 C 
ATOM     26  O   UNL     1       6.527   3.602  13.379  0.00  0.00    +0.000 OA
ENDBRANCH  19  26
BRANCH  23  27
ATOM     27  O   UNL     1       7.700   6.784  16.529  0.00  0.00    +0.000 OA
BRANCH  27  28
ATOM     28  C   UNL     1       7.443   7.327  17.825  0.00  0.00    +0.000 C 
ATOM     29  C   UNL     1       8.105   6.464  18.899  0.00  0.00    +0.000 C 
ATOM     30  C   UNL     1       8.054   8.725  17.828  0.00  0.00    +0.000 C 
ENDBRANCH  27  28
ENDBRANCH  23  27
ENDBRANCH   1  21
TORSDOF 5
ENDMDL
MODEL 3
REMARK VINA RESULT:      -8.2      1.324      1.520
REMARK  Name = 
REMARK  8 active torsions:
REMARK  status: ('A' for Active; 'I' for Inactive)
REMARK    1  A    between atoms: C_1  and  O_2
REMARK    2  A    between atoms: O_2  and  C_3
REMARK    3  A    between atoms: C_5  and  C_6
REMARK    4  A    between atoms: C_12  and  C_13
REMARK    5  A    between atoms: C_22  and  O_23
REMARK    6  A    between atoms: O_23  and  C_24
REMARK    7  A    between atoms: C_24  and  C_25
REMARK    8  A    between atoms: C_24  and  C_26
REMARK                            x       y       z     vdW  Elec       q    Type
REMARK                         _______ _______ _______ _____ _____    ______ ____
ROOT
ATOM      1  C   UNL     1       4.220   4.613  18.427  0.00  0.00    +0.000 A 
ATOM      2  C   UNL     1       4.026   3.248  18.484  0.00  0.00    +0.000 A 
ATOM      3  N   UNL     1       2.947   3.000  19.292  0.00  0.00    +0.000 N 
ATOM      4  C   UNL     1       2.422   4.184  19.761  0.00  0.00    +0.000 A 
ATOM      5  C   UNL     1       1.350   4.414  20.628  0.00  0.00    +0.000 A 
ATOM      6  C   UNL     1       1.035   5.745  20.935  0.00  0.00    +0.000 A 
ATOM      7  C   UNL     1       1.740   6.823  20.381  0.00  0.00    +0.000 A 
ATOM      8  C   UNL     1       2.807   6.548  19.507  0.00  0.00    +0.000 A 
ATOM      9  C   UNL     1       3.177   5.217  19.208  0.00  0.00    +0.000 A 
ATOM     10  H   UNL     1       2.590   2.084  19.521  0.00  0.00    +0.000 HD
ENDROOT
BRANCH   7  11
ATOM     11  C   UNL     1       1.438   8.225  20.710  0.00  0.00    +0.000 A 
ATOM     12  N   UNL     1       1.391   8.718  21.934  0.00  0.00    +0.000 NA
ATOM     13  N   UNL     1       1.035  10.052  21.954  0.00  0.00    +0.000 NA
ATOM     14  C   UNL     1       0.848  10.537  20.749  0.00  0.00    +0.000 A 
ATOM     15  N   UNL     1       0.472  11.799  20.476  0.00  0.00    +0.000 N 
ATOM     16  S   UNL     1       1.140   9.408  19.494  0.00  0.00    +0.000 S 
ATOM     17  H   UNL     1       0.555  12.471  21.230  0.00  0.00    +0.000 HD
ATOM     18  H   UNL     1       0.652  12.170  19.552  0.00  0.00    +0.000 HD
ENDBRANCH   7  11
BRANCH   1  21
ATOM     19  C   UNL     1       7.270   6.504  17.621  0.00  0.00    +0.000 A 
ATOM     20  C   UNL     1       6.319   5.893  18.392  0.00  0.00    +0.000 A 
ATOM     21  C   UNL     1       5.319   5.241  17.706  0.00  0.00    +0.000 A 
ATOM     22  N   UNL     1       5.285   5.166  16.360  0.00  0.00    +0.000 NA
ATOM     23  C   UNL     1       6.276   5.797  15.716  0.00  0.00    +0.000 A 
ATOM     24  N   UNL     1       7.284   6.465  16.283  0.00  0.00    +0.000 NA
BRANCH  19  26
ATOM     25  C   UNL     1       8.187   8.613  18.040  0.00  0.00    +0.000 C 
ATOM     26  O   UNL     1       8.240   7.214  18.300  0.00  0.00    +0.000 OA
ENDBRANCH  19  26
BRANCH  23  27
ATOM     27  O   UNL     1       6.330   5.761  14.342  0.00  0.00    +0.000 OA
BRANCH  27  28
ATOM     28  C   UNL     1       7.133   4.704  13.815  0.00  0.00    +0.000 C 
ATOM     29  C   UNL     1       6.257   3.700  13.067  0.00  0.00    +0.000 C 
ATOM     30  C   UNL     1       8.117   5.359  12.851  0.00  0.00    +0.000 C 
ENDBRANCH  27  28
ENDBRANCH  23  27
ENDBRANCH   1  21
TORSDOF 5
ENDMDL
MODEL 4
REMARK VINA RESULT:      -8.2      1.123      3.369
REMARK  Name = 
REMARK  8 active torsions:
REMARK  status: ('A' for Active; 'I' for Inactive)
REMARK    1  A    between atoms: C_1  and  O_2
REMARK    2  A    between atoms: O_2  and  C_3
REMARK    3  A    between atoms: C_5  and  C_6
REMARK    4  A    between atoms: C_12  and  C_13
REMARK    5  A    between atoms: C_22  and  O_23
REMARK    6  A    between atoms: O_23  and  C_24
REMARK    7  A    between atoms: C_24  and  C_25
REMARK    8  A    between atoms: C_24  and  C_26
REMARK                            x       y       z     vdW  Elec       q    Type
REMARK                         _______ _______ _______ _____ _____    ______ ____
ROOT
ATOM      1  C   UNL     1       4.389   4.117  18.064  0.00  0.00    +0.000 A 
ATOM      2  C   UNL     1       4.318   2.809  18.496  0.00  0.00    +0.000 A 
ATOM      3  N   UNL     1       3.385   2.736  19.498  0.00  0.00    +0.000 N 
ATOM      4  C   UNL     1       2.834   3.978  19.725  0.00  0.00    +0.000 A 
ATOM      5  C   UNL     1       1.877   4.382  20.661  0.00  0.00    +0.000 A 
ATOM      6  C   UNL     1       1.499   5.732  20.664  0.00  0.00    +0.000 A 
ATOM      7  C   UNL     1       2.029   6.655  19.752  0.00  0.00    +0.000 A 
ATOM      8  C   UNL     1       2.985   6.206  18.822  0.00  0.00    +0.000 A 
ATOM      9  C   UNL     1       3.418   4.860  18.818  0.00  0.00    +0.000 A 
ATOM     10  H   UNL     1       3.139   1.898  20.005  0.00  0.00    +0.000 HD
ENDROOT
BRANCH   7  11
ATOM     11  C   UNL     1       1.662   8.079  19.757  0.00  0.00    +0.000 A 
ATOM     12  N   UNL     1       1.735   8.879  18.709  0.00  0.00    +0.000 NA
ATOM     13  N   UNL     1       1.376  10.178  19.009  0.00  0.00    +0.000 NA
ATOM     14  C   UNL     1       1.018  10.321  20.263  0.00  0.00    +0.000 A 
ATOM     15  N   UNL     1       0.646  11.481  20.831  0.00  0.00    +0.000 N 
ATOM     16  S   UNL     1       1.048   8.863  21.162  0.00  0.00    +0.000 S 
ATOM     17  H   UNL     1       0.414  12.242  20.201  0.00  0.00    +0.000 HD
ATOM     18  H   UNL     1       0.100  11.452  21.683  0.00  0.00    +0.000 HD
ENDBRANCH   7  11
BRANCH   1  21
ATOM     19  C   UNL     1       6.411   4.366  15.001  0.00  0.00    +0.000 A 
ATOM     20  C   UNL     1       5.464   3.885  15.865  0.00  0.00    +0.000 A 
ATOM     21  C   UNL     1       5.322   4.580  17.045  0.00  0.00    +0.000 A 
ATOM     22  N   UNL     1       6.033   5.689  17.331  0.00  0.00    +0.000 NA
ATOM     23  C   UNL     1       6.924   6.065  16.404  0.00  0.00    +0.000 A 
ATOM     24  N   UNL     1       7.148   5.459  15.235  0.00  0.00    +0.000 NA
BRANCH  19  26
ATOM     25  C   UNL     1       5.542   3.785  12.910  0.00  0.00    +0.000 C 
ATOM     26  O   UNL     1       6.605   3.637  13.845  0.00  0.00    +0.000 OA
ENDBRANCH  19  26
BRANCH  23  27
ATOM     27  O   UNL     1       7.683   7.194  16.604  0.00  0.00    +0.000 OA
BRANCH  27  28
ATOM     28  C   UNL     1       7.599   7.731  17.926  0.00  0.00    +0.000 C 
ATOM     29  C   UNL     1       8.237   6.768  18.926  0.00  0.00    +0.000 C 
ATOM     30  C   UNL     1       8.372   9.045  17.900  0.00  0.00    +0.000 C 
ENDBRANCH  27  28
ENDBRANCH  23  27
ENDBRANCH   1  21
TORSDOF 5
ENDMDL
MODEL 5
REMARK VINA RESULT:      -8.2      0.814      1.025
REMARK  Name = 
REMARK  8 active torsions:
REMARK  status: ('A' for Active; 'I' for Inactive)
REMARK    1  A    between atoms: C_1  and  O_2
REMARK    2  A    between atoms: O_2  and  C_3
REMARK    3  A    between atoms: C_5  and  C_6
REMARK    4  A    between atoms: C_12  and  C_13
REMARK    5  A    between atoms: C_22  and  O_23
REMARK    6  A    between atoms: O_23  and  C_24
REMARK    7  A    between atoms: C_24  and  C_25
REMARK    8  A    between atoms: C_24  and  C_26
REMARK                            x       y       z     vdW  Elec       q    Type
REMARK                         _______ _______ _______ _____ _____    ______ ____
ROOT
ATOM      1  C   UNL     1       4.172   3.926  17.974  0.00  0.00    +0.000 A 
ATOM      2  C   UNL     1       4.111   2.586  18.295  0.00  0.00    +0.000 A 
ATOM      3  N   UNL     1       3.255   2.436  19.355  0.00  0.00    +0.000 N 
ATOM      4  C   UNL     1       2.745   3.659  19.730  0.00  0.00    +0.000 A 
ATOM      5  C   UNL     1       1.868   3.989  20.768  0.00  0.00    +0.000 A 
ATOM      6  C   UNL     1       1.515   5.338  20.917  0.00  0.00    +0.000 A 
ATOM      7  C   UNL     1       1.991   6.332  20.051  0.00  0.00    +0.000 A 
ATOM      8  C   UNL     1       2.866   5.955  19.015  0.00  0.00    +0.000 A 
ATOM      9  C   UNL     1       3.274   4.611  18.861  0.00  0.00    +0.000 A 
ATOM     10  H   UNL     1       3.034   1.559  19.805  0.00  0.00    +0.000 HD
ENDROOT
BRANCH   7  11
ATOM     11  C   UNL     1       1.650   7.754  20.206  0.00  0.00    +0.000 A 
ATOM     12  N   UNL     1       1.351   8.336  21.353  0.00  0.00    +0.000 NA
ATOM     13  N   UNL     1       1.022   9.668  21.201  0.00  0.00    +0.000 NA
ATOM     14  C   UNL     1       1.104  10.063  19.952  0.00  0.00    +0.000 A 
ATOM     15  N   UNL     1       0.815  11.302  19.516  0.00  0.00    +0.000 N 
ATOM     16  S   UNL     1       1.637   8.845  18.873  0.00  0.00    +0.000 S 
ATOM     17  H   UNL     1       0.747  12.028  20.220  0.00  0.00    +0.000 HD
ATOM     18  H   UNL     1       1.194  11.604  18.627  0.00  0.00    +0.000 HD
ENDBRANCH   7  11
BRANCH   1  21
ATOM     19  C   UNL     1       6.776   5.821  16.196  0.00  0.00    +0.000 A 
ATOM     20  C   UNL     1       6.066   5.319  17.253  0.00  0.00    +0.000 A 
ATOM     21  C   UNL     1       5.034   4.467  16.930  0.00  0.00    +0.000 A 
ATOM     22  N   UNL     1       4.751   4.107  15.662  0.00  0.00    +0.000 NA
ATOM     23  C   UNL     1       5.522   4.659  14.714  0.00  0.00    +0.000 A 
ATOM     24  N   UNL     1       6.537   5.502  14.917  0.00  0.00    +0.000 NA
BRANCH  19  26
ATOM     25  C   UNL     1       7.647   7.257  17.822  0.00  0.00    +0.000 C 
ATOM     26  O   UNL     1       7.770   6.726  16.507  0.00  0.00    +0.000 OA
ENDBRANCH  19  26
BRANCH  23  27
ATOM     27  O   UNL     1       5.315   4.338  13.393  0.00  0.00    +0.000 OA
BRANCH  27  28
ATOM     28  C   UNL     1       6.323   3.497  12.830  0.00  0.00    +0.000 C 
ATOM     29  C   UNL     1       5.688   2.470  11.893  0.00  0.00    +0.000 C 
ATOM     30  C   UNL     1       7.252   4.417  12.043  0.00  0.00    +0.000 C 
ENDBRANCH  27  28
ENDBRANCH  23  27
ENDBRANCH   1  21
TORSDOF 5
ENDMDL
MODEL 6
REMARK VINA RESULT:      -8.0      1.245      3.330
REMARK  Name = 
REMARK  8 active torsions:
REMARK  status: ('A' for Active; 'I' for Inactive)
REMARK    1  A    between atoms: C_1  and  O_2
REMARK    2  A    between atoms: O_2  and  C_3
REMARK    3  A    between atoms: C_5  and  C_6
REMARK    4  A    between atoms: C_12  and  C_13
REMARK    5  A    between atoms: C_22  and  O_23
REMARK    6  A    between atoms: O_23  and  C_24
REMARK    7  A    between atoms: C_24  and  C_25
REMARK    8  A    between atoms: C_24  and  C_26
REMARK                            x       y       z     vdW  Elec       q    Type
REMARK                         _______ _______ _______ _____ _____    ______ ____
ROOT
ATOM      1  C   UNL     1       3.931   3.912  17.779  0.00  0.00    +0.000 A 
ATOM      2  C   UNL     1       3.772   2.543  17.813  0.00  0.00    +0.000 A 
ATOM      3  N   UNL     1       2.806   2.245  18.739  0.00  0.00    +0.000 N 
ATOM      4  C   UNL     1       2.322   3.401  19.309  0.00  0.00    +0.000 A 
ATOM      5  C   UNL     1       1.361   3.578  20.310  0.00  0.00    +0.000 A 
ATOM      6  C   UNL     1       1.062   4.891  20.699  0.00  0.00    +0.000 A 
ATOM      7  C   UNL     1       1.672   6.002  20.100  0.00  0.00    +0.000 A 
ATOM      8  C   UNL     1       2.627   5.780  19.091  0.00  0.00    +0.000 A 
ATOM      9  C   UNL     1       2.982   4.467  18.703  0.00  0.00    +0.000 A 
ATOM     10  H   UNL     1       2.498   1.313  18.979  0.00  0.00    +0.000 HD
ENDROOT
BRANCH   7  11
ATOM     11  C   UNL     1       1.387   7.385  20.511  0.00  0.00    +0.000 A 
ATOM     12  N   UNL     1       0.973   7.743  21.713  0.00  0.00    +0.000 NA
ATOM     13  N   UNL     1       0.735   9.100  21.808  0.00  0.00    +0.000 NA
ATOM     14  C   UNL     1       0.998   9.733  20.688  0.00  0.00    +0.000 A 
ATOM     15  N   UNL     1       0.832  11.053  20.493  0.00  0.00    +0.000 N 
ATOM     16  S   UNL     1       1.603   8.721  19.446  0.00  0.00    +0.000 S 
ATOM     17  H   UNL     1       0.711  11.624  21.322  0.00  0.00    +0.000 HD
ATOM     18  H   UNL     1       1.338  11.499  19.738  0.00  0.00    +0.000 HD
ENDBRANCH   7  11
BRANCH   1  21
ATOM     19  C   UNL     1       6.394   4.664  15.152  0.00  0.00    +0.000 A 
ATOM     20  C   UNL     1       5.426   3.971  15.827  0.00  0.00    +0.000 A 
ATOM     21  C   UNL     1       4.920   4.589  16.949  0.00  0.00    +0.000 A 
ATOM     22  N   UNL     1       5.313   5.814  17.350  0.00  0.00    +0.000 NA
ATOM     23  C   UNL     1       6.263   6.395  16.603  0.00  0.00    +0.000 A 
ATOM     24  N   UNL     1       6.826   5.881  15.507  0.00  0.00    +0.000 NA
BRANCH  19  26
ATOM     25  C   UNL     1       5.995   3.689  13.065  0.00  0.00    +0.000 C 
ATOM     26  O   UNL     1       6.953   4.023  14.064  0.00  0.00    +0.000 OA
ENDBRANCH  19  26
BRANCH  23  27
ATOM     27  O   UNL     1       6.715   7.652  16.928  0.00  0.00    +0.000 OA
BRANCH  27  28
ATOM     28  C   UNL     1       8.001   7.670  17.549  0.00  0.00    +0.000 C 
ATOM     29  C   UNL     1       8.312   9.071  18.074  0.00  0.00    +0.000 C 
ATOM     30  C   UNL     1       7.926   6.682  18.709  0.00  0.00    +0.000 C 
ENDBRANCH  27  28
ENDBRANCH  23  27
ENDBRANCH   1  21
TORSDOF 5
ENDMDL
MODEL 7
REMARK VINA RESULT:      -7.5      1.345      1.530
REMARK  Name = 
REMARK  8 active torsions:
REMARK  status: ('A' for Active; 'I' for Inactive)
REMARK    1  A    between atoms: C_1  and  O_2
REMARK    2  A    between atoms: O_2  and  C_3
REMARK    3  A    between atoms: C_5  and  C_6
REMARK    4  A    between atoms: C_12  and  C_13
REMARK    5  A    between atoms: C_22  and  O_23
REMARK    6  A    between atoms: O_23  and  C_24
REMARK    7  A    between atoms: C_24  and  C_25
REMARK    8  A    between atoms: C_24  and  C_26
REMARK                            x       y       z     vdW  Elec       q    Type
REMARK                         _______ _______ _______ _____ _____    ______ ____
ROOT
ATOM      1  C   UNL     1       4.325   3.677  17.313  0.00  0.00    +0.000 A 
ATOM      2  C   UNL     1       4.144   2.320  17.480  0.00  0.00    +0.000 A 
ATOM      3  N   UNL     1       3.137   2.129  18.390  0.00  0.00    +0.000 N 
ATOM      4  C   UNL     1       2.647   3.343  18.818  0.00  0.00    +0.000 A 
ATOM      5  C   UNL     1       1.649   3.633  19.754  0.00  0.00    +0.000 A 
ATOM      6  C   UNL     1       1.355   4.982  19.994  0.00  0.00    +0.000 A 
ATOM      7  C   UNL     1       2.005   6.019  19.310  0.00  0.00    +0.000 A 
ATOM      8  C   UNL     1       2.998   5.683  18.371  0.00  0.00    +0.000 A 
ATOM      9  C   UNL     1       3.348   4.334  18.135  0.00  0.00    +0.000 A 
ATOM     10  H   UNL     1       2.805   1.231  18.711  0.00  0.00    +0.000 HD
ENDROOT
BRANCH   7  11
ATOM     11  C   UNL     1       1.725   7.440  19.566  0.00  0.00    +0.000 A 
ATOM     12  N   UNL     1       1.844   8.404  18.671  0.00  0.00    +0.000 NA
ATOM     13  N   UNL     1       1.565   9.650  19.196  0.00  0.00    +0.000 NA
ATOM     14  C   UNL     1       1.220   9.594  20.461  0.00  0.00    +0.000 A 
ATOM     15  N   UNL     1       0.921  10.658  21.226  0.00  0.00    +0.000 N 
ATOM     16  S   UNL     1       1.165   8.003  21.094  0.00  0.00    +0.000 S 
ATOM     17  H   UNL     1       0.734  11.529  20.741  0.00  0.00    +0.000 HD
ATOM     18  H   UNL     1       0.378  10.514  22.067  0.00  0.00    +0.000 HD
ENDBRANCH   7  11
BRANCH   1  21
ATOM     19  C   UNL     1       7.027   5.810  16.016  0.00  0.00    +0.000 A 
ATOM     20  C   UNL     1       6.130   5.299  16.914  0.00  0.00    +0.000 A 
ATOM     21  C   UNL     1       5.358   4.253  16.460  0.00  0.00    +0.000 A 
ATOM     22  N   UNL     1       5.490   3.727  15.227  0.00  0.00    +0.000 NA
ATOM     23  C   UNL     1       6.407   4.309  14.441  0.00  0.00    +0.000 A 
ATOM     24  N   UNL     1       7.198   5.331  14.777  0.00  0.00    +0.000 NA
BRANCH  19  26
ATOM     25  C   UNL     1       7.658   7.124  17.843  0.00  0.00    +0.000 C 
ATOM     26  O   UNL     1       7.759   6.901  16.441  0.00  0.00    +0.000 OA
ENDBRANCH  19  26
BRANCH  23  27
ATOM     27  O   UNL     1       6.622   3.829  13.170  0.00  0.00    +0.000 OA
BRANCH  27  28
ATOM     28  C   UNL     1       5.565   3.010  12.667  0.00  0.00    +0.000 C 
ATOM     29  C   UNL     1       4.533   3.871  11.940  0.00  0.00    +0.000 C 
ATOM     30  C   UNL     1       6.213   2.035  11.689  0.00  0.00    +0.000 C 
ENDBRANCH  27  28
ENDBRANCH  23  27
ENDBRANCH   1  21
TORSDOF 5
ENDMDL
MODEL 8
REMARK VINA RESULT:      -7.5      1.559      3.554
REMARK  Name = 
REMARK  8 active torsions:
REMARK  status: ('A' for Active; 'I' for Inactive)
REMARK    1  A    between atoms: C_1  and  O_2
REMARK    2  A    between atoms: O_2  and  C_3
REMARK    3  A    between atoms: C_5  and  C_6
REMARK    4  A    between atoms: C_12  and  C_13
REMARK    5  A    between atoms: C_22  and  O_23
REMARK    6  A    between atoms: O_23  and  C_24
REMARK    7  A    between atoms: C_24  and  C_25
REMARK    8  A    between atoms: C_24  and  C_26
REMARK                            x       y       z     vdW  Elec       q    Type
REMARK                         _______ _______ _______ _____ _____    ______ ____
ROOT
ATOM      1  C   UNL     1       4.568   4.418  18.753  0.00  0.00    +0.000 A 
ATOM      2  C   UNL     1       4.456   3.072  19.030  0.00  0.00    +0.000 A 
ATOM      3  N   UNL     1       3.341   2.884  19.805  0.00  0.00    +0.000 N 
ATOM      4  C   UNL     1       2.712   4.087  20.034  0.00  0.00    +0.000 A 
ATOM      5  C   UNL     1       1.570   4.379  20.786  0.00  0.00    +0.000 A 
ATOM      6  C   UNL     1       1.153   5.716  20.843  0.00  0.00    +0.000 A 
ATOM      7  C   UNL     1       1.825   6.735  20.156  0.00  0.00    +0.000 A 
ATOM      8  C   UNL     1       2.966   6.398  19.404  0.00  0.00    +0.000 A 
ATOM      9  C   UNL     1       3.438   5.066  19.358  0.00  0.00    +0.000 A 
ATOM     10  H   UNL     1       3.027   1.994  20.166  0.00  0.00    +0.000 HD
ENDROOT
BRANCH   7  11
ATOM     11  C   UNL     1       1.415   8.146  20.223  0.00  0.00    +0.000 A 
ATOM     12  N   UNL     1       1.452   8.991  19.208  0.00  0.00    +0.000 NA
ATOM     13  N   UNL     1       1.057  10.265  19.566  0.00  0.00    +0.000 NA
ATOM     14  C   UNL     1       0.709  10.344  20.829  0.00  0.00    +0.000 A 
ATOM     15  N   UNL     1       0.308  11.468  21.447  0.00  0.00    +0.000 N 
ATOM     16  S   UNL     1       0.794   8.852  21.666  0.00  0.00    +0.000 S 
ATOM     17  H   UNL     1       0.047  12.247  20.853  0.00  0.00    +0.000 HD
ATOM     18  H   UNL     1      -0.226  11.387  22.303  0.00  0.00    +0.000 HD
ENDBRANCH   7  11
BRANCH   1  21
ATOM     19  C   UNL     1       7.014   5.156  16.106  0.00  0.00    +0.000 A 
ATOM     20  C   UNL     1       5.916   4.599  16.704  0.00  0.00    +0.000 A 
ATOM     21  C   UNL     1       5.673   4.997  18.000  0.00  0.00    +0.000 A 
ATOM     22  N   UNL     1       6.435   5.906  18.640  0.00  0.00    +0.000 NA
ATOM     23  C   UNL     1       7.478   6.385  17.947  0.00  0.00    +0.000 A 
ATOM     24  N   UNL     1       7.807   6.059  16.695  0.00  0.00    +0.000 NA
BRANCH  19  26
ATOM     25  C   UNL     1       6.234   3.972  14.246  0.00  0.00    +0.000 C 
ATOM     26  O   UNL     1       7.301   4.712  14.830  0.00  0.00    +0.000 OA
ENDBRANCH  19  26
BRANCH  23  27
ATOM     27  O   UNL     1       8.301   7.328  18.516  0.00  0.00    +0.000 OA
BRANCH  27  28
ATOM     28  C   UNL     1       8.307   8.586  17.840  0.00  0.00    +0.000 C 
ATOM     29  C   UNL     1       6.879   9.007  17.499  0.00  0.00    +0.000 C 
ATOM     30  C   UNL     1       8.930   9.586  18.809  0.00  0.00    +0.000 C 
ENDBRANCH  27  28
ENDBRANCH  23  27
ENDBRANCH   1  21
TORSDOF 5
ENDMDL
MODEL 9
REMARK VINA RESULT:      -7.3      3.192      7.361
REMARK  Name = 
REMARK  8 active torsions:
REMARK  status: ('A' for Active; 'I' for Inactive)
REMARK    1  A    between atoms: C_1  and  O_2
REMARK    2  A    between atoms: O_2  and  C_3
REMARK    3  A    between atoms: C_5  and  C_6
REMARK    4  A    between atoms: C_12  and  C_13
REMARK    5  A    between atoms: C_22  and  O_23
REMARK    6  A    between atoms: O_23  and  C_24
REMARK    7  A    between atoms: C_24  and  C_25
REMARK    8  A    between atoms: C_24  and  C_26
REMARK                            x       y       z     vdW  Elec       q    Type
REMARK                         _______ _______ _______ _____ _____    ______ ____
ROOT
ATOM      1  C   UNL     1       1.782   5.666  19.969  0.00  0.00    +0.000 A 
ATOM      2  C   UNL     1       0.956   4.713  20.529  0.00  0.00    +0.000 A 
ATOM      3  N   UNL     1       1.312   3.488  20.028  0.00  0.00    +0.000 N 
ATOM      4  C   UNL     1       2.367   3.620  19.153  0.00  0.00    +0.000 A 
ATOM      5  C   UNL     1       3.033   2.654  18.393  0.00  0.00    +0.000 A 
ATOM      6  C   UNL     1       4.089   3.084  17.576  0.00  0.00    +0.000 A 
ATOM      7  C   UNL     1       4.496   4.425  17.530  0.00  0.00    +0.000 A 
ATOM      8  C   UNL     1       3.803   5.363  18.317  0.00  0.00    +0.000 A 
ATOM      9  C   UNL     1       2.709   4.970  19.120  0.00  0.00    +0.000 A 
ATOM     10  H   UNL     1       0.863   2.613  20.258  0.00  0.00    +0.000 HD
ENDROOT
BRANCH   7  11
ATOM     11  C   UNL     1       5.585   4.897  16.662  0.00  0.00    +0.000 A 
ATOM     12  N   UNL     1       6.461   5.829  16.991  0.00  0.00    +0.000 NA
ATOM     13  N   UNL     1       7.343   6.112  15.967  0.00  0.00    +0.000 NA
ATOM     14  C   UNL     1       7.128   5.371  14.904  0.00  0.00    +0.000 A 
ATOM     15  N   UNL     1       7.822   5.455  13.756  0.00  0.00    +0.000 N 
ATOM     16  S   UNL     1       5.858   4.238  15.094  0.00  0.00    +0.000 S 
ATOM     17  H   UNL     1       8.701   5.959  13.790  0.00  0.00    +0.000 HD
ATOM     18  H   UNL     1       7.808   4.666  13.122  0.00  0.00    +0.000 HD
ENDBRANCH   7  11
BRANCH   1  21
ATOM     19  C   UNL     1       1.311   8.910  21.638  0.00  0.00    +0.000 A 
ATOM     20  C   UNL     1       1.484   7.558  21.511  0.00  0.00    +0.000 A 
ATOM     21  C   UNL     1       1.654   7.095  20.226  0.00  0.00    +0.000 A 
ATOM     22  N   UNL     1       1.689   7.910  19.153  0.00  0.00    +0.000 NA
ATOM     23  C   UNL     1       1.515   9.215  19.406  0.00  0.00    +0.000 A 
ATOM     24  N   UNL     1       1.332   9.766  20.609  0.00  0.00    +0.000 NA
BRANCH  19  26
ATOM     25  C   UNL     1      -0.288   9.725  23.137  0.00  0.00    +0.000 C 
ATOM     26  O   UNL     1       1.075   9.375  22.916  0.00  0.00    +0.000 OA
ENDBRANCH  19  26
BRANCH  23  27
ATOM     27  O   UNL     1       1.551  10.122  18.373  0.00  0.00    +0.000 OA
BRANCH  27  28
ATOM     28  C   UNL     1       1.424  11.484  18.785  0.00  0.00    +0.000 C 
ATOM     29  C   UNL     1       2.463  12.348  18.071  0.00  0.00    +0.000 C 
ATOM     30  C   UNL     1       0.018  11.919  18.384  0.00  0.00    +0.000 C 
ENDBRANCH  27  28
ENDBRANCH  23  27
ENDBRANCH   1  21
TORSDOF 5
ENDMDL
