MODEL 1
REMARK VINA RESULT:      -8.0      0.000      0.000
REMARK  Name = 
REMARK  3 active torsions:
REMARK  status: ('A' for Active; 'I' for Inactive)
REMARK    1  A    between atoms: C_6  and  C_7
REMARK    2  A    between atoms: C_16  and  C_17
REMARK    3  A    between atoms: C_17  and  C_18
REMARK                            x       y       z     vdW  Elec       q    Type
REMARK                         _______ _______ _______ _____ _____    ______ ____
ROOT
ATOM      1  C   UNL     1       2.687   7.046  18.517  0.00  0.00    +0.000 A 
ATOM      2  N   UNL     1       2.509   8.189  17.767  0.00  0.00    +0.000 NA
ATOM      3  C   UNL     1       1.824   9.012  18.526  0.00  0.00    +0.000 A 
ATOM      4  C   UNL     1       1.326  10.320  18.268  0.00  0.00    +0.000 A 
ATOM      5  C   UNL     1       0.609  10.962  19.208  0.00  0.00    +0.000 A 
ATOM      6  C   UNL     1       0.328  10.346  20.498  0.00  0.00    +0.000 A 
ATOM      7 BR   UNL     1      -0.706  11.286  21.727  0.00  0.00    +0.000 Br
ATOM      8  C   UNL     1       0.812   9.119  20.751  0.00  0.00    +0.000 A 
ATOM      9  N   UNL     1       1.559   8.458  19.770  0.00  0.00    +0.000 N 
ATOM     10  C   UNL     1       2.133   7.196  19.783  0.00  0.00    +0.000 A 
ENDROOT
BRANCH   1  16
ATOM     11 BR   UNL     1       7.451   4.822  17.769  0.00  0.00    +0.000 Br
ATOM     12  C   UNL     1       5.566   4.818  17.614  0.00  0.00    +0.000 A 
ATOM     13  C   UNL     1       4.925   3.711  17.062  0.00  0.00    +0.000 A 
ATOM     14  C   UNL     1       3.538   3.716  16.934  0.00  0.00    +0.000 A 
ATOM     15  C   UNL     1       2.799   4.816  17.382  0.00  0.00    +0.000 A 
ATOM     16  C   UNL     1       3.430   5.910  17.986  0.00  0.00    +0.000 A 
ATOM     17  C   UNL     1       4.829   5.914  18.066  0.00  0.00    +0.000 A 
ENDBRANCH   1  16
BRANCH  10  18
ATOM     18  C   UNL     1       2.096   6.303  20.988  0.00  0.00    +0.000 C 
BRANCH  18  19
ATOM     19  C   UNL     1       1.970   4.822  20.676  0.00  0.00    +0.000 A 
ATOM     20  C   UNL     1       3.077   3.984  20.885  0.00  0.00    +0.000 A 
ATOM     21  C   UNL     1       3.033   2.637  20.516  0.00  0.00    +0.000 A 
ATOM     22  C   UNL     1       1.874   2.103  19.959  0.00  0.00    +0.000 A 
ATOM     23  C   UNL     1       0.748   2.904  19.804  0.00  0.00    +0.000 A 
ATOM     24  C   UNL     1       0.791   4.250  20.170  0.00  0.00    +0.000 A 
ENDBRANCH  18  19
ENDBRANCH  10  18
TORSDOF 3
ENDMDL
MODEL 2
REMARK VINA RESULT:      -7.7      1.783      2.279
REMARK  Name = 
REMARK  3 active torsions:
REMARK  status: ('A' for Active; 'I' for Inactive)
REMARK    1  A    between atoms: C_6  and  C_7
REMARK    2  A    between atoms: C_16  and  C_17
REMARK    3  A    between atoms: C_17  and  C_18
REMARK                            x       y       z     vdW  Elec       q    Type
REMARK                         _______ _______ _______ _____ _____    ______ ____
ROOT
ATOM      1  C   UNL     1       4.154   6.687  17.588  0.00  0.00    +0.000 A 
ATOM      2  N   UNL     1       3.768   7.884  17.024  0.00  0.00    +0.000 NA
ATOM      3  C   UNL     1       2.870   8.389  17.836  0.00  0.00    +0.000 A 
ATOM      4  C   UNL     1       2.106   9.587  17.750  0.00  0.00    +0.000 A 
ATOM      5  C   UNL     1       1.206   9.879  18.707  0.00  0.00    +0.000 A 
ATOM      6  C   UNL     1       0.993   8.991  19.842  0.00  0.00    +0.000 A 
ATOM      7 BR   UNL     1      -0.300   9.449  21.100  0.00  0.00    +0.000 Br
ATOM      8  C   UNL     1       1.726   7.869  19.936  0.00  0.00    +0.000 A 
ATOM      9  N   UNL     1       2.662   7.573  18.939  0.00  0.00    +0.000 N 
ATOM     10  C   UNL     1       3.505   6.481  18.800  0.00  0.00    +0.000 A 
ENDROOT
BRANCH   1  16
ATOM     11 BR   UNL     1       5.555   3.928  13.273  0.00  0.00    +0.000 Br
ATOM     12  C   UNL     1       5.889   4.577  15.018  0.00  0.00    +0.000 A 
ATOM     13  C   UNL     1       7.108   4.301  15.632  0.00  0.00    +0.000 A 
ATOM     14  C   UNL     1       7.346   4.767  16.923  0.00  0.00    +0.000 A 
ATOM     15  C   UNL     1       6.374   5.525  17.582  0.00  0.00    +0.000 A 
ATOM     16  C   UNL     1       5.166   5.851  16.954  0.00  0.00    +0.000 A 
ATOM     17  C   UNL     1       4.919   5.338  15.673  0.00  0.00    +0.000 A 
ENDBRANCH   1  16
BRANCH  10  18
ATOM     18  C   UNL     1       3.597   5.395  19.831  0.00  0.00    +0.000 C 
BRANCH  18  19
ATOM     19  C   UNL     1       2.685   4.206  19.584  0.00  0.00    +0.000 A 
ATOM     20  C   UNL     1       3.037   3.269  18.600  0.00  0.00    +0.000 A 
ATOM     21  C   UNL     1       2.175   2.218  18.274  0.00  0.00    +0.000 A 
ATOM     22  C   UNL     1       0.963   2.075  18.944  0.00  0.00    +0.000 A 
ATOM     23  C   UNL     1       0.628   2.958  19.965  0.00  0.00    +0.000 A 
ATOM     24  C   UNL     1       1.487   4.009  20.291  0.00  0.00    +0.000 A 
ENDBRANCH  18  19
ENDBRANCH  10  18
TORSDOF 3
ENDMDL
MODEL 3
REMARK VINA RESULT:      -7.5      1.798      2.264
REMARK  Name = 
REMARK  3 active torsions:
REMARK  status: ('A' for Active; 'I' for Inactive)
REMARK    1  A    between atoms: C_6  and  C_7
REMARK    2  A    between atoms: C_16  and  C_17
REMARK    3  A    between atoms: C_17  and  C_18
REMARK                            x       y       z     vdW  Elec       q    Type
REMARK                         _______ _______ _______ _____ _____    ______ ____
ROOT
ATOM      1  C   UNL     1       4.064   6.681  17.797  0.00  0.00    +0.000 A 
ATOM      2  N   UNL     1       3.740   7.891  17.220  0.00  0.00    +0.000 NA
ATOM      3  C   UNL     1       2.811   8.414  17.985  0.00  0.00    +0.000 A 
ATOM      4  C   UNL     1       2.084   9.632  17.864  0.00  0.00    +0.000 A 
ATOM      5  C   UNL     1       1.140   9.942  18.771  0.00  0.00    +0.000 A 
ATOM      6  C   UNL     1       0.841   9.054  19.886  0.00  0.00    +0.000 A 
ATOM      7 BR   UNL     1      -0.508   9.538  21.073  0.00  0.00    +0.000 Br
ATOM      8  C   UNL     1       1.539   7.912  20.013  0.00  0.00    +0.000 A 
ATOM      9  N   UNL     1       2.521   7.598  19.068  0.00  0.00    +0.000 N 
ATOM     10  C   UNL     1       3.342   6.485  18.970  0.00  0.00    +0.000 A 
ENDROOT
BRANCH   1  16
ATOM     11 BR   UNL     1       5.625   3.896  13.555  0.00  0.00    +0.000 Br
ATOM     12  C   UNL     1       5.882   4.534  15.317  0.00  0.00    +0.000 A 
ATOM     13  C   UNL     1       7.061   4.230  15.993  0.00  0.00    +0.000 A 
ATOM     14  C   UNL     1       7.241   4.688  17.295  0.00  0.00    +0.000 A 
ATOM     15  C   UNL     1       6.253   5.468  17.905  0.00  0.00    +0.000 A 
ATOM     16  C   UNL     1       5.088   5.823  17.215  0.00  0.00    +0.000 A 
ATOM     17  C   UNL     1       4.896   5.316  15.922  0.00  0.00    +0.000 A 
ENDBRANCH   1  16
BRANCH  10  18
ATOM     18  C   UNL     1       3.349   5.392  19.996  0.00  0.00    +0.000 C 
BRANCH  18  19
ATOM     19  C   UNL     1       3.279   3.986  19.426  0.00  0.00    +0.000 A 
ATOM     20  C   UNL     1       4.229   3.036  19.834  0.00  0.00    +0.000 A 
ATOM     21  C   UNL     1       4.260   1.763  19.257  0.00  0.00    +0.000 A 
ATOM     22  C   UNL     1       3.325   1.414  18.286  0.00  0.00    +0.000 A 
ATOM     23  C   UNL     1       2.338   2.321  17.916  0.00  0.00    +0.000 A 
ATOM     24  C   UNL     1       2.307   3.594  18.490  0.00  0.00    +0.000 A 
ENDBRANCH  18  19
ENDBRANCH  10  18
TORSDOF 3
ENDMDL
MODEL 4
REMARK VINA RESULT:      -7.1      1.255      1.443
REMARK  Name = 
REMARK  3 active torsions:
REMARK  status: ('A' for Active; 'I' for Inactive)
REMARK    1  A    between atoms: C_6  and  C_7
REMARK    2  A    between atoms: C_16  and  C_17
REMARK    3  A    between atoms: C_17  and  C_18
REMARK                            x       y       z     vdW  Elec       q    Type
REMARK                         _______ _______ _______ _____ _____    ______ ____
ROOT
ATOM      1  C   UNL     1       3.289   7.143  18.427  0.00  0.00    +0.000 A 
ATOM      2  N   UNL     1       3.226   8.303  17.684  0.00  0.00    +0.000 NA
ATOM      3  C   UNL     1       2.300   9.040  18.249  0.00  0.00    +0.000 A 
ATOM      4  C   UNL     1       1.786  10.320  17.897  0.00  0.00    +0.000 A 
ATOM      5  C   UNL     1       0.796  10.868  18.624  0.00  0.00    +0.000 A 
ATOM      6  C   UNL     1       0.231  10.178  19.776  0.00  0.00    +0.000 A 
ATOM      7 BR   UNL     1      -1.165  10.988  20.703  0.00  0.00    +0.000 Br
ATOM      8  C   UNL     1       0.726   8.978  20.122  0.00  0.00    +0.000 A 
ATOM      9  N   UNL     1       1.758   8.415  19.363  0.00  0.00    +0.000 N 
ATOM     10  C   UNL     1       2.407   7.198  19.501  0.00  0.00    +0.000 A 
ENDROOT
BRANCH   1  16
ATOM     11 BR   UNL     1       5.646   4.373  14.559  0.00  0.00    +0.000 Br
ATOM     12  C   UNL     1       5.365   4.781  16.385  0.00  0.00    +0.000 A 
ATOM     13  C   UNL     1       6.107   4.117  17.359  0.00  0.00    +0.000 A 
ATOM     14  C   UNL     1       5.888   4.407  18.703  0.00  0.00    +0.000 A 
ATOM     15  C   UNL     1       4.947   5.377  19.064  0.00  0.00    +0.000 A 
ATOM     16  C   UNL     1       4.234   6.086  18.090  0.00  0.00    +0.000 A 
ATOM     17  C   UNL     1       4.429   5.752  16.743  0.00  0.00    +0.000 A 
ENDBRANCH   1  16
BRANCH  10  18
ATOM     18  C   UNL     1       2.121   6.253  20.630  0.00  0.00    +0.000 C 
BRANCH  18  19
ATOM     19  C   UNL     1       1.772   4.838  20.201  0.00  0.00    +0.000 A 
ATOM     20  C   UNL     1       1.818   3.806  21.152  0.00  0.00    +0.000 A 
ATOM     21  C   UNL     1       1.603   2.477  20.774  0.00  0.00    +0.000 A 
ATOM     22  C   UNL     1       1.313   2.167  19.449  0.00  0.00    +0.000 A 
ATOM     23  C   UNL     1       1.201   3.184  18.507  0.00  0.00    +0.000 A 
ATOM     24  C   UNL     1       1.418   4.511  18.882  0.00  0.00    +0.000 A 
ENDBRANCH  18  19
ENDBRANCH  10  18
TORSDOF 3
ENDMDL
MODEL 5
REMARK VINA RESULT:      -6.8      1.192      1.442
REMARK  Name = 
REMARK  3 active torsions:
REMARK  status: ('A' for Active; 'I' for Inactive)
REMARK    1  A    between atoms: C_6  and  C_7
REMARK    2  A    between atoms: C_16  and  C_17
REMARK    3  A    between atoms: C_17  and  C_18
REMARK                            x       y       z     vdW  Elec       q    Type
REMARK                         _______ _______ _______ _____ _____    ______ ____
ROOT
ATOM      1  C   UNL     1       2.690   7.199  18.315  0.00  0.00    +0.000 A 
ATOM      2  N   UNL     1       2.226   8.267  17.576  0.00  0.00    +0.000 NA
ATOM      3  C   UNL     1       1.539   9.009  18.411  0.00  0.00    +0.000 A 
ATOM      4  C   UNL     1       0.810  10.213  18.202  0.00  0.00    +0.000 A 
ATOM      5  C   UNL     1       0.146  10.781  19.226  0.00  0.00    +0.000 A 
ATOM      6  C   UNL     1       0.156  10.189  20.557  0.00  0.00    +0.000 A 
ATOM      7 BR   UNL     1      -0.821  11.016  21.907  0.00  0.00    +0.000 Br
ATOM      8  C   UNL     1       0.860   9.062  20.761  0.00  0.00    +0.000 A 
ATOM      9  N   UNL     1       1.549   8.478  19.693  0.00  0.00    +0.000 N 
ATOM     10  C   UNL     1       2.311   7.321  19.648  0.00  0.00    +0.000 A 
ENDROOT
BRANCH   1  16
ATOM     11 BR   UNL     1       3.494   1.996  17.629  0.00  0.00    +0.000 Br
ATOM     12  C   UNL     1       3.949   3.807  17.330  0.00  0.00    +0.000 A 
ATOM     13  C   UNL     1       5.014   4.117  16.487  0.00  0.00    +0.000 A 
ATOM     14  C   UNL     1       5.358   5.450  16.280  0.00  0.00    +0.000 A 
ATOM     15  C   UNL     1       4.620   6.466  16.897  0.00  0.00    +0.000 A 
ATOM     16  C   UNL     1       3.516   6.166  17.704  0.00  0.00    +0.000 A 
ATOM     17  C   UNL     1       3.209   4.819  17.943  0.00  0.00    +0.000 A 
ENDBRANCH   1  16
BRANCH  10  18
ATOM     18  C   UNL     1       2.591   6.489  20.864  0.00  0.00    +0.000 C 
BRANCH  18  19
ATOM     19  C   UNL     1       2.034   5.077  20.809  0.00  0.00    +0.000 A 
ATOM     20  C   UNL     1       2.690   4.056  21.515  0.00  0.00    +0.000 A 
ATOM     21  C   UNL     1       2.268   2.728  21.408  0.00  0.00    +0.000 A 
ATOM     22  C   UNL     1       1.168   2.407  20.617  0.00  0.00    +0.000 A 
ATOM     23  C   UNL     1       0.468   3.414  19.961  0.00  0.00    +0.000 A 
ATOM     24  C   UNL     1       0.890   4.741  20.065  0.00  0.00    +0.000 A 
ENDBRANCH  18  19
ENDBRANCH  10  18
TORSDOF 3
ENDMDL
MODEL 6
REMARK VINA RESULT:      -6.8      4.446      9.544
REMARK  Name = 
REMARK  3 active torsions:
REMARK  status: ('A' for Active; 'I' for Inactive)
REMARK    1  A    between atoms: C_6  and  C_7
REMARK    2  A    between atoms: C_16  and  C_17
REMARK    3  A    between atoms: C_17  and  C_18
REMARK                            x       y       z     vdW  Elec       q    Type
REMARK                         _______ _______ _______ _____ _____    ______ ____
ROOT
ATOM      1  C   UNL     1      -1.071  11.630  22.397  0.00  0.00    +0.000 A 
ATOM      2  N   UNL     1      -0.355  10.609  22.986  0.00  0.00    +0.000 NA
ATOM      3  C   UNL     1       0.270   9.999  22.007  0.00  0.00    +0.000 A 
ATOM      4  C   UNL     1       1.124   8.861  22.015  0.00  0.00    +0.000 A 
ATOM      5  C   UNL     1       1.628   8.392  20.859  0.00  0.00    +0.000 A 
ATOM      6  C   UNL     1       1.318   9.028  19.585  0.00  0.00    +0.000 A 
ATOM      7 BR   UNL     1       2.022   8.292  18.028  0.00  0.00    +0.000 Br
ATOM      8  C   UNL     1       0.526  10.114  19.577  0.00  0.00    +0.000 A 
ATOM      9  N   UNL     1       0.008  10.597  20.783  0.00  0.00    +0.000 N 
ATOM     10  C   UNL     1      -0.839  11.668  21.027  0.00  0.00    +0.000 A 
ENDROOT
BRANCH   1  16
ATOM     11 BR   UNL     1      -1.374  16.349  24.811  0.00  0.00    +0.000 Br
ATOM     12  C   UNL     1      -2.109  14.678  24.320  0.00  0.00    +0.000 A 
ATOM     13  C   UNL     1      -3.422  14.375  24.674  0.00  0.00    +0.000 A 
ATOM     14  C   UNL     1      -3.957  13.137  24.326  0.00  0.00    +0.000 A 
ATOM     15  C   UNL     1      -3.185  12.220  23.605  0.00  0.00    +0.000 A 
ATOM     16  C   UNL     1      -1.883  12.537  23.199  0.00  0.00    +0.000 A 
ATOM     17  C   UNL     1      -1.339  13.766  23.596  0.00  0.00    +0.000 A 
ENDBRANCH   1  16
BRANCH  10  18
ATOM     18  C   UNL     1      -1.307  12.591  19.942  0.00  0.00    +0.000 C 
BRANCH  18  19
ATOM     19  C   UNL     1      -2.656  12.233  19.342  0.00  0.00    +0.000 A 
ATOM     20  C   UNL     1      -3.826  12.648  19.997  0.00  0.00    +0.000 A 
ATOM     21  C   UNL     1      -5.084  12.252  19.532  0.00  0.00    +0.000 A 
ATOM     22  C   UNL     1      -5.189  11.459  18.392  0.00  0.00    +0.000 A 
ATOM     23  C   UNL     1      -4.043  11.092  17.696  0.00  0.00    +0.000 A 
ATOM     24  C   UNL     1      -2.786  11.485  18.159  0.00  0.00    +0.000 A 
ENDBRANCH  18  19
ENDBRANCH  10  18
TORSDOF 3
ENDMDL
MODEL 7
REMARK VINA RESULT:      -6.7      4.417      9.570
REMARK  Name = 
REMARK  3 active torsions:
REMARK  status: ('A' for Active; 'I' for Inactive)
REMARK    1  A    between atoms: C_6  and  C_7
REMARK    2  A    between atoms: C_16  and  C_17
REMARK    3  A    between atoms: C_17  and  C_18
REMARK                            x       y       z     vdW  Elec       q    Type
REMARK                         _______ _______ _______ _____ _____    ______ ____
ROOT
ATOM      1  C   UNL     1      -1.065  11.690  22.291  0.00  0.00    +0.000 A 
ATOM      2  N   UNL     1      -0.395  10.672  22.937  0.00  0.00    +0.000 NA
ATOM      3  C   UNL     1       0.254  10.021  22.001  0.00  0.00    +0.000 A 
ATOM      4  C   UNL     1       1.082   8.866  22.075  0.00  0.00    +0.000 A 
ATOM      5  C   UNL     1       1.620   8.353  20.953  0.00  0.00    +0.000 A 
ATOM      6  C   UNL     1       1.374   8.958  19.651  0.00  0.00    +0.000 A 
ATOM      7 BR   UNL     1       2.122   8.162  18.144  0.00  0.00    +0.000 Br
ATOM      8  C   UNL     1       0.607  10.059  19.580  0.00  0.00    +0.000 A 
ATOM      9  N   UNL     1       0.054  10.588  20.750  0.00  0.00    +0.000 N 
ATOM     10  C   UNL     1      -0.778  11.683  20.930  0.00  0.00    +0.000 A 
ENDROOT
BRANCH   1  16
ATOM     11 BR   UNL     1      -5.902  12.861  24.140  0.00  0.00    +0.000 Br
ATOM     12  C   UNL     1      -4.062  13.242  23.924  0.00  0.00    +0.000 A 
ATOM     13  C   UNL     1      -3.521  14.374  24.529  0.00  0.00    +0.000 A 
ATOM     14  C   UNL     1      -2.169  14.662  24.356  0.00  0.00    +0.000 A 
ATOM     15  C   UNL     1      -1.363  13.804  23.601  0.00  0.00    +0.000 A 
ATOM     16  C   UNL     1      -1.887  12.637  23.034  0.00  0.00    +0.000 A 
ATOM     17  C   UNL     1      -3.258  12.382  23.175  0.00  0.00    +0.000 A 
ENDBRANCH   1  16
BRANCH  10  18
ATOM     18  C   UNL     1      -1.184  12.583  19.801  0.00  0.00    +0.000 C 
BRANCH  18  19
ATOM     19  C   UNL     1      -2.421  12.134  19.043  0.00  0.00    +0.000 A 
ATOM     20  C   UNL     1      -2.270  11.551  17.775  0.00  0.00    +0.000 A 
ATOM     21  C   UNL     1      -3.387  11.217  17.004  0.00  0.00    +0.000 A 
ATOM     22  C   UNL     1      -4.669  11.437  17.502  0.00  0.00    +0.000 A 
ATOM     23  C   UNL     1      -4.836  11.954  18.781  0.00  0.00    +0.000 A 
ATOM     24  C   UNL     1      -3.722  12.290  19.552  0.00  0.00    +0.000 A 
ENDBRANCH  18  19
ENDBRANCH  10  18
TORSDOF 3
ENDMDL
MODEL 8
REMARK VINA RESULT:      -6.6      1.611      5.772
REMARK  Name = 
REMARK  3 active torsions:
REMARK  status: ('A' for Active; 'I' for Inactive)
REMARK    1  A    between atoms: C_6  and  C_7
REMARK    2  A    between atoms: C_16  and  C_17
REMARK    3  A    between atoms: C_17  and  C_18
REMARK                            x       y       z     vdW  Elec       q    Type
REMARK                         _______ _______ _______ _____ _____    ______ ____
ROOT
ATOM      1  C   UNL     1       2.835   7.226  18.529  0.00  0.00    +0.000 A 
ATOM      2  N   UNL     1       3.937   7.882  18.023  0.00  0.00    +0.000 NA
ATOM      3  C   UNL     1       4.543   7.015  17.247  0.00  0.00    +0.000 A 
ATOM      4  C   UNL     1       5.743   7.124  16.490  0.00  0.00    +0.000 A 
ATOM      5  C   UNL     1       6.190   6.069  15.785  0.00  0.00    +0.000 A 
ATOM      6  C   UNL     1       5.468   4.803  15.777  0.00  0.00    +0.000 A 
ATOM      7 BR   UNL     1       6.176   3.380  14.809  0.00  0.00    +0.000 Br
ATOM      8  C   UNL     1       4.325   4.703  16.476  0.00  0.00    +0.000 A 
ATOM      9  N   UNL     1       3.865   5.805  17.204  0.00  0.00    +0.000 N 
ATOM     10  C   UNL     1       2.745   5.939  18.011  0.00  0.00    +0.000 A 
ENDROOT
BRANCH   1  16
ATOM     11 BR   UNL     1      -0.466  11.324  19.242  0.00  0.00    +0.000 Br
ATOM     12  C   UNL     1       0.374   9.737  19.836  0.00  0.00    +0.000 A 
ATOM     13  C   UNL     1       0.046   9.213  21.084  0.00  0.00    +0.000 A 
ATOM     14  C   UNL     1       0.677   8.053  21.526  0.00  0.00    +0.000 A 
ATOM     15  C   UNL     1       1.612   7.411  20.709  0.00  0.00    +0.000 A 
ATOM     16  C   UNL     1       1.909   7.901  19.431  0.00  0.00    +0.000 A 
ATOM     17  C   UNL     1       1.304   9.095  19.016  0.00  0.00    +0.000 A 
ENDBRANCH   1  16
BRANCH  10  18
ATOM     18  C   UNL     1       1.734   4.844  18.179  0.00  0.00    +0.000 C 
BRANCH  18  19
ATOM     19  C   UNL     1       1.977   3.933  19.370  0.00  0.00    +0.000 A 
ATOM     20  C   UNL     1       0.938   3.723  20.292  0.00  0.00    +0.000 A 
ATOM     21  C   UNL     1       1.154   2.974  21.452  0.00  0.00    +0.000 A 
ATOM     22  C   UNL     1       2.400   2.403  21.693  0.00  0.00    +0.000 A 
ATOM     23  C   UNL     1       3.421   2.548  20.759  0.00  0.00    +0.000 A 
ATOM     24  C   UNL     1       3.208   3.297  19.601  0.00  0.00    +0.000 A 
ENDBRANCH  18  19
ENDBRANCH  10  18
TORSDOF 3
ENDMDL
MODEL 9
REMARK VINA RESULT:      -6.6      1.839      3.787
REMARK  Name = 
REMARK  3 active torsions:
REMARK  status: ('A' for Active; 'I' for Inactive)
REMARK    1  A    between atoms: C_6  and  C_7
REMARK    2  A    between atoms: C_16  and  C_17
REMARK    3  A    between atoms: C_17  and  C_18
REMARK                            x       y       z     vdW  Elec       q    Type
REMARK                         _______ _______ _______ _____ _____    ______ ____
ROOT
ATOM      1  C   UNL     1       2.347   5.588  19.412  0.00  0.00    +0.000 A 
ATOM      2  N   UNL     1       1.532   5.844  20.494  0.00  0.00    +0.000 NA
ATOM      3  C   UNL     1       1.338   7.142  20.496  0.00  0.00    +0.000 A 
ATOM      4  C   UNL     1       0.609   7.972  21.393  0.00  0.00    +0.000 A 
ATOM      5  C   UNL     1       0.584   9.304  21.203  0.00  0.00    +0.000 A 
ATOM      6  C   UNL     1       1.290   9.924  20.090  0.00  0.00    +0.000 A 
ATOM      7 BR   UNL     1       1.238  11.777  19.923  0.00  0.00    +0.000 Br
ATOM      8  C   UNL     1       1.964   9.141  19.231  0.00  0.00    +0.000 A 
ATOM      9  N   UNL     1       1.984   7.757  19.433  0.00  0.00    +0.000 N 
ATOM     10  C   UNL     1       2.620   6.758  18.712  0.00  0.00    +0.000 A 
ENDROOT
BRANCH   1  16
ATOM     11 BR   UNL     1       5.189   1.352  20.887  0.00  0.00    +0.000 Br
ATOM     12  C   UNL     1       4.023   2.244  19.696  0.00  0.00    +0.000 A 
ATOM     13  C   UNL     1       3.533   1.569  18.580  0.00  0.00    +0.000 A 
ATOM     14  C   UNL     1       2.687   2.233  17.695  0.00  0.00    +0.000 A 
ATOM     15  C   UNL     1       2.316   3.558  17.944  0.00  0.00    +0.000 A 
ATOM     16  C   UNL     1       2.760   4.227  19.090  0.00  0.00    +0.000 A 
ATOM     17  C   UNL     1       3.649   3.565  19.948  0.00  0.00    +0.000 A 
ENDBRANCH   1  16
BRANCH  10  18
ATOM     18  C   UNL     1       3.390   7.033  17.454  0.00  0.00    +0.000 C 
BRANCH  18  19
ATOM     19  C   UNL     1       4.672   6.232  17.307  0.00  0.00    +0.000 A 
ATOM     20  C   UNL     1       4.830   5.396  16.189  0.00  0.00    +0.000 A 
ATOM     21  C   UNL     1       5.949   4.568  16.070  0.00  0.00    +0.000 A 
ATOM     22  C   UNL     1       6.938   4.584  17.050  0.00  0.00    +0.000 A 
ATOM     23  C   UNL     1       6.828   5.452  18.131  0.00  0.00    +0.000 A 
ATOM     24  C   UNL     1       5.709   6.279  18.253  0.00  0.00    +0.000 A 
ENDBRANCH  18  19
ENDBRANCH  10  18
TORSDOF 3
ENDMDL
