MODEL 1
REMARK VINA RESULT:      -8.9      0.000      0.000
REMARK  Name = 
REMARK  3 active torsions:
REMARK  status: ('A' for Active; 'I' for Inactive)
REMARK    1  A    between atoms: C_2  and  C_20
REMARK    2  A    between atoms: N_3  and  C_4
REMARK    3  A    between atoms: C_23  and  C_24
REMARK                            x       y       z     vdW  Elec       q    Type
REMARK                         _______ _______ _______ _____ _____    ______ ____
ROOT
ATOM      1  O   UNL     1       0.915  11.635  18.789  0.00  0.00    +0.000 OA
ATOM      2  C   UNL     1       0.424  10.645  19.326  0.00  0.00    +0.000 C 
ATOM      3  N   UNL     1      -0.851  10.654  19.829  0.00  0.00    +0.000 N 
ATOM      4  H   UNL     1      -1.248   9.801  20.219  0.00  0.00    +0.000 HD
ENDROOT
BRANCH   3   5
ATOM      5  C   UNL     1      -1.687  11.849  19.722  0.00  0.00    +0.000 C 
ATOM      6  C   UNL     1      -2.760  11.615  18.669  0.00  0.00    +0.000 A 
ATOM      7  C   UNL     1      -2.378  11.093  17.413  0.00  0.00    +0.000 A 
ATOM      8  C   UNL     1      -3.303  10.893  16.385  0.00  0.00    +0.000 A 
ATOM      9  C   UNL     1      -4.638  11.230  16.575  0.00  0.00    +0.000 A 
ATOM     10  C   UNL     1      -5.041  11.771  17.790  0.00  0.00    +0.000 A 
ATOM     11  C   UNL     1      -4.103  11.962  18.818  0.00  0.00    +0.000 A 
ATOM     12  S   UNL     1      -4.695  12.695  20.301  0.00  0.00    +0.000 S 
ATOM     13  O   UNL     1      -5.039  14.060  19.975  0.00  0.00    +0.000 OA
ATOM     14  O   UNL     1      -5.672  11.774  20.854  0.00  0.00    +0.000 OA
ATOM     15  C   UNL     1      -3.371  12.772  21.453  0.00  0.00    +0.000 A 
ATOM     16  C   UNL     1      -3.668  13.315  22.714  0.00  0.00    +0.000 A 
ATOM     17  C   UNL     1      -2.664  13.457  23.664  0.00  0.00    +0.000 A 
ATOM     18  C   UNL     1      -1.370  13.059  23.351  0.00  0.00    +0.000 A 
ATOM     19  C   UNL     1      -1.086  12.517  22.092  0.00  0.00    +0.000 A 
ATOM     20  C   UNL     1      -2.086  12.348  21.107  0.00  0.00    +0.000 A 
ENDBRANCH   3   5
BRANCH   2  21
ATOM     21  C   UNL     1       1.195   9.375  19.417  0.00  0.00    +0.000 A 
ATOM     22  C   UNL     1       1.768   8.943  18.278  0.00  0.00    +0.000 A 
ATOM     23  C   UNL     1       2.432   7.668  18.192  0.00  0.00    +0.000 A 
ATOM     24  C   UNL     1       2.507   6.868  19.266  0.00  0.00    +0.000 A 
ATOM     25  N   UNL     1       1.985   7.324  20.472  0.00  0.00    +0.000 N 
ATOM     26  C   UNL     1       1.342   8.534  20.639  0.00  0.00    +0.000 A 
ATOM     27  O   UNL     1       0.900   8.886  21.729  0.00  0.00    +0.000 OA
ATOM     28  H   UNL     1       2.058   6.735  21.297  0.00  0.00    +0.000 HD
BRANCH  24  29
ATOM     29  C   UNL     1       3.102   5.481  19.185  0.00  0.00    +0.000 C 
ATOM     30  F   UNL     1       4.377   5.452  19.651  0.00  0.00    +0.000 F 
ATOM     31  F   UNL     1       2.391   4.590  19.924  0.00  0.00    +0.000 F 
ATOM     32  F   UNL     1       3.128   5.010  17.914  0.00  0.00    +0.000 F 
ENDBRANCH  24  29
ENDBRANCH   2  21
TORSDOF 3
ENDMDL
MODEL 2
REMARK VINA RESULT:      -8.4      5.279      9.377
REMARK  Name = 
REMARK  3 active torsions:
REMARK  status: ('A' for Active; 'I' for Inactive)
REMARK    1  A    between atoms: C_2  and  C_20
REMARK    2  A    between atoms: N_3  and  C_4
REMARK    3  A    between atoms: C_23  and  C_24
REMARK                            x       y       z     vdW  Elec       q    Type
REMARK                         _______ _______ _______ _____ _____    ______ ____
ROOT
ATOM      1  O   UNL     1       1.839   6.551  17.939  0.00  0.00    +0.000 OA
ATOM      2  C   UNL     1       2.291   7.216  18.868  0.00  0.00    +0.000 C 
ATOM      3  N   UNL     1       3.307   6.751  19.661  0.00  0.00    +0.000 N 
ATOM      4  H   UNL     1       3.697   7.348  20.389  0.00  0.00    +0.000 HD
ENDROOT
BRANCH   3   5
ATOM      5  C   UNL     1       3.910   5.442  19.410  0.00  0.00    +0.000 C 
ATOM      6  C   UNL     1       2.957   4.354  19.885  0.00  0.00    +0.000 A 
ATOM      7  C   UNL     1       2.387   4.464  21.173  0.00  0.00    +0.000 A 
ATOM      8  C   UNL     1       1.538   3.482  21.690  0.00  0.00    +0.000 A 
ATOM      9  C   UNL     1       1.249   2.347  20.941  0.00  0.00    +0.000 A 
ATOM     10  C   UNL     1       1.815   2.197  19.681  0.00  0.00    +0.000 A 
ATOM     11  C   UNL     1       2.663   3.193  19.169  0.00  0.00    +0.000 A 
ATOM     12  S   UNL     1       3.368   2.894  17.589  0.00  0.00    +0.000 S 
ATOM     13  O   UNL     1       4.292   1.795  17.753  0.00  0.00    +0.000 OA
ATOM     14  O   UNL     1       2.263   2.827  16.650  0.00  0.00    +0.000 OA
ATOM     15  C   UNL     1       4.328   4.293  17.132  0.00  0.00    +0.000 A 
ATOM     16  C   UNL     1       4.956   4.240  15.877  0.00  0.00    +0.000 A 
ATOM     17  C   UNL     1       5.774   5.284  15.464  0.00  0.00    +0.000 A 
ATOM     18  C   UNL     1       5.962   6.375  16.304  0.00  0.00    +0.000 A 
ATOM     19  C   UNL     1       5.330   6.418  17.552  0.00  0.00    +0.000 A 
ATOM     20  C   UNL     1       4.482   5.378  17.998  0.00  0.00    +0.000 A 
ENDBRANCH   3   5
BRANCH   2  21
ATOM     21  C   UNL     1       1.766   8.581  19.145  0.00  0.00    +0.000 A 
ATOM     22  C   UNL     1       1.891   9.480  18.151  0.00  0.00    +0.000 A 
ATOM     23  C   UNL     1       1.546  10.867  18.327  0.00  0.00    +0.000 A 
ATOM     24  C   UNL     1       1.073  11.305  19.504  0.00  0.00    +0.000 A 
ATOM     25  N   UNL     1       0.868  10.381  20.523  0.00  0.00    +0.000 N 
ATOM     26  C   UNL     1       1.165   9.035  20.431  0.00  0.00    +0.000 A 
ATOM     27  O   UNL     1       0.963   8.264  21.364  0.00  0.00    +0.000 OA
ATOM     28  H   UNL     1       0.488  10.698  21.410  0.00  0.00    +0.000 HD
BRANCH  24  29
ATOM     29  C   UNL     1       0.801  12.770  19.757  0.00  0.00    +0.000 C 
ATOM     30  F   UNL     1       1.777  13.340  20.509  0.00  0.00    +0.000 F 
ATOM     31  F   UNL     1       0.735  13.472  18.597  0.00  0.00    +0.000 F 
ATOM     32  F   UNL     1      -0.373  12.967  20.407  0.00  0.00    +0.000 F 
ENDBRANCH  24  29
ENDBRANCH   2  21
TORSDOF 3
ENDMDL
MODEL 3
REMARK VINA RESULT:      -8.3      5.122      9.427
REMARK  Name = 
REMARK  3 active torsions:
REMARK  status: ('A' for Active; 'I' for Inactive)
REMARK    1  A    between atoms: C_2  and  C_20
REMARK    2  A    between atoms: N_3  and  C_4
REMARK    3  A    between atoms: C_23  and  C_24
REMARK                            x       y       z     vdW  Elec       q    Type
REMARK                         _______ _______ _______ _____ _____    ______ ____
ROOT
ATOM      1  O   UNL     1       1.756   6.545  18.158  0.00  0.00    +0.000 OA
ATOM      2  C   UNL     1       2.253   7.188  19.079  0.00  0.00    +0.000 C 
ATOM      3  N   UNL     1       3.312   6.709  19.805  0.00  0.00    +0.000 N 
ATOM      4  H   UNL     1       3.737   7.289  20.527  0.00  0.00    +0.000 HD
ENDROOT
BRANCH   3   5
ATOM      5  C   UNL     1       3.907   5.411  19.489  0.00  0.00    +0.000 C 
ATOM      6  C   UNL     1       2.958   4.306  19.933  0.00  0.00    +0.000 A 
ATOM      7  C   UNL     1       2.410   4.362  21.233  0.00  0.00    +0.000 A 
ATOM      8  C   UNL     1       1.567   3.360  21.721  0.00  0.00    +0.000 A 
ATOM      9  C   UNL     1       1.262   2.259  20.929  0.00  0.00    +0.000 A 
ATOM     10  C   UNL     1       1.807   2.162  19.655  0.00  0.00    +0.000 A 
ATOM     11  C   UNL     1       2.650   3.177  19.172  0.00  0.00    +0.000 A 
ATOM     12  S   UNL     1       3.329   2.944  17.570  0.00  0.00    +0.000 S 
ATOM     13  O   UNL     1       4.252   1.837  17.672  0.00  0.00    +0.000 OA
ATOM     14  O   UNL     1       2.208   2.919  16.647  0.00  0.00    +0.000 OA
ATOM     15  C   UNL     1       4.285   4.359  17.158  0.00  0.00    +0.000 A 
ATOM     16  C   UNL     1       4.893   4.358  15.891  0.00  0.00    +0.000 A 
ATOM     17  C   UNL     1       5.706   5.417  15.509  0.00  0.00    +0.000 A 
ATOM     18  C   UNL     1       5.911   6.471  16.392  0.00  0.00    +0.000 A 
ATOM     19  C   UNL     1       5.299   6.462  17.651  0.00  0.00    +0.000 A 
ATOM     20  C   UNL     1       4.456   5.406  18.066  0.00  0.00    +0.000 A 
ENDBRANCH   3   5
BRANCH   2  21
ATOM     21  C   UNL     1       1.736   8.542  19.419  0.00  0.00    +0.000 A 
ATOM     22  C   UNL     1       1.270   8.705  20.672  0.00  0.00    +0.000 A 
ATOM     23  C   UNL     1       0.625   9.920  21.095  0.00  0.00    +0.000 A 
ATOM     24  C   UNL     1       0.477  10.944  20.239  0.00  0.00    +0.000 A 
ATOM     25  N   UNL     1       1.014  10.825  18.962  0.00  0.00    +0.000 N 
ATOM     26  C   UNL     1       1.653   9.699  18.483  0.00  0.00    +0.000 A 
ATOM     27  O   UNL     1       2.108   9.650  17.344  0.00  0.00    +0.000 OA
ATOM     28  H   UNL     1       0.928  11.604  18.315  0.00  0.00    +0.000 HD
BRANCH  24  29
ATOM     29  C   UNL     1      -0.288  12.192  20.616  0.00  0.00    +0.000 C 
ATOM     30  F   UNL     1      -0.001  13.228  19.788  0.00  0.00    +0.000 F 
ATOM     31  F   UNL     1      -1.629  11.993  20.549  0.00  0.00    +0.000 F 
ATOM     32  F   UNL     1      -0.010  12.599  21.879  0.00  0.00    +0.000 F 
ENDBRANCH  24  29
ENDBRANCH   2  21
TORSDOF 3
ENDMDL
MODEL 4
REMARK VINA RESULT:      -7.9      3.005      4.557
REMARK  Name = 
REMARK  3 active torsions:
REMARK  status: ('A' for Active; 'I' for Inactive)
REMARK    1  A    between atoms: C_2  and  C_20
REMARK    2  A    between atoms: N_3  and  C_4
REMARK    3  A    between atoms: C_23  and  C_24
REMARK                            x       y       z     vdW  Elec       q    Type
REMARK                         _______ _______ _______ _____ _____    ______ ____
ROOT
ATOM      1  O   UNL     1      -0.012  10.475  18.344  0.00  0.00    +0.000 OA
ATOM      2  C   UNL     1       0.819  10.283  19.228  0.00  0.00    +0.000 C 
ATOM      3  N   UNL     1       1.139  11.252  20.141  0.00  0.00    +0.000 N 
ATOM      4  H   UNL     1       1.791  11.044  20.896  0.00  0.00    +0.000 HD
ENDROOT
BRANCH   3   5
ATOM      5  C   UNL     1       0.478  12.557  20.107  0.00  0.00    +0.000 C 
ATOM      6  C   UNL     1      -0.334  12.738  21.383  0.00  0.00    +0.000 A 
ATOM      7  C   UNL     1      -1.190  11.694  21.798  0.00  0.00    +0.000 A 
ATOM      8  C   UNL     1      -1.995  11.809  22.935  0.00  0.00    +0.000 A 
ATOM      9  C   UNL     1      -1.984  12.983  23.680  0.00  0.00    +0.000 A 
ATOM     10  C   UNL     1      -1.173  14.038  23.282  0.00  0.00    +0.000 A 
ATOM     11  C   UNL     1      -0.363  13.910  22.140  0.00  0.00    +0.000 A 
ATOM     12  S   UNL     1       0.592  15.312  21.688  0.00  0.00    +0.000 S 
ATOM     13  O   UNL     1      -0.344  16.325  21.256  0.00  0.00    +0.000 OA
ATOM     14  O   UNL     1       1.520  15.547  22.779  0.00  0.00    +0.000 OA
ATOM     15  C   UNL     1       1.564  14.896  20.285  0.00  0.00    +0.000 A 
ATOM     16  C   UNL     1       2.414  15.899  19.791  0.00  0.00    +0.000 A 
ATOM     17  C   UNL     1       3.178  15.666  18.654  0.00  0.00    +0.000 A 
ATOM     18  C   UNL     1       3.089  14.436  18.015  0.00  0.00    +0.000 A 
ATOM     19  C   UNL     1       2.240  13.443  18.516  0.00  0.00    +0.000 A 
ATOM     20  C   UNL     1       1.458  13.642  19.677  0.00  0.00    +0.000 A 
ENDBRANCH   3   5
BRANCH   2  21
ATOM     21  C   UNL     1       1.489   8.960  19.359  0.00  0.00    +0.000 A 
ATOM     22  C   UNL     1       2.044   8.460  18.239  0.00  0.00    +0.000 A 
ATOM     23  C   UNL     1       2.609   7.136  18.191  0.00  0.00    +0.000 A 
ATOM     24  C   UNL     1       2.606   6.356  19.284  0.00  0.00    +0.000 A 
ATOM     25  N   UNL     1       2.102   6.878  20.470  0.00  0.00    +0.000 N 
ATOM     26  C   UNL     1       1.551   8.138  20.601  0.00  0.00    +0.000 A 
ATOM     27  O   UNL     1       1.120   8.546  21.675  0.00  0.00    +0.000 OA
ATOM     28  H   UNL     1       2.116   6.304  21.309  0.00  0.00    +0.000 HD
BRANCH  24  29
ATOM     29  C   UNL     1       3.093   4.926  19.242  0.00  0.00    +0.000 C 
ATOM     30  F   UNL     1       2.346   4.117  20.036  0.00  0.00    +0.000 F 
ATOM     31  F   UNL     1       3.029   4.415  17.986  0.00  0.00    +0.000 F 
ATOM     32  F   UNL     1       4.380   4.814  19.652  0.00  0.00    +0.000 F 
ENDBRANCH  24  29
ENDBRANCH   2  21
TORSDOF 3
ENDMDL
MODEL 5
REMARK VINA RESULT:      -7.9      0.901      1.482
REMARK  Name = 
REMARK  3 active torsions:
REMARK  status: ('A' for Active; 'I' for Inactive)
REMARK    1  A    between atoms: C_2  and  C_20
REMARK    2  A    between atoms: N_3  and  C_4
REMARK    3  A    between atoms: C_23  and  C_24
REMARK                            x       y       z     vdW  Elec       q    Type
REMARK                         _______ _______ _______ _____ _____    ______ ____
ROOT
ATOM      1  O   UNL     1       1.003  11.536  19.147  0.00  0.00    +0.000 OA
ATOM      2  C   UNL     1       0.377  10.503  19.368  0.00  0.00    +0.000 C 
ATOM      3  N   UNL     1      -0.970  10.515  19.623  0.00  0.00    +0.000 N 
ATOM      4  H   UNL     1      -1.471   9.637  19.748  0.00  0.00    +0.000 HD
ENDROOT
BRANCH   3   5
ATOM      5  C   UNL     1      -1.718  11.772  19.618  0.00  0.00    +0.000 C 
ATOM      6  C   UNL     1      -2.875  11.660  18.636  0.00  0.00    +0.000 A 
ATOM      7  C   UNL     1      -2.620  11.163  17.338  0.00  0.00    +0.000 A 
ATOM      8  C   UNL     1      -3.626  11.073  16.373  0.00  0.00    +0.000 A 
ATOM      9  C   UNL     1      -4.916  11.498  16.669  0.00  0.00    +0.000 A 
ATOM     10  C   UNL     1      -5.193  12.016  17.928  0.00  0.00    +0.000 A 
ATOM     11  C   UNL     1      -4.175  12.097  18.893  0.00  0.00    +0.000 A 
ATOM     12  S   UNL     1      -4.608  12.810  20.439  0.00  0.00    +0.000 S 
ATOM     13  O   UNL     1      -4.869  14.209  20.187  0.00  0.00    +0.000 OA
ATOM     14  O   UNL     1      -5.611  11.941  21.027  0.00  0.00    +0.000 OA
ATOM     15  C   UNL     1      -3.206  12.743  21.496  0.00  0.00    +0.000 A 
ATOM     16  C   UNL     1      -3.375  13.254  22.793  0.00  0.00    +0.000 A 
ATOM     17  C   UNL     1      -2.301  13.285  23.674  0.00  0.00    +0.000 A 
ATOM     18  C   UNL     1      -1.065  12.806  23.257  0.00  0.00    +0.000 A 
ATOM     19  C   UNL     1      -0.909  12.297  21.962  0.00  0.00    +0.000 A 
ATOM     20  C   UNL     1      -1.983  12.241  21.045  0.00  0.00    +0.000 A 
ENDBRANCH   3   5
BRANCH   2  21
ATOM     21  C   UNL     1       1.062   9.182  19.331  0.00  0.00    +0.000 A 
ATOM     22  C   UNL     1       0.941   8.417  20.432  0.00  0.00    +0.000 A 
ATOM     23  C   UNL     1       1.656   7.176  20.583  0.00  0.00    +0.000 A 
ATOM     24  C   UNL     1       2.470   6.738  19.609  0.00  0.00    +0.000 A 
ATOM     25  N   UNL     1       2.555   7.475  18.433  0.00  0.00    +0.000 N 
ATOM     26  C   UNL     1       1.896   8.668  18.207  0.00  0.00    +0.000 A 
ATOM     27  O   UNL     1       2.010   9.278  17.148  0.00  0.00    +0.000 OA
ATOM     28  H   UNL     1       3.150   7.140  17.680  0.00  0.00    +0.000 HD
BRANCH  24  29
ATOM     29  C   UNL     1       3.316   5.497  19.777  0.00  0.00    +0.000 C 
ATOM     30  F   UNL     1       3.166   4.641  18.733  0.00  0.00    +0.000 F 
ATOM     31  F   UNL     1       4.637   5.802  19.851  0.00  0.00    +0.000 F 
ATOM     32  F   UNL     1       3.001   4.814  20.905  0.00  0.00    +0.000 F 
ENDBRANCH  24  29
ENDBRANCH   2  21
TORSDOF 3
ENDMDL
MODEL 6
REMARK VINA RESULT:      -7.6      1.967      2.483
REMARK  Name = 
REMARK  3 active torsions:
REMARK  status: ('A' for Active; 'I' for Inactive)
REMARK    1  A    between atoms: C_2  and  C_20
REMARK    2  A    between atoms: N_3  and  C_4
REMARK    3  A    between atoms: C_23  and  C_24
REMARK                            x       y       z     vdW  Elec       q    Type
REMARK                         _______ _______ _______ _____ _____    ______ ____
ROOT
ATOM      1  O   UNL     1       2.105  10.177  17.425  0.00  0.00    +0.000 OA
ATOM      2  C   UNL     1       1.718   9.574  18.422  0.00  0.00    +0.000 C 
ATOM      3  N   UNL     1       0.770  10.100  19.261  0.00  0.00    +0.000 N 
ATOM      4  H   UNL     1       0.430   9.552  20.050  0.00  0.00    +0.000 HD
ENDROOT
BRANCH   3   5
ATOM      5  C   UNL     1       0.165  11.402  18.981  0.00  0.00    +0.000 C 
ATOM      6  C   UNL     1      -1.330  11.221  18.759  0.00  0.00    +0.000 A 
ATOM      7  C   UNL     1      -1.768  10.206  17.879  0.00  0.00    +0.000 A 
ATOM      8  C   UNL     1      -3.122  10.010  17.596  0.00  0.00    +0.000 A 
ATOM      9  C   UNL     1      -4.080  10.839  18.168  0.00  0.00    +0.000 A 
ATOM     10  C   UNL     1      -3.679  11.864  19.016  0.00  0.00    +0.000 A 
ATOM     11  C   UNL     1      -2.315  12.048  19.299  0.00  0.00    +0.000 A 
ATOM     12  S   UNL     1      -1.900  13.397  20.343  0.00  0.00    +0.000 S 
ATOM     13  O   UNL     1      -2.198  14.600  19.599  0.00  0.00    +0.000 OA
ATOM     14  O   UNL     1      -2.514  13.125  21.631  0.00  0.00    +0.000 OA
ATOM     15  C   UNL     1      -0.163  13.387  20.605  0.00  0.00    +0.000 A 
ATOM     16  C   UNL     1       0.352  14.391  21.441  0.00  0.00    +0.000 A 
ATOM     17  C   UNL     1       1.721  14.483  21.658  0.00  0.00    +0.000 A 
ATOM     18  C   UNL     1       2.570  13.573  21.039  0.00  0.00    +0.000 A 
ATOM     19  C   UNL     1       2.046  12.574  20.210  0.00  0.00    +0.000 A 
ATOM     20  C   UNL     1       0.658  12.446  19.977  0.00  0.00    +0.000 A 
ENDBRANCH   3   5
BRANCH   2  21
ATOM     21  C   UNL     1       2.246   8.219  18.738  0.00  0.00    +0.000 A 
ATOM     22  C   UNL     1       2.926   7.601  17.754  0.00  0.00    +0.000 A 
ATOM     23  C   UNL     1       3.380   6.240  17.876  0.00  0.00    +0.000 A 
ATOM     24  C   UNL     1       3.140   5.542  18.998  0.00  0.00    +0.000 A 
ATOM     25  N   UNL     1       2.501   6.182  20.054  0.00  0.00    +0.000 N 
ATOM     26  C   UNL     1       2.044   7.485  20.019  0.00  0.00    +0.000 A 
ATOM     27  O   UNL     1       1.485   7.999  20.984  0.00  0.00    +0.000 OA
ATOM     28  H   UNL     1       2.336   5.670  20.916  0.00  0.00    +0.000 HD
BRANCH  24  29
ATOM     29  C   UNL     1       3.507   4.081  19.120  0.00  0.00    +0.000 C 
ATOM     30  F   UNL     1       4.775   3.917  19.574  0.00  0.00    +0.000 F 
ATOM     31  F   UNL     1       2.689   3.434  19.989  0.00  0.00    +0.000 F 
ATOM     32  F   UNL     1       3.418   3.432  17.933  0.00  0.00    +0.000 F 
ENDBRANCH  24  29
ENDBRANCH   2  21
TORSDOF 3
ENDMDL
MODEL 7
REMARK VINA RESULT:      -7.4      4.970      9.405
REMARK  Name = 
REMARK  3 active torsions:
REMARK  status: ('A' for Active; 'I' for Inactive)
REMARK    1  A    between atoms: C_2  and  C_20
REMARK    2  A    between atoms: N_3  and  C_4
REMARK    3  A    between atoms: C_23  and  C_24
REMARK                            x       y       z     vdW  Elec       q    Type
REMARK                         _______ _______ _______ _____ _____    ______ ____
ROOT
ATOM      1  O   UNL     1       2.317   7.824  21.079  0.00  0.00    +0.000 OA
ATOM      2  C   UNL     1       2.046   7.924  19.885  0.00  0.00    +0.000 C 
ATOM      3  N   UNL     1       2.573   7.070  18.952  0.00  0.00    +0.000 N 
ATOM      4  H   UNL     1       2.286   7.145  17.977  0.00  0.00    +0.000 HD
ENDROOT
BRANCH   3   5
ATOM      5  C   UNL     1       3.467   5.985  19.354  0.00  0.00    +0.000 C 
ATOM      6  C   UNL     1       2.639   4.745  19.664  0.00  0.00    +0.000 A 
ATOM      7  C   UNL     1       1.512   4.874  20.505  0.00  0.00    +0.000 A 
ATOM      8  C   UNL     1       0.732   3.772  20.866  0.00  0.00    +0.000 A 
ATOM      9  C   UNL     1       1.070   2.502  20.413  0.00  0.00    +0.000 A 
ATOM     10  C   UNL     1       2.189   2.338  19.606  0.00  0.00    +0.000 A 
ATOM     11  C   UNL     1       2.963   3.454  19.245  0.00  0.00    +0.000 A 
ATOM     12  S   UNL     1       4.384   3.145  18.262  0.00  0.00    +0.000 S 
ATOM     13  O   UNL     1       5.312   2.417  19.098  0.00  0.00    +0.000 OA
ATOM     14  O   UNL     1       3.905   2.600  17.004  0.00  0.00    +0.000 OA
ATOM     15  C   UNL     1       5.147   4.681  17.884  0.00  0.00    +0.000 A 
ATOM     16  C   UNL     1       6.298   4.629  17.080  0.00  0.00    +0.000 A 
ATOM     17  C   UNL     1       6.989   5.795  16.778  0.00  0.00    +0.000 A 
ATOM     18  C   UNL     1       6.530   7.008  17.279  0.00  0.00    +0.000 A 
ATOM     19  C   UNL     1       5.381   7.048  18.077  0.00  0.00    +0.000 A 
ATOM     20  C   UNL     1       4.648   5.882  18.394  0.00  0.00    +0.000 A 
ENDBRANCH   3   5
BRANCH   2  21
ATOM     21  C   UNL     1       1.097   8.968  19.411  0.00  0.00    +0.000 A 
ATOM     22  C   UNL     1       0.162   9.368  20.294  0.00  0.00    +0.000 A 
ATOM     23  C   UNL     1      -0.896  10.274  19.928  0.00  0.00    +0.000 A 
ATOM     24  C   UNL     1      -0.974  10.759  18.679  0.00  0.00    +0.000 A 
ATOM     25  N   UNL     1       0.021  10.415  17.770  0.00  0.00    +0.000 N 
ATOM     26  C   UNL     1       1.071   9.561  18.044  0.00  0.00    +0.000 A 
ATOM     27  O   UNL     1       1.922   9.293  17.201  0.00  0.00    +0.000 OA
ATOM     28  H   UNL     1      -0.016  10.796  16.828  0.00  0.00    +0.000 HD
BRANCH  24  29
ATOM     29  C   UNL     1      -2.129  11.625  18.232  0.00  0.00    +0.000 C 
ATOM     30  F   UNL     1      -2.297  12.698  19.047  0.00  0.00    +0.000 F 
ATOM     31  F   UNL     1      -1.933  12.108  16.978  0.00  0.00    +0.000 F 
ATOM     32  F   UNL     1      -3.301  10.945  18.218  0.00  0.00    +0.000 F 
ENDBRANCH  24  29
ENDBRANCH   2  21
TORSDOF 3
ENDMDL
MODEL 8
REMARK VINA RESULT:      -7.3      4.929      9.338
REMARK  Name = 
REMARK  3 active torsions:
REMARK  status: ('A' for Active; 'I' for Inactive)
REMARK    1  A    between atoms: C_2  and  C_20
REMARK    2  A    between atoms: N_3  and  C_4
REMARK    3  A    between atoms: C_23  and  C_24
REMARK                            x       y       z     vdW  Elec       q    Type
REMARK                         _______ _______ _______ _____ _____    ______ ____
ROOT
ATOM      1  O   UNL     1       2.507   7.567  20.801  0.00  0.00    +0.000 OA
ATOM      2  C   UNL     1       2.098   7.855  19.679  0.00  0.00    +0.000 C 
ATOM      3  N   UNL     1       2.391   7.086  18.583  0.00  0.00    +0.000 N 
ATOM      4  H   UNL     1       1.991   7.322  17.676  0.00  0.00    +0.000 HD
ENDROOT
BRANCH   3   5
ATOM      5  C   UNL     1       3.193   5.871  18.718  0.00  0.00    +0.000 C 
ATOM      6  C   UNL     1       2.298   4.732  19.186  0.00  0.00    +0.000 A 
ATOM      7  C   UNL     1       1.437   4.952  20.284  0.00  0.00    +0.000 A 
ATOM      8  C   UNL     1       0.620   3.939  20.794  0.00  0.00    +0.000 A 
ATOM      9  C   UNL     1       0.654   2.668  20.233  0.00  0.00    +0.000 A 
ATOM     10  C   UNL     1       1.511   2.413  19.169  0.00  0.00    +0.000 A 
ATOM     11  C   UNL     1       2.324   3.439  18.661  0.00  0.00    +0.000 A 
ATOM     12  S   UNL     1       3.408   3.012  17.347  0.00  0.00    +0.000 S 
ATOM     13  O   UNL     1       4.398   2.118  17.905  0.00  0.00    +0.000 OA
ATOM     14  O   UNL     1       2.567   2.616  16.232  0.00  0.00    +0.000 OA
ATOM     15  C   UNL     1       4.267   4.457  16.838  0.00  0.00    +0.000 A 
ATOM     16  C   UNL     1       5.170   4.308  15.773  0.00  0.00    +0.000 A 
ATOM     17  C   UNL     1       5.925   5.392  15.345  0.00  0.00    +0.000 A 
ATOM     18  C   UNL     1       5.777   6.619  15.980  0.00  0.00    +0.000 A 
ATOM     19  C   UNL     1       4.873   6.757  17.039  0.00  0.00    +0.000 A 
ATOM     20  C   UNL     1       4.080   5.677  17.493  0.00  0.00    +0.000 A 
ENDBRANCH   3   5
BRANCH   2  21
ATOM     21  C   UNL     1       1.227   9.046  19.476  0.00  0.00    +0.000 A 
ATOM     22  C   UNL     1       0.375   9.337  20.477  0.00  0.00    +0.000 A 
ATOM     23  C   UNL     1      -0.612  10.380  20.361  0.00  0.00    +0.000 A 
ATOM     24  C   UNL     1      -0.702  11.107  19.236  0.00  0.00    +0.000 A 
ATOM     25  N   UNL     1       0.214  10.872  18.218  0.00  0.00    +0.000 N 
ATOM     26  C   UNL     1       1.193   9.898  18.254  0.00  0.00    +0.000 A 
ATOM     27  O   UNL     1       1.976   9.734  17.323  0.00  0.00    +0.000 OA
ATOM     28  H   UNL     1       0.169  11.433  17.371  0.00  0.00    +0.000 HD
BRANCH  24  29
ATOM     29  C   UNL     1      -1.792  12.136  19.039  0.00  0.00    +0.000 C 
ATOM     30  F   UNL     1      -2.645  12.173  20.095  0.00  0.00    +0.000 F 
ATOM     31  F   UNL     1      -1.279  13.385  18.902  0.00  0.00    +0.000 F 
ATOM     32  F   UNL     1      -2.534  11.887  17.933  0.00  0.00    +0.000 F 
ENDBRANCH  24  29
ENDBRANCH   2  21
TORSDOF 3
ENDMDL
MODEL 9
REMARK VINA RESULT:      -7.3      1.446      1.690
REMARK  Name = 
REMARK  3 active torsions:
REMARK  status: ('A' for Active; 'I' for Inactive)
REMARK    1  A    between atoms: C_2  and  C_20
REMARK    2  A    between atoms: N_3  and  C_4
REMARK    3  A    between atoms: C_23  and  C_24
REMARK                            x       y       z     vdW  Elec       q    Type
REMARK                         _______ _______ _______ _____ _____    ______ ____
ROOT
ATOM      1  O   UNL     1      -0.729  10.245  20.465  0.00  0.00    +0.000 OA
ATOM      2  C   UNL     1       0.058  10.319  19.525  0.00  0.00    +0.000 C 
ATOM      3  N   UNL     1       0.054  11.384  18.663  0.00  0.00    +0.000 N 
ATOM      4  H   UNL     1       0.755  11.443  17.926  0.00  0.00    +0.000 HD
ENDROOT
BRANCH   3   5
ATOM      5  C   UNL     1      -0.883  12.491  18.849  0.00  0.00    +0.000 C 
ATOM      6  C   UNL     1      -2.297  11.999  18.575  0.00  0.00    +0.000 A 
ATOM      7  C   UNL     1      -2.543  11.257  17.398  0.00  0.00    +0.000 A 
ATOM      8  C   UNL     1      -3.824  10.811  17.063  0.00  0.00    +0.000 A 
ATOM      9  C   UNL     1      -4.904  11.112  17.885  0.00  0.00    +0.000 A 
ATOM     10  C   UNL     1      -4.699  11.863  19.035  0.00  0.00    +0.000 A 
ATOM     11  C   UNL     1      -3.407  12.302  19.366  0.00  0.00    +0.000 A 
ATOM     12  S   UNL     1      -3.252  13.285  20.813  0.00  0.00    +0.000 S 
ATOM     13  O   UNL     1      -3.912  14.540  20.530  0.00  0.00    +0.000 OA
ATOM     14  O   UNL     1      -3.657  12.445  21.927  0.00  0.00    +0.000 OA
ATOM     15  C   UNL     1      -1.552  13.656  21.058  0.00  0.00    +0.000 A 
ATOM     16  C   UNL     1      -1.234  14.423  22.190  0.00  0.00    +0.000 A 
ATOM     17  C   UNL     1       0.081  14.802  22.428  0.00  0.00    +0.000 A 
ATOM     18  C   UNL     1       1.072  14.414  21.535  0.00  0.00    +0.000 A 
ATOM     19  C   UNL     1       0.745  13.647  20.410  0.00  0.00    +0.000 A 
ATOM     20  C   UNL     1      -0.582  13.235  20.145  0.00  0.00    +0.000 A 
ENDBRANCH   3   5
BRANCH   2  21
ATOM     21  C   UNL     1       1.079   9.257  19.309  0.00  0.00    +0.000 A 
ATOM     22  C   UNL     1       1.584   9.161  18.065  0.00  0.00    +0.000 A 
ATOM     23  C   UNL     1       2.480   8.100  17.684  0.00  0.00    +0.000 A 
ATOM     24  C   UNL     1       2.848   7.168  18.577  0.00  0.00    +0.000 A 
ATOM     25  N   UNL     1       2.395   7.288  19.886  0.00  0.00    +0.000 N 
ATOM     26  C   UNL     1       1.542   8.278  20.333  0.00  0.00    +0.000 A 
ATOM     27  O   UNL     1       1.174   8.334  21.502  0.00  0.00    +0.000 OA
ATOM     28  H   UNL     1       2.687   6.601  20.576  0.00  0.00    +0.000 HD
BRANCH  24  29
ATOM     29  C   UNL     1       3.700   5.983  18.185  0.00  0.00    +0.000 C 
ATOM     30  F   UNL     1       4.570   5.641  19.170  0.00  0.00    +0.000 F 
ATOM     31  F   UNL     1       2.941   4.887  17.931  0.00  0.00    +0.000 F 
ATOM     32  F   UNL     1       4.432   6.227  17.070  0.00  0.00    +0.000 F 
ENDBRANCH  24  29
ENDBRANCH   2  21
TORSDOF 3
ENDMDL
