MODEL 1
REMARK VINA RESULT:      -8.0      0.000      0.000
REMARK  Name = 
REMARK  9 active torsions:
REMARK  status: ('A' for Active; 'I' for Inactive)
REMARK    1  A    between atoms: C_1  and  C_2
REMARK    2  A    between atoms: C_2  and  C_3
REMARK    3  A    between atoms: C_3  and  C_4
REMARK    4  A    between atoms: C_4  and  C_5
REMARK    5  A    between atoms: C_5  and  C_6
REMARK    6  A    between atoms: C_8  and  O_9
REMARK    7  A    between atoms: C_14  and  C_15
REMARK    8  A    between atoms: C_14  and  C_16
REMARK    9  A    between atoms: C_20  and  C_21
REMARK                            x       y       z     vdW  Elec       q    Type
REMARK                         _______ _______ _______ _____ _____    ______ ____
ROOT
ATOM      1  C   UNL     1       5.821   3.441  12.592  0.00  0.00    +0.000 A 
ATOM      2  C   UNL     1       6.945   4.250  12.381  0.00  0.00    +0.000 A 
ATOM      3  C   UNL     1       7.437   5.111  13.403  0.00  0.00    +0.000 A 
ATOM      4  C   UNL     1       6.818   5.208  14.659  0.00  0.00    +0.000 A 
ATOM      5  C   UNL     1       5.573   4.523  14.746  0.00  0.00    +0.000 A 
ATOM      6  C   UNL     1       5.112   3.638  13.763  0.00  0.00    +0.000 A 
ATOM      7  O   UNL     1       4.779   4.470  15.882  0.00  0.00    +0.000 OA
ATOM      8  C   UNL     1       5.298   5.258  16.968  0.00  0.00    +0.000 C 
ATOM      9  C   UNL     1       4.514   4.872  18.219  0.00  0.00    +0.000 C 
ATOM     10  C   UNL     1       4.868   6.713  16.621  0.00  0.00    +0.000 C 
ATOM     11  C   UNL     1       6.803   4.811  17.043  0.00  0.00    +0.000 C 
ATOM     12  C   UNL     1       7.552   4.771  18.361  0.00  0.00    +0.000 C 
ATOM     13  C   UNL     1       7.816   6.132  18.939  0.00  0.00    +0.000 C 
ATOM     14  C   UNL     1       7.916   7.235  17.908  0.00  0.00    +0.000 C 
ATOM     15  C   UNL     1       8.138   8.566  18.599  0.00  0.00    +0.000 C 
ATOM     16  C   UNL     1       7.794   7.016  16.562  0.00  0.00    +0.000 C 
ATOM     17  C   UNL     1       7.569   5.603  15.971  0.00  0.00    +0.000 C 
ENDROOT
BRANCH   3  18
ATOM     18  O   UNL     1       8.600   5.799  13.172  0.00  0.00    +0.000 OA
ATOM     19  H   UNL     1       8.374   6.662  12.785  0.00  0.00    +0.000 HD
ENDBRANCH   3  18
BRANCH   1  20
ATOM     20  C   UNL     1       5.333   2.382  11.625  0.00  0.00    +0.000 C 
BRANCH  20  21
ATOM     21  C   UNL     1       3.939   2.589  11.011  0.00  0.00    +0.000 C 
BRANCH  21  22
ATOM     22  C   UNL     1       3.671   3.997  10.460  0.00  0.00    +0.000 C 
BRANCH  22  24
ATOM     23  C   UNL     1       2.105   5.231   8.885  0.00  0.00    +0.000 C 
ATOM     24  C   UNL     1       2.838   3.931   9.175  0.00  0.00    +0.000 C 
ENDBRANCH  22  24
ENDBRANCH  21  22
ENDBRANCH  20  21
ENDBRANCH   1  20
TORSDOF 5
ENDMDL
MODEL 2
REMARK VINA RESULT:      -7.4      4.926      8.661
REMARK  Name = 
REMARK  9 active torsions:
REMARK  status: ('A' for Active; 'I' for Inactive)
REMARK    1  A    between atoms: C_1  and  C_2
REMARK    2  A    between atoms: C_2  and  C_3
REMARK    3  A    between atoms: C_3  and  C_4
REMARK    4  A    between atoms: C_4  and  C_5
REMARK    5  A    between atoms: C_5  and  C_6
REMARK    6  A    between atoms: C_8  and  O_9
REMARK    7  A    between atoms: C_14  and  C_15
REMARK    8  A    between atoms: C_14  and  C_16
REMARK    9  A    between atoms: C_20  and  C_21
REMARK                            x       y       z     vdW  Elec       q    Type
REMARK                         _______ _______ _______ _____ _____    ______ ____
ROOT
ATOM      1  C   UNL     1       1.126   8.002  20.513  0.00  0.00    +0.000 A 
ATOM      2  C   UNL     1       1.424   8.741  19.360  0.00  0.00    +0.000 A 
ATOM      3  C   UNL     1       2.342   8.250  18.387  0.00  0.00    +0.000 A 
ATOM      4  C   UNL     1       3.004   7.021  18.537  0.00  0.00    +0.000 A 
ATOM      5  C   UNL     1       2.818   6.415  19.811  0.00  0.00    +0.000 A 
ATOM      6  C   UNL     1       1.881   6.868  20.750  0.00  0.00    +0.000 A 
ATOM      7  O   UNL     1       3.366   5.200  20.194  0.00  0.00    +0.000 OA
ATOM      8  C   UNL     1       4.228   4.631  19.192  0.00  0.00    +0.000 C 
ATOM      9  C   UNL     1       4.508   3.190  19.605  0.00  0.00    +0.000 C 
ATOM     10  C   UNL     1       5.571   5.398  19.367  0.00  0.00    +0.000 C 
ATOM     11  C   UNL     1       3.360   4.722  17.886  0.00  0.00    +0.000 C 
ATOM     12  C   UNL     1       3.473   3.682  16.787  0.00  0.00    +0.000 C 
ATOM     13  C   UNL     1       4.781   3.731  16.051  0.00  0.00    +0.000 C 
ATOM     14  C   UNL     1       5.432   5.096  16.034  0.00  0.00    +0.000 C 
ATOM     15  C   UNL     1       6.760   5.023  15.306  0.00  0.00    +0.000 C 
ATOM     16  C   UNL     1       4.875   6.201  16.622  0.00  0.00    +0.000 C 
ATOM     17  C   UNL     1       3.504   6.151  17.339  0.00  0.00    +0.000 C 
ENDROOT
BRANCH   3  18
ATOM     18  O   UNL     1       2.513   8.970  17.233  0.00  0.00    +0.000 OA
ATOM     19  H   UNL     1       2.940   9.814  17.458  0.00  0.00    +0.000 HD
ENDBRANCH   3  18
BRANCH   1  20
ATOM     20  C   UNL     1       0.047   8.368  21.510  0.00  0.00    +0.000 C 
BRANCH  20  21
ATOM     21  C   UNL     1       0.400   9.434  22.559  0.00  0.00    +0.000 C 
BRANCH  21  22
ATOM     22  C   UNL     1      -0.803  10.131  23.212  0.00  0.00    +0.000 C 
BRANCH  22  24
ATOM     23  C   UNL     1      -2.332  12.109  22.758  0.00  0.00    +0.000 C 
ATOM     24  C   UNL     1      -0.902  11.591  22.758  0.00  0.00    +0.000 C 
ENDBRANCH  22  24
ENDBRANCH  21  22
ENDBRANCH  20  21
ENDBRANCH   1  20
TORSDOF 5
ENDMDL
MODEL 3
REMARK VINA RESULT:      -7.4      2.371      4.261
REMARK  Name = 
REMARK  9 active torsions:
REMARK  status: ('A' for Active; 'I' for Inactive)
REMARK    1  A    between atoms: C_1  and  C_2
REMARK    2  A    between atoms: C_2  and  C_3
REMARK    3  A    between atoms: C_3  and  C_4
REMARK    4  A    between atoms: C_4  and  C_5
REMARK    5  A    between atoms: C_5  and  C_6
REMARK    6  A    between atoms: C_8  and  O_9
REMARK    7  A    between atoms: C_14  and  C_15
REMARK    8  A    between atoms: C_14  and  C_16
REMARK    9  A    between atoms: C_20  and  C_21
REMARK                            x       y       z     vdW  Elec       q    Type
REMARK                         _______ _______ _______ _____ _____    ______ ____
ROOT
ATOM      1  C   UNL     1       6.040   4.472  15.071  0.00  0.00    +0.000 A 
ATOM      2  C   UNL     1       6.229   5.732  15.654  0.00  0.00    +0.000 A 
ATOM      3  C   UNL     1       5.429   6.166  16.749  0.00  0.00    +0.000 A 
ATOM      4  C   UNL     1       4.406   5.370  17.288  0.00  0.00    +0.000 A 
ATOM      5  C   UNL     1       4.127   4.195  16.533  0.00  0.00    +0.000 A 
ATOM      6  C   UNL     1       4.941   3.742  15.486  0.00  0.00    +0.000 A 
ATOM      7  O   UNL     1       3.166   3.253  16.866  0.00  0.00    +0.000 OA
ATOM      8  C   UNL     1       2.399   3.618  18.027  0.00  0.00    +0.000 C 
ATOM      9  C   UNL     1       1.611   2.383  18.452  0.00  0.00    +0.000 C 
ATOM     10  C   UNL     1       1.351   4.633  17.486  0.00  0.00    +0.000 C 
ATOM     11  C   UNL     1       3.504   4.011  19.072  0.00  0.00    +0.000 C 
ATOM     12  C   UNL     1       3.309   3.776  20.557  0.00  0.00    +0.000 C 
ATOM     13  C   UNL     1       2.262   4.662  21.170  0.00  0.00    +0.000 C 
ATOM     14  C   UNL     1       2.079   5.987  20.462  0.00  0.00    +0.000 C 
ATOM     15  C   UNL     1       0.975   6.779  21.132  0.00  0.00    +0.000 C 
ATOM     16  C   UNL     1       2.813   6.360  19.368  0.00  0.00    +0.000 C 
ATOM     17  C   UNL     1       3.922   5.460  18.771  0.00  0.00    +0.000 C 
ENDROOT
BRANCH   3  18
ATOM     18  O   UNL     1       5.730   7.364  17.342  0.00  0.00    +0.000 OA
ATOM     19  H   UNL     1       5.100   7.515  18.068  0.00  0.00    +0.000 HD
ENDBRANCH   3  18
BRANCH   1  20
ATOM     20  C   UNL     1       6.947   3.870  14.019  0.00  0.00    +0.000 C 
BRANCH  20  21
ATOM     21  C   UNL     1       6.554   4.090  12.550  0.00  0.00    +0.000 C 
BRANCH  21  22
ATOM     22  C   UNL     1       5.671   2.991  11.939  0.00  0.00    +0.000 C 
BRANCH  22  24
ATOM     23  C   UNL     1       3.610   3.267  10.479  0.00  0.00    +0.000 C 
ATOM     24  C   UNL     1       4.208   3.443  11.865  0.00  0.00    +0.000 C 
ENDBRANCH  22  24
ENDBRANCH  21  22
ENDBRANCH  20  21
ENDBRANCH   1  20
TORSDOF 5
ENDMDL
MODEL 4
REMARK VINA RESULT:      -7.2      4.859      7.662
REMARK  Name = 
REMARK  9 active torsions:
REMARK  status: ('A' for Active; 'I' for Inactive)
REMARK    1  A    between atoms: C_1  and  C_2
REMARK    2  A    between atoms: C_2  and  C_3
REMARK    3  A    between atoms: C_3  and  C_4
REMARK    4  A    between atoms: C_4  and  C_5
REMARK    5  A    between atoms: C_5  and  C_6
REMARK    6  A    between atoms: C_8  and  O_9
REMARK    7  A    between atoms: C_14  and  C_15
REMARK    8  A    between atoms: C_14  and  C_16
REMARK    9  A    between atoms: C_20  and  C_21
REMARK                            x       y       z     vdW  Elec       q    Type
REMARK                         _______ _______ _______ _____ _____    ______ ____
ROOT
ATOM      1  C   UNL     1       6.886   6.854  18.024  0.00  0.00    +0.000 A 
ATOM      2  C   UNL     1       5.721   7.357  17.430  0.00  0.00    +0.000 A 
ATOM      3  C   UNL     1       4.476   6.678  17.559  0.00  0.00    +0.000 A 
ATOM      4  C   UNL     1       4.352   5.471  18.266  0.00  0.00    +0.000 A 
ATOM      5  C   UNL     1       5.595   4.908  18.671  0.00  0.00    +0.000 A 
ATOM      6  C   UNL     1       6.815   5.594  18.590  0.00  0.00    +0.000 A 
ATOM      7  O   UNL     1       5.731   3.726  19.384  0.00  0.00    +0.000 OA
ATOM      8  C   UNL     1       4.476   3.060  19.613  0.00  0.00    +0.000 C 
ATOM      9  C   UNL     1       4.729   1.967  20.647  0.00  0.00    +0.000 C 
ATOM     10  C   UNL     1       4.186   2.327  18.271  0.00  0.00    +0.000 C 
ATOM     11  C   UNL     1       3.561   4.210  20.169  0.00  0.00    +0.000 C 
ATOM     12  C   UNL     1       2.468   3.930  21.183  0.00  0.00    +0.000 C 
ATOM     13  C   UNL     1       1.320   3.142  20.621  0.00  0.00    +0.000 C 
ATOM     14  C   UNL     1       1.108   3.328  19.134  0.00  0.00    +0.000 C 
ATOM     15  C   UNL     1      -0.041   2.458  18.665  0.00  0.00    +0.000 C 
ATOM     16  C   UNL     1       1.882   4.156  18.364  0.00  0.00    +0.000 C 
ATOM     17  C   UNL     1       3.035   5.000  18.961  0.00  0.00    +0.000 C 
ENDROOT
BRANCH   3  18
ATOM     18  O   UNL     1       3.353   7.272  17.044  0.00  0.00    +0.000 OA
ATOM     19  H   UNL     1       3.094   6.792  16.239  0.00  0.00    +0.000 HD
ENDBRANCH   3  18
BRANCH   1  20
ATOM     20  C   UNL     1       8.208   7.591  18.076  0.00  0.00    +0.000 C 
BRANCH  20  21
ATOM     21  C   UNL     1       8.162   9.117  17.902  0.00  0.00    +0.000 C 
BRANCH  21  22
ATOM     22  C   UNL     1       8.987   9.916  18.922  0.00  0.00    +0.000 C 
BRANCH  22  24
ATOM     23  C   UNL     1      10.930  11.552  18.841  0.00  0.00    +0.000 C 
ATOM     24  C   UNL     1       9.562  11.186  18.286  0.00  0.00    +0.000 C 
ENDBRANCH  22  24
ENDBRANCH  21  22
ENDBRANCH  20  21
ENDBRANCH   1  20
TORSDOF 5
ENDMDL
MODEL 5
REMARK VINA RESULT:      -7.0      5.438      9.183
REMARK  Name = 
REMARK  9 active torsions:
REMARK  status: ('A' for Active; 'I' for Inactive)
REMARK    1  A    between atoms: C_1  and  C_2
REMARK    2  A    between atoms: C_2  and  C_3
REMARK    3  A    between atoms: C_3  and  C_4
REMARK    4  A    between atoms: C_4  and  C_5
REMARK    5  A    between atoms: C_5  and  C_6
REMARK    6  A    between atoms: C_8  and  O_9
REMARK    7  A    between atoms: C_14  and  C_15
REMARK    8  A    between atoms: C_14  and  C_16
REMARK    9  A    between atoms: C_20  and  C_21
REMARK                            x       y       z     vdW  Elec       q    Type
REMARK                         _______ _______ _______ _____ _____    ______ ____
ROOT
ATOM      1  C   UNL     1       0.885   9.178  20.249  0.00  0.00    +0.000 A 
ATOM      2  C   UNL     1       1.435   9.531  19.010  0.00  0.00    +0.000 A 
ATOM      3  C   UNL     1       2.177   8.591  18.238  0.00  0.00    +0.000 A 
ATOM      4  C   UNL     1       2.410   7.279  18.680  0.00  0.00    +0.000 A 
ATOM      5  C   UNL     1       2.005   7.041  20.024  0.00  0.00    +0.000 A 
ATOM      6  C   UNL     1       1.234   7.944  20.768  0.00  0.00    +0.000 A 
ATOM      7  O   UNL     1       2.127   5.826  20.682  0.00  0.00    +0.000 OA
ATOM      8  C   UNL     1       2.792   4.824  19.891  0.00  0.00    +0.000 C 
ATOM      9  C   UNL     1       2.588   3.486  20.596  0.00  0.00    +0.000 C 
ATOM     10  C   UNL     1       4.304   5.164  20.041  0.00  0.00    +0.000 C 
ATOM     11  C   UNL     1       2.036   4.898  18.516  0.00  0.00    +0.000 C 
ATOM     12  C   UNL     1       1.844   3.666  17.652  0.00  0.00    +0.000 C 
ATOM     13  C   UNL     1       3.121   3.158  17.045  0.00  0.00    +0.000 C 
ATOM     14  C   UNL     1       4.172   4.224  16.829  0.00  0.00    +0.000 C 
ATOM     15  C   UNL     1       5.428   3.599  16.256  0.00  0.00    +0.000 C 
ATOM     16  C   UNL     1       3.978   5.544  17.141  0.00  0.00    +0.000 C 
ATOM     17  C   UNL     1       2.642   6.066  17.723  0.00  0.00    +0.000 C 
ENDROOT
BRANCH   3  18
ATOM     18  O   UNL     1       2.601   8.964  16.989  0.00  0.00    +0.000 OA
ATOM     19  H   UNL     1       3.252   8.312  16.679  0.00  0.00    +0.000 HD
ENDBRANCH   3  18
BRANCH   1  20
ATOM     20  C   UNL     1      -0.050  10.057  21.053  0.00  0.00    +0.000 C 
BRANCH  20  21
ATOM     21  C   UNL     1      -0.361   9.612  22.491  0.00  0.00    +0.000 C 
BRANCH  21  22
ATOM     22  C   UNL     1      -1.183  10.611  23.320  0.00  0.00    +0.000 C 
BRANCH  22  24
ATOM     23  C   UNL     1      -1.699  13.097  23.397  0.00  0.00    +0.000 C 
ATOM     24  C   UNL     1      -1.476  11.880  22.514  0.00  0.00    +0.000 C 
ENDBRANCH  22  24
ENDBRANCH  21  22
ENDBRANCH  20  21
ENDBRANCH   1  20
TORSDOF 5
ENDMDL
MODEL 6
REMARK VINA RESULT:      -7.0      5.076      8.629
REMARK  Name = 
REMARK  9 active torsions:
REMARK  status: ('A' for Active; 'I' for Inactive)
REMARK    1  A    between atoms: C_1  and  C_2
REMARK    2  A    between atoms: C_2  and  C_3
REMARK    3  A    between atoms: C_3  and  C_4
REMARK    4  A    between atoms: C_4  and  C_5
REMARK    5  A    between atoms: C_5  and  C_6
REMARK    6  A    between atoms: C_8  and  O_9
REMARK    7  A    between atoms: C_14  and  C_15
REMARK    8  A    between atoms: C_14  and  C_16
REMARK    9  A    between atoms: C_20  and  C_21
REMARK                            x       y       z     vdW  Elec       q    Type
REMARK                         _______ _______ _______ _____ _____    ______ ____
ROOT
ATOM      1  C   UNL     1       0.814   8.956  20.553  0.00  0.00    +0.000 A 
ATOM      2  C   UNL     1       1.290   9.404  19.313  0.00  0.00    +0.000 A 
ATOM      3  C   UNL     1       2.045   8.548  18.460  0.00  0.00    +0.000 A 
ATOM      4  C   UNL     1       2.365   7.229  18.819  0.00  0.00    +0.000 A 
ATOM      5  C   UNL     1       2.032   6.898  20.163  0.00  0.00    +0.000 A 
ATOM      6  C   UNL     1       1.249   7.717  20.987  0.00  0.00    +0.000 A 
ATOM      7  O   UNL     1       2.247   5.658  20.747  0.00  0.00    +0.000 OA
ATOM      8  C   UNL     1       2.927   4.737  19.875  0.00  0.00    +0.000 C 
ATOM      9  C   UNL     1       2.823   3.354  20.512  0.00  0.00    +0.000 C 
ATOM     10  C   UNL     1       4.424   5.150  19.981  0.00  0.00    +0.000 C 
ATOM     11  C   UNL     1       2.107   4.843  18.539  0.00  0.00    +0.000 C 
ATOM     12  C   UNL     1       1.942   3.651  17.616  0.00  0.00    +0.000 C 
ATOM     13  C   UNL     1       3.215   3.245  16.929  0.00  0.00    +0.000 C 
ATOM     14  C   UNL     1       4.199   4.377  16.729  0.00  0.00    +0.000 C 
ATOM     15  C   UNL     1       5.459   3.851  16.071  0.00  0.00    +0.000 C 
ATOM     16  C   UNL     1       3.951   5.665  17.122  0.00  0.00    +0.000 C 
ATOM     17  C   UNL     1       2.617   6.083  17.788  0.00  0.00    +0.000 C 
ENDROOT
BRANCH   3  18
ATOM     18  O   UNL     1       2.394   9.009  17.218  0.00  0.00    +0.000 OA
ATOM     19  H   UNL     1       3.280   9.404  17.275  0.00  0.00    +0.000 HD
ENDBRANCH   3  18
BRANCH   1  20
ATOM     20  C   UNL     1      -0.129   9.739  21.442  0.00  0.00    +0.000 C 
BRANCH  20  21
ATOM     21  C   UNL     1      -0.141  11.267  21.271  0.00  0.00    +0.000 C 
BRANCH  21  22
ATOM     22  C   UNL     1      -1.481  11.862  20.815  0.00  0.00    +0.000 C 
BRANCH  22  24
ATOM     23  C   UNL     1      -0.550  12.795  18.643  0.00  0.00    +0.000 C 
ATOM     24  C   UNL     1      -1.580  11.880  19.286  0.00  0.00    +0.000 C 
ENDBRANCH  22  24
ENDBRANCH  21  22
ENDBRANCH  20  21
ENDBRANCH   1  20
TORSDOF 5
ENDMDL
MODEL 7
REMARK VINA RESULT:      -6.9      3.748      7.785
REMARK  Name = 
REMARK  9 active torsions:
REMARK  status: ('A' for Active; 'I' for Inactive)
REMARK    1  A    between atoms: C_1  and  C_2
REMARK    2  A    between atoms: C_2  and  C_3
REMARK    3  A    between atoms: C_3  and  C_4
REMARK    4  A    between atoms: C_4  and  C_5
REMARK    5  A    between atoms: C_5  and  C_6
REMARK    6  A    between atoms: C_8  and  O_9
REMARK    7  A    between atoms: C_14  and  C_15
REMARK    8  A    between atoms: C_14  and  C_16
REMARK    9  A    between atoms: C_20  and  C_21
REMARK                            x       y       z     vdW  Elec       q    Type
REMARK                         _______ _______ _______ _____ _____    ______ ____
ROOT
ATOM      1  C   UNL     1       1.863   6.053  19.843  0.00  0.00    +0.000 A 
ATOM      2  C   UNL     1       1.479   4.914  19.123  0.00  0.00    +0.000 A 
ATOM      3  C   UNL     1       2.257   4.435  18.030  0.00  0.00    +0.000 A 
ATOM      4  C   UNL     1       3.430   5.082  17.608  0.00  0.00    +0.000 A 
ATOM      5  C   UNL     1       3.659   6.337  18.241  0.00  0.00    +0.000 A 
ATOM      6  C   UNL     1       2.925   6.787  19.347  0.00  0.00    +0.000 A 
ATOM      7  O   UNL     1       4.749   7.157  17.994  0.00  0.00    +0.000 OA
ATOM      8  C   UNL     1       5.608   6.654  16.956  0.00  0.00    +0.000 C 
ATOM      9  C   UNL     1       6.896   7.471  17.001  0.00  0.00    +0.000 C 
ATOM     10  C   UNL     1       4.887   7.058  15.637  0.00  0.00    +0.000 C 
ATOM     11  C   UNL     1       5.834   5.157  17.378  0.00  0.00    +0.000 C 
ATOM     12  C   UNL     1       7.136   4.439  17.080  0.00  0.00    +0.000 C 
ATOM     13  C   UNL     1       7.351   4.172  15.618  0.00  0.00    +0.000 C 
ATOM     14  C   UNL     1       6.073   4.034  14.818  0.00  0.00    +0.000 C 
ATOM     15  C   UNL     1       6.404   3.812  13.356  0.00  0.00    +0.000 C 
ATOM     16  C   UNL     1       4.826   4.127  15.376  0.00  0.00    +0.000 C 
ATOM     17  C   UNL     1       4.614   4.357  16.893  0.00  0.00    +0.000 C 
ENDROOT
BRANCH   3  18
ATOM     18  O   UNL     1       1.886   3.260  17.432  0.00  0.00    +0.000 OA
ATOM     19  H   UNL     1       1.460   3.468  16.583  0.00  0.00    +0.000 HD
ENDBRANCH   3  18
BRANCH   1  20
ATOM     20  C   UNL     1       1.190   6.531  21.112  0.00  0.00    +0.000 C 
BRANCH  20  21
ATOM     21  C   UNL     1       1.071   8.051  21.308  0.00  0.00    +0.000 C 
BRANCH  21  22
ATOM     22  C   UNL     1      -0.342   8.559  21.632  0.00  0.00    +0.000 C 
BRANCH  22  24
ATOM     23  C   UNL     1      -0.678  10.881  22.608  0.00  0.00    +0.000 C 
ATOM     24  C   UNL     1      -0.334   9.429  22.894  0.00  0.00    +0.000 C 
ENDBRANCH  22  24
ENDBRANCH  21  22
ENDBRANCH  20  21
ENDBRANCH   1  20
TORSDOF 5
ENDMDL
MODEL 8
REMARK VINA RESULT:      -6.7      2.978      6.793
REMARK  Name = 
REMARK  9 active torsions:
REMARK  status: ('A' for Active; 'I' for Inactive)
REMARK    1  A    between atoms: C_1  and  C_2
REMARK    2  A    between atoms: C_2  and  C_3
REMARK    3  A    between atoms: C_3  and  C_4
REMARK    4  A    between atoms: C_4  and  C_5
REMARK    5  A    between atoms: C_5  and  C_6
REMARK    6  A    between atoms: C_8  and  O_9
REMARK    7  A    between atoms: C_14  and  C_15
REMARK    8  A    between atoms: C_14  and  C_16
REMARK    9  A    between atoms: C_20  and  C_21
REMARK                            x       y       z     vdW  Elec       q    Type
REMARK                         _______ _______ _______ _____ _____    ______ ____
ROOT
ATOM      1  C   UNL     1       1.697   4.385  19.208  0.00  0.00    +0.000 A 
ATOM      2  C   UNL     1       1.606   3.448  18.171  0.00  0.00    +0.000 A 
ATOM      3  C   UNL     1       2.544   3.441  17.099  0.00  0.00    +0.000 A 
ATOM      4  C   UNL     1       3.590   4.374  17.016  0.00  0.00    +0.000 A 
ATOM      5  C   UNL     1       3.512   5.418  17.980  0.00  0.00    +0.000 A 
ATOM      6  C   UNL     1       2.622   5.403  19.063  0.00  0.00    +0.000 A 
ATOM      7  O   UNL     1       4.430   6.452  18.100  0.00  0.00    +0.000 OA
ATOM      8  C   UNL     1       5.448   6.420  17.084  0.00  0.00    +0.000 C 
ATOM      9  C   UNL     1       6.537   7.401  17.507  0.00  0.00    +0.000 C 
ATOM     10  C   UNL     1       4.761   7.049  15.837  0.00  0.00    +0.000 C 
ATOM     11  C   UNL     1       5.940   4.928  17.122  0.00  0.00    +0.000 C 
ATOM     12  C   UNL     1       7.379   4.561  16.815  0.00  0.00    +0.000 C 
ATOM     13  C   UNL     1       7.752   4.760  15.374  0.00  0.00    +0.000 C 
ATOM     14  C   UNL     1       6.592   4.634  14.410  0.00  0.00    +0.000 C 
ATOM     15  C   UNL     1       7.069   4.895  12.995  0.00  0.00    +0.000 C 
ATOM     16  C   UNL     1       5.313   4.347  14.809  0.00  0.00    +0.000 C 
ATOM     17  C   UNL     1       4.947   4.098  16.292  0.00  0.00    +0.000 C 
ENDROOT
BRANCH   3  18
ATOM     18  O   UNL     1       2.465   2.437  16.170  0.00  0.00    +0.000 OA
ATOM     19  H   UNL     1       1.911   2.744  15.433  0.00  0.00    +0.000 HD
ENDBRANCH   3  18
BRANCH   1  20
ATOM     20  C   UNL     1       0.847   4.361  20.462  0.00  0.00    +0.000 C 
BRANCH  20  21
ATOM     21  C   UNL     1       1.115   3.225  21.463  0.00  0.00    +0.000 C 
BRANCH  21  22
ATOM     22  C   UNL     1       2.593   3.001  21.816  0.00  0.00    +0.000 C 
BRANCH  22  24
ATOM     23  C   UNL     1       4.455   2.322  20.228  0.00  0.00    +0.000 C 
ATOM     24  C   UNL     1       3.197   1.884  20.959  0.00  0.00    +0.000 C 
ENDBRANCH  22  24
ENDBRANCH  21  22
ENDBRANCH  20  21
ENDBRANCH   1  20
TORSDOF 5
ENDMDL
MODEL 9
REMARK VINA RESULT:      -6.7      7.289     10.075
REMARK  Name = 
REMARK  9 active torsions:
REMARK  status: ('A' for Active; 'I' for Inactive)
REMARK    1  A    between atoms: C_1  and  C_2
REMARK    2  A    between atoms: C_2  and  C_3
REMARK    3  A    between atoms: C_3  and  C_4
REMARK    4  A    between atoms: C_4  and  C_5
REMARK    5  A    between atoms: C_5  and  C_6
REMARK    6  A    between atoms: C_8  and  O_9
REMARK    7  A    between atoms: C_14  and  C_15
REMARK    8  A    between atoms: C_14  and  C_16
REMARK    9  A    between atoms: C_20  and  C_21
REMARK                            x       y       z     vdW  Elec       q    Type
REMARK                         _______ _______ _______ _____ _____    ______ ____
ROOT
ATOM      1  C   UNL     1       2.051   8.009  18.804  0.00  0.00    +0.000 A 
ATOM      2  C   UNL     1       1.798   7.763  20.159  0.00  0.00    +0.000 A 
ATOM      3  C   UNL     1       1.138   8.729  20.973  0.00  0.00    +0.000 A 
ATOM      4  C   UNL     1       0.727   9.974  20.470  0.00  0.00    +0.000 A 
ATOM      5  C   UNL     1       1.188  10.247  19.152  0.00  0.00    +0.000 A 
ATOM      6  C   UNL     1       1.793   9.284  18.333  0.00  0.00    +0.000 A 
ATOM      7  O   UNL     1       0.910  11.405  18.442  0.00  0.00    +0.000 OA
ATOM      8  C   UNL     1       0.162  12.367  19.207  0.00  0.00    +0.000 C 
ATOM      9  C   UNL     1      -0.330  13.433  18.233  0.00  0.00    +0.000 C 
ATOM     10  C   UNL     1       1.234  13.059  20.099  0.00  0.00    +0.000 C 
ATOM     11  C   UNL     1      -1.014  11.510  19.801  0.00  0.00    +0.000 C 
ATOM     12  C   UNL     1      -2.385  12.111  20.045  0.00  0.00    +0.000 C 
ATOM     13  C   UNL     1      -2.408  13.113  21.163  0.00  0.00    +0.000 C 
ATOM     14  C   UNL     1      -1.351  12.886  22.222  0.00  0.00    +0.000 C 
ATOM     15  C   UNL     1      -1.435  13.974  23.274  0.00  0.00    +0.000 C 
ATOM     16  C   UNL     1      -0.458  11.848  22.180  0.00  0.00    +0.000 C 
ATOM     17  C   UNL     1      -0.472  10.793  21.048  0.00  0.00    +0.000 C 
ENDROOT
BRANCH   3  18
ATOM     18  O   UNL     1       0.826   8.390  22.264  0.00  0.00    +0.000 OA
ATOM     19  H   UNL     1       1.619   8.512  22.813  0.00  0.00    +0.000 HD
ENDBRANCH   3  18
BRANCH   1  20
ATOM     20  C   UNL     1       2.594   6.981  17.833  0.00  0.00    +0.000 C 
BRANCH  20  21
ATOM     21  C   UNL     1       2.725   5.538  18.348  0.00  0.00    +0.000 C 
BRANCH  21  22
ATOM     22  C   UNL     1       1.737   4.534  17.735  0.00  0.00    +0.000 C 
BRANCH  22  24
ATOM     23  C   UNL     1       1.124   4.092  20.160  0.00  0.00    +0.000 C 
ATOM     24  C   UNL     1       1.297   3.497  18.773  0.00  0.00    +0.000 C 
ENDBRANCH  22  24
ENDBRANCH  21  22
ENDBRANCH  20  21
ENDBRANCH   1  20
TORSDOF 5
ENDMDL
