MODEL 1
REMARK VINA RESULT:      -8.0      0.000      0.000
REMARK  Name = 
REMARK  10 active torsions:
REMARK  status: ('A' for Active; 'I' for Inactive)
REMARK    1  A    between atoms: C_1  and  O_2
REMARK    2  A    between atoms: O_2  and  C_3
REMARK    3  A    between atoms: C_7  and  C_8
REMARK    4  A    between atoms: C_8  and  C_10
REMARK    5  A    between atoms: C_10  and  C_11
REMARK    6  A    between atoms: C_11  and  N_12
REMARK    7  A    between atoms: C_11  and  C_22
REMARK    8  A    between atoms: N_12  and  C_13
REMARK    9  A    between atoms: C_16  and  N_17
REMARK   10  A    between atoms: C_25  and  C_26
REMARK                            x       y       z     vdW  Elec       q    Type
REMARK                         _______ _______ _______ _____ _____    ______ ____
ROOT
ATOM      1  C   UNL     1       2.074   5.909  19.659  0.00  0.00    +0.000 C 
ENDROOT
BRANCH   1   2
ATOM      2  C   UNL     1       3.352   5.521  18.882  0.00  0.00    +0.000 A 
ATOM      3  C   UNL     1       3.367   5.287  17.495  0.00  0.00    +0.000 A 
ATOM      4  C   UNL     1       4.556   5.050  16.802  0.00  0.00    +0.000 A 
ATOM      5  C   UNL     1       5.776   5.000  17.476  0.00  0.00    +0.000 A 
ATOM      6  C   UNL     1       5.780   5.188  18.867  0.00  0.00    +0.000 A 
ATOM      7  C   UNL     1       4.588   5.459  19.554  0.00  0.00    +0.000 A 
BRANCH   5   8
ATOM      8  C   UNL     1       7.062   4.768  16.721  0.00  0.00    +0.000 C 
ATOM      9  F   UNL     1       6.943   3.858  15.712  0.00  0.00    +0.000 F 
ATOM     10  F   UNL     1       7.544   5.901  16.141  0.00  0.00    +0.000 F 
ATOM     11  F   UNL     1       8.059   4.301  17.522  0.00  0.00    +0.000 F 
ENDBRANCH   5   8
ENDBRANCH   1   2
BRANCH   1  12
ATOM     12  N   UNL     1       2.300   7.225  20.305  0.00  0.00    +0.000 N 
ATOM     13  H   UNL     1       3.283   7.402  20.490  0.00  0.00    +0.000 HD
BRANCH  12  14
ATOM     14  C   UNL     1       1.614   8.380  19.931  0.00  0.00    +0.000 A 
ATOM     15  C   UNL     1       1.597   8.905  18.630  0.00  0.00    +0.000 A 
ATOM     16  C   UNL     1       0.768   9.980  18.273  0.00  0.00    +0.000 A 
ATOM     17  C   UNL     1      -0.050  10.573  19.237  0.00  0.00    +0.000 A 
ATOM     18  C   UNL     1      -0.047  10.088  20.546  0.00  0.00    +0.000 A 
ATOM     19  C   UNL     1       0.765   8.991  20.874  0.00  0.00    +0.000 A 
BRANCH  17  20
ATOM     20  N   UNL     1      -0.924  11.688  18.869  0.00  0.00    +0.000 N 
ATOM     21  O   UNL     1      -1.059  12.614  19.686  0.00  0.00    +0.000 OA
ATOM     22  O   UNL     1      -1.482  11.650  17.761  0.00  0.00    +0.000 OA
ENDBRANCH  17  20
ENDBRANCH  12  14
ENDBRANCH   1  12
BRANCH   1  23
ATOM     23  C   UNL     1       1.674   4.889  20.744  0.00  0.00    +0.000 C 
BRANCH  23  24
ATOM     24  C   UNL     1       1.431   3.491  20.193  0.00  0.00    +0.000 C 
ATOM     25  O   UNL     1       0.311   3.073  19.910  0.00  0.00    +0.000 OA
BRANCH  24  30
ATOM     26  C   UNL     1       4.672   1.592  20.779  0.00  0.00    +0.000 A 
ATOM     27  C   UNL     1       4.812   0.942  19.551  0.00  0.00    +0.000 A 
ATOM     28  C   UNL     1       3.869   1.123  18.539  0.00  0.00    +0.000 A 
ATOM     29  C   UNL     1       2.772   1.958  18.754  0.00  0.00    +0.000 A 
ATOM     30  C   UNL     1       2.615   2.605  19.986  0.00  0.00    +0.000 A 
ATOM     31  C   UNL     1       3.569   2.416  20.996  0.00  0.00    +0.000 A 
BRANCH  26  33
ATOM     32  C   UNL     1       6.003  -0.011  21.931  0.00  0.00    +0.000 C 
ATOM     33  O   UNL     1       5.672   1.350  21.681  0.00  0.00    +0.000 OA
ENDBRANCH  26  33
ENDBRANCH  24  30
ENDBRANCH  23  24
ENDBRANCH   1  23
TORSDOF 9
ENDMDL
MODEL 2
REMARK VINA RESULT:      -7.9      0.647      1.510
REMARK  Name = 
REMARK  10 active torsions:
REMARK  status: ('A' for Active; 'I' for Inactive)
REMARK    1  A    between atoms: C_1  and  O_2
REMARK    2  A    between atoms: O_2  and  C_3
REMARK    3  A    between atoms: C_7  and  C_8
REMARK    4  A    between atoms: C_8  and  C_10
REMARK    5  A    between atoms: C_10  and  C_11
REMARK    6  A    between atoms: C_11  and  N_12
REMARK    7  A    between atoms: C_11  and  C_22
REMARK    8  A    between atoms: N_12  and  C_13
REMARK    9  A    between atoms: C_16  and  N_17
REMARK   10  A    between atoms: C_25  and  C_26
REMARK                            x       y       z     vdW  Elec       q    Type
REMARK                         _______ _______ _______ _____ _____    ______ ____
ROOT
ATOM      1  C   UNL     1       2.119   6.072  19.789  0.00  0.00    +0.000 C 
ENDROOT
BRANCH   1   2
ATOM      2  C   UNL     1       3.393   5.768  18.971  0.00  0.00    +0.000 A 
ATOM      3  C   UNL     1       4.651   5.551  19.561  0.00  0.00    +0.000 A 
ATOM      4  C   UNL     1       5.761   5.166  18.805  0.00  0.00    +0.000 A 
ATOM      5  C   UNL     1       5.666   5.022  17.421  0.00  0.00    +0.000 A 
ATOM      6  C   UNL     1       4.430   5.277  16.806  0.00  0.00    +0.000 A 
ATOM      7  C   UNL     1       3.310   5.630  17.572  0.00  0.00    +0.000 A 
BRANCH   5   8
ATOM      8  C   UNL     1       6.861   4.584  16.611  0.00  0.00    +0.000 C 
ATOM      9  F   UNL     1       6.610   3.512  15.807  0.00  0.00    +0.000 F 
ATOM     10  F   UNL     1       7.324   5.563  15.787  0.00  0.00    +0.000 F 
ATOM     11  F   UNL     1       7.914   4.219  17.393  0.00  0.00    +0.000 F 
ENDBRANCH   5   8
ENDBRANCH   1   2
BRANCH   1  12
ATOM     12  N   UNL     1       2.320   7.352  20.513  0.00  0.00    +0.000 N 
ATOM     13  H   UNL     1       3.260   7.720  20.394  0.00  0.00    +0.000 HD
BRANCH  12  14
ATOM     14  C   UNL     1       1.357   8.359  20.555  0.00  0.00    +0.000 A 
ATOM     15  C   UNL     1       0.657   8.737  21.711  0.00  0.00    +0.000 A 
ATOM     16  C   UNL     1      -0.187   9.857  21.735  0.00  0.00    +0.000 A 
ATOM     17  C   UNL     1      -0.367  10.613  20.575  0.00  0.00    +0.000 A 
ATOM     18  C   UNL     1       0.300  10.258  19.402  0.00  0.00    +0.000 A 
ATOM     19  C   UNL     1       1.165   9.152  19.408  0.00  0.00    +0.000 A 
BRANCH  17  20
ATOM     20  N   UNL     1      -1.240  11.790  20.597  0.00  0.00    +0.000 N 
ATOM     21  O   UNL     1      -1.597  12.267  19.507  0.00  0.00    +0.000 OA
ATOM     22  O   UNL     1      -1.576  12.245  21.700  0.00  0.00    +0.000 OA
ENDBRANCH  17  20
ENDBRANCH  12  14
ENDBRANCH   1  12
BRANCH   1  23
ATOM     23  C   UNL     1       1.762   4.977  20.815  0.00  0.00    +0.000 C 
BRANCH  23  24
ATOM     24  C   UNL     1       1.493   3.622  20.176  0.00  0.00    +0.000 C 
ATOM     25  O   UNL     1       0.370   3.261  19.831  0.00  0.00    +0.000 OA
BRANCH  24  30
ATOM     26  C   UNL     1       4.682   1.629  20.738  0.00  0.00    +0.000 A 
ATOM     27  C   UNL     1       4.807   0.994  19.501  0.00  0.00    +0.000 A 
ATOM     28  C   UNL     1       3.870   1.214  18.491  0.00  0.00    +0.000 A 
ATOM     29  C   UNL     1       2.795   2.075  18.716  0.00  0.00    +0.000 A 
ATOM     30  C   UNL     1       2.654   2.708  19.957  0.00  0.00    +0.000 A 
ATOM     31  C   UNL     1       3.600   2.479  20.966  0.00  0.00    +0.000 A 
BRANCH  26  33
ATOM     32  C   UNL     1       5.984  -0.024  21.851  0.00  0.00    +0.000 C 
ATOM     33  O   UNL     1       5.673   1.348  21.638  0.00  0.00    +0.000 OA
ENDBRANCH  26  33
ENDBRANCH  24  30
ENDBRANCH  23  24
ENDBRANCH   1  23
TORSDOF 9
ENDMDL
MODEL 3
REMARK VINA RESULT:      -7.9      0.514      1.256
REMARK  Name = 
REMARK  10 active torsions:
REMARK  status: ('A' for Active; 'I' for Inactive)
REMARK    1  A    between atoms: C_1  and  O_2
REMARK    2  A    between atoms: O_2  and  C_3
REMARK    3  A    between atoms: C_7  and  C_8
REMARK    4  A    between atoms: C_8  and  C_10
REMARK    5  A    between atoms: C_10  and  C_11
REMARK    6  A    between atoms: C_11  and  N_12
REMARK    7  A    between atoms: C_11  and  C_22
REMARK    8  A    between atoms: N_12  and  C_13
REMARK    9  A    between atoms: C_16  and  N_17
REMARK   10  A    between atoms: C_25  and  C_26
REMARK                            x       y       z     vdW  Elec       q    Type
REMARK                         _______ _______ _______ _____ _____    ______ ____
ROOT
ATOM      1  C   UNL     1       1.868   5.865  19.791  0.00  0.00    +0.000 C 
ENDROOT
BRANCH   1   2
ATOM      2  C   UNL     1       3.173   5.647  18.994  0.00  0.00    +0.000 A 
ATOM      3  C   UNL     1       4.445   5.630  19.595  0.00  0.00    +0.000 A 
ATOM      4  C   UNL     1       5.597   5.318  18.868  0.00  0.00    +0.000 A 
ATOM      5  C   UNL     1       5.527   5.048  17.502  0.00  0.00    +0.000 A 
ATOM      6  C   UNL     1       4.273   5.103  16.873  0.00  0.00    +0.000 A 
ATOM      7  C   UNL     1       3.115   5.384  17.612  0.00  0.00    +0.000 A 
BRANCH   5   8
ATOM      8  C   UNL     1       6.769   4.689  16.725  0.00  0.00    +0.000 C 
ATOM      9  F   UNL     1       7.757   4.152  17.497  0.00  0.00    +0.000 F 
ATOM     10  F   UNL     1       6.530   3.777  15.744  0.00  0.00    +0.000 F 
ATOM     11  F   UNL     1       7.328   5.767  16.109  0.00  0.00    +0.000 F 
ENDBRANCH   5   8
ENDBRANCH   1   2
BRANCH   1  12
ATOM     12  N   UNL     1       1.992   7.128  20.558  0.00  0.00    +0.000 N 
ATOM     13  H   UNL     1       2.860   7.178  21.085  0.00  0.00    +0.000 HD
BRANCH  12  14
ATOM     14  C   UNL     1       1.612   8.368  20.046  0.00  0.00    +0.000 A 
ATOM     15  C   UNL     1       1.714   8.731  18.694  0.00  0.00    +0.000 A 
ATOM     16  C   UNL     1       1.176   9.931  18.204  0.00  0.00    +0.000 A 
ATOM     17  C   UNL     1       0.540  10.813  19.080  0.00  0.00    +0.000 A 
ATOM     18  C   UNL     1       0.435  10.493  20.435  0.00  0.00    +0.000 A 
ATOM     19  C   UNL     1       0.952   9.273  20.899  0.00  0.00    +0.000 A 
BRANCH  17  20
ATOM     20  N   UNL     1      -0.032  12.062  18.573  0.00  0.00    +0.000 N 
ATOM     21  O   UNL     1      -1.212  12.043  18.184  0.00  0.00    +0.000 OA
ATOM     22  O   UNL     1       0.689  13.070  18.561  0.00  0.00    +0.000 OA
ENDBRANCH  17  20
ENDBRANCH  12  14
ENDBRANCH   1  12
BRANCH   1  23
ATOM     23  C   UNL     1       1.540   4.722  20.772  0.00  0.00    +0.000 C 
BRANCH  23  24
ATOM     24  C   UNL     1       1.389   3.370  20.090  0.00  0.00    +0.000 C 
ATOM     25  O   UNL     1       0.310   2.947  19.684  0.00  0.00    +0.000 OA
BRANCH  24  30
ATOM     26  C   UNL     1       4.697   1.612  20.740  0.00  0.00    +0.000 A 
ATOM     27  C   UNL     1       4.894   0.978  19.512  0.00  0.00    +0.000 A 
ATOM     28  C   UNL     1       3.968   1.124  18.479  0.00  0.00    +0.000 A 
ATOM     29  C   UNL     1       2.830   1.908  18.673  0.00  0.00    +0.000 A 
ATOM     30  C   UNL     1       2.616   2.539  19.905  0.00  0.00    +0.000 A 
ATOM     31  C   UNL     1       3.553   2.384  20.936  0.00  0.00    +0.000 A 
BRANCH  26  33
ATOM     32  C   UNL     1       5.975   0.060  22.016  0.00  0.00    +0.000 C 
ATOM     33  O   UNL     1       5.685   1.408  21.664  0.00  0.00    +0.000 OA
ENDBRANCH  26  33
ENDBRANCH  24  30
ENDBRANCH  23  24
ENDBRANCH   1  23
TORSDOF 9
ENDMDL
MODEL 4
REMARK VINA RESULT:      -7.9      0.348      1.138
REMARK  Name = 
REMARK  10 active torsions:
REMARK  status: ('A' for Active; 'I' for Inactive)
REMARK    1  A    between atoms: C_1  and  O_2
REMARK    2  A    between atoms: O_2  and  C_3
REMARK    3  A    between atoms: C_7  and  C_8
REMARK    4  A    between atoms: C_8  and  C_10
REMARK    5  A    between atoms: C_10  and  C_11
REMARK    6  A    between atoms: C_11  and  N_12
REMARK    7  A    between atoms: C_11  and  C_22
REMARK    8  A    between atoms: N_12  and  C_13
REMARK    9  A    between atoms: C_16  and  N_17
REMARK   10  A    between atoms: C_25  and  C_26
REMARK                            x       y       z     vdW  Elec       q    Type
REMARK                         _______ _______ _______ _____ _____    ______ ____
ROOT
ATOM      1  C   UNL     1       2.083   6.034  19.739  0.00  0.00    +0.000 C 
ENDROOT
BRANCH   1   2
ATOM      2  C   UNL     1       3.371   5.749  18.935  0.00  0.00    +0.000 A 
ATOM      3  C   UNL     1       4.647   5.689  19.524  0.00  0.00    +0.000 A 
ATOM      4  C   UNL     1       5.778   5.318  18.792  0.00  0.00    +0.000 A 
ATOM      5  C   UNL     1       5.683   5.029  17.431  0.00  0.00    +0.000 A 
ATOM      6  C   UNL     1       4.426   5.125  16.813  0.00  0.00    +0.000 A 
ATOM      7  C   UNL     1       3.288   5.465  17.558  0.00  0.00    +0.000 A 
BRANCH   5   8
ATOM      8  C   UNL     1       6.902   4.606  16.650  0.00  0.00    +0.000 C 
ATOM      9  F   UNL     1       7.541   5.642  16.035  0.00  0.00    +0.000 F 
ATOM     10  F   UNL     1       7.842   4.002  17.427  0.00  0.00    +0.000 F 
ATOM     11  F   UNL     1       6.604   3.719  15.661  0.00  0.00    +0.000 F 
ENDBRANCH   5   8
ENDBRANCH   1   2
BRANCH   1  12
ATOM     12  N   UNL     1       2.261   7.312  20.470  0.00  0.00    +0.000 N 
ATOM     13  H   UNL     1       3.239   7.537  20.626  0.00  0.00    +0.000 HD
BRANCH  12  14
ATOM     14  C   UNL     1       1.490   8.446  20.214  0.00  0.00    +0.000 A 
ATOM     15  C   UNL     1       1.409   9.081  18.965  0.00  0.00    +0.000 A 
ATOM     16  C   UNL     1       0.502  10.124  18.720  0.00  0.00    +0.000 A 
ATOM     17  C   UNL     1      -0.333  10.571  19.747  0.00  0.00    +0.000 A 
ATOM     18  C   UNL     1      -0.268   9.973  21.006  0.00  0.00    +0.000 A 
ATOM     19  C   UNL     1       0.624   8.911  21.222  0.00  0.00    +0.000 A 
BRANCH  17  20
ATOM     20  N   UNL     1      -1.289  11.651  19.494  0.00  0.00    +0.000 N 
ATOM     21  O   UNL     1      -1.402  12.538  20.356  0.00  0.00    +0.000 OA
ATOM     22  O   UNL     1      -1.932  11.624  18.434  0.00  0.00    +0.000 OA
ENDBRANCH  17  20
ENDBRANCH  12  14
ENDBRANCH   1  12
BRANCH   1  23
ATOM     23  C   UNL     1       1.728   4.930  20.756  0.00  0.00    +0.000 C 
BRANCH  23  24
ATOM     24  C   UNL     1       1.489   3.573  20.109  0.00  0.00    +0.000 C 
ATOM     25  O   UNL     1       0.383   3.207  19.721  0.00  0.00    +0.000 OA
BRANCH  24  30
ATOM     26  C   UNL     1       4.679   1.617  20.789  0.00  0.00    +0.000 A 
ATOM     27  C   UNL     1       4.837   0.956  19.570  0.00  0.00    +0.000 A 
ATOM     28  C   UNL     1       3.923   1.147  18.533  0.00  0.00    +0.000 A 
ATOM     29  C   UNL     1       2.837   2.004  18.714  0.00  0.00    +0.000 A 
ATOM     30  C   UNL     1       2.662   2.663  19.937  0.00  0.00    +0.000 A 
ATOM     31  C   UNL     1       3.586   2.463  20.973  0.00  0.00    +0.000 A 
BRANCH  26  33
ATOM     32  C   UNL     1       6.033   0.005  21.900  0.00  0.00    +0.000 C 
ATOM     33  O   UNL     1       5.651   1.363  21.718  0.00  0.00    +0.000 OA
ENDBRANCH  26  33
ENDBRANCH  24  30
ENDBRANCH  23  24
ENDBRANCH   1  23
TORSDOF 9
ENDMDL
MODEL 5
REMARK VINA RESULT:      -7.8      4.379      6.766
REMARK  Name = 
REMARK  10 active torsions:
REMARK  status: ('A' for Active; 'I' for Inactive)
REMARK    1  A    between atoms: C_1  and  O_2
REMARK    2  A    between atoms: O_2  and  C_3
REMARK    3  A    between atoms: C_7  and  C_8
REMARK    4  A    between atoms: C_8  and  C_10
REMARK    5  A    between atoms: C_10  and  C_11
REMARK    6  A    between atoms: C_11  and  N_12
REMARK    7  A    between atoms: C_11  and  C_22
REMARK    8  A    between atoms: N_12  and  C_13
REMARK    9  A    between atoms: C_16  and  N_17
REMARK   10  A    between atoms: C_25  and  C_26
REMARK                            x       y       z     vdW  Elec       q    Type
REMARK                         _______ _______ _______ _____ _____    ______ ____
ROOT
ATOM      1  C   UNL     1       2.768   6.313  19.077  0.00  0.00    +0.000 C 
ENDROOT
BRANCH   1   2
ATOM      2  C   UNL     1       2.135   7.717  19.196  0.00  0.00    +0.000 A 
ATOM      3  C   UNL     1       2.040   8.610  18.114  0.00  0.00    +0.000 A 
ATOM      4  C   UNL     1       1.362   9.827  18.222  0.00  0.00    +0.000 A 
ATOM      5  C   UNL     1       0.783  10.215  19.430  0.00  0.00    +0.000 A 
ATOM      6  C   UNL     1       0.904   9.358  20.535  0.00  0.00    +0.000 A 
ATOM      7  C   UNL     1       1.556   8.123  20.414  0.00  0.00    +0.000 A 
BRANCH   5   8
ATOM      8  C   UNL     1       0.031  11.519  19.537  0.00  0.00    +0.000 C 
ATOM      9  F   UNL     1       0.789  12.547  20.013  0.00  0.00    +0.000 F 
ATOM     10  F   UNL     1      -0.458  11.943  18.340  0.00  0.00    +0.000 F 
ATOM     11  F   UNL     1      -1.041  11.434  20.373  0.00  0.00    +0.000 F 
ENDBRANCH   5   8
ENDBRANCH   1   2
BRANCH   1  12
ATOM     12  N   UNL     1       4.243   6.468  19.015  0.00  0.00    +0.000 N 
ATOM     13  H   UNL     1       4.695   6.225  19.892  0.00  0.00    +0.000 HD
BRANCH  12  14
ATOM     14  C   UNL     1       4.999   6.090  17.906  0.00  0.00    +0.000 A 
ATOM     15  C   UNL     1       5.902   5.017  17.892  0.00  0.00    +0.000 A 
ATOM     16  C   UNL     1       6.522   4.582  16.710  0.00  0.00    +0.000 A 
ATOM     17  C   UNL     1       6.262   5.245  15.508  0.00  0.00    +0.000 A 
ATOM     18  C   UNL     1       5.381   6.328  15.487  0.00  0.00    +0.000 A 
ATOM     19  C   UNL     1       4.748   6.726  16.675  0.00  0.00    +0.000 A 
BRANCH  17  20
ATOM     20  N   UNL     1       6.897   4.790  14.270  0.00  0.00    +0.000 N 
ATOM     21  O   UNL     1       7.878   5.428  13.853  0.00  0.00    +0.000 OA
ATOM     22  O   UNL     1       6.424   3.793  13.705  0.00  0.00    +0.000 OA
ENDBRANCH  17  20
ENDBRANCH  12  14
ENDBRANCH   1  12
BRANCH   1  23
ATOM     23  C   UNL     1       2.303   5.524  17.837  0.00  0.00    +0.000 C 
BRANCH  23  24
ATOM     24  C   UNL     1       1.689   4.174  18.181  0.00  0.00    +0.000 C 
ATOM     25  O   UNL     1       0.790   3.664  17.518  0.00  0.00    +0.000 OA
BRANCH  24  30
ATOM     26  C   UNL     1       3.988   2.225  20.500  0.00  0.00    +0.000 A 
ATOM     27  C   UNL     1       3.168   2.096  21.623  0.00  0.00    +0.000 A 
ATOM     28  C   UNL     1       1.879   2.630  21.626  0.00  0.00    +0.000 A 
ATOM     29  C   UNL     1       1.402   3.302  20.501  0.00  0.00    +0.000 A 
ATOM     30  C   UNL     1       2.221   3.447  19.373  0.00  0.00    +0.000 A 
ATOM     31  C   UNL     1       3.515   2.908  19.381  0.00  0.00    +0.000 A 
BRANCH  26  33
ATOM     32  C   UNL     1       5.438   0.796  21.735  0.00  0.00    +0.000 C 
ATOM     33  O   UNL     1       5.221   1.643  20.612  0.00  0.00    +0.000 OA
ENDBRANCH  26  33
ENDBRANCH  24  30
ENDBRANCH  23  24
ENDBRANCH   1  23
TORSDOF 9
ENDMDL
MODEL 6
REMARK VINA RESULT:      -7.6      4.500      6.837
REMARK  Name = 
REMARK  10 active torsions:
REMARK  status: ('A' for Active; 'I' for Inactive)
REMARK    1  A    between atoms: C_1  and  O_2
REMARK    2  A    between atoms: O_2  and  C_3
REMARK    3  A    between atoms: C_7  and  C_8
REMARK    4  A    between atoms: C_8  and  C_10
REMARK    5  A    between atoms: C_10  and  C_11
REMARK    6  A    between atoms: C_11  and  N_12
REMARK    7  A    between atoms: C_11  and  C_22
REMARK    8  A    between atoms: N_12  and  C_13
REMARK    9  A    between atoms: C_16  and  N_17
REMARK   10  A    between atoms: C_25  and  C_26
REMARK                            x       y       z     vdW  Elec       q    Type
REMARK                         _______ _______ _______ _____ _____    ______ ____
ROOT
ATOM      1  C   UNL     1       2.731   6.145  18.835  0.00  0.00    +0.000 C 
ENDROOT
BRANCH   1   2
ATOM      2  C   UNL     1       2.169   7.565  19.070  0.00  0.00    +0.000 A 
ATOM      3  C   UNL     1       2.127   8.550  18.066  0.00  0.00    +0.000 A 
ATOM      4  C   UNL     1       1.510   9.786  18.275  0.00  0.00    +0.000 A 
ATOM      5  C   UNL     1       0.944  10.101  19.510  0.00  0.00    +0.000 A 
ATOM      6  C   UNL     1       1.014   9.149  20.540  0.00  0.00    +0.000 A 
ATOM      7  C   UNL     1       1.604   7.897  20.317  0.00  0.00    +0.000 A 
BRANCH   5   8
ATOM      8  C   UNL     1       0.259  11.428  19.725  0.00  0.00    +0.000 C 
ATOM      9  F   UNL     1      -0.772  11.370  20.615  0.00  0.00    +0.000 F 
ATOM     10  F   UNL     1       1.103  12.385  20.198  0.00  0.00    +0.000 F 
ATOM     11  F   UNL     1      -0.274  11.930  18.576  0.00  0.00    +0.000 F 
ENDBRANCH   5   8
ENDBRANCH   1   2
BRANCH   1  12
ATOM     12  N   UNL     1       4.191   6.253  18.596  0.00  0.00    +0.000 N 
ATOM     13  H   UNL     1       4.738   5.961  19.402  0.00  0.00    +0.000 HD
BRANCH  12  14
ATOM     14  C   UNL     1       4.791   5.894  17.390  0.00  0.00    +0.000 A 
ATOM     15  C   UNL     1       4.785   6.691  16.235  0.00  0.00    +0.000 A 
ATOM     16  C   UNL     1       5.533   6.354  15.096  0.00  0.00    +0.000 A 
ATOM     17  C   UNL     1       6.290   5.180  15.087  0.00  0.00    +0.000 A 
ATOM     18  C   UNL     1       6.306   4.355  16.212  0.00  0.00    +0.000 A 
ATOM     19  C   UNL     1       5.576   4.726  17.352  0.00  0.00    +0.000 A 
BRANCH  17  20
ATOM     20  N   UNL     1       7.080   4.829  13.906  0.00  0.00    +0.000 N 
ATOM     21  O   UNL     1       8.125   5.468  13.696  0.00  0.00    +0.000 OA
ATOM     22  O   UNL     1       6.666   3.913  13.179  0.00  0.00    +0.000 OA
ENDBRANCH  17  20
ENDBRANCH  12  14
ENDBRANCH   1  12
BRANCH   1  23
ATOM     23  C   UNL     1       2.089   5.412  17.640  0.00  0.00    +0.000 C 
BRANCH  23  24
ATOM     24  C   UNL     1       1.978   3.909  17.848  0.00  0.00    +0.000 C 
ATOM     25  O   UNL     1       1.842   3.117  16.919  0.00  0.00    +0.000 OA
BRANCH  24  30
ATOM     26  C   UNL     1       3.269   2.341  21.063  0.00  0.00    +0.000 A 
ATOM     27  C   UNL     1       2.130   2.429  21.866  0.00  0.00    +0.000 A 
ATOM     28  C   UNL     1       0.951   2.986  21.368  0.00  0.00    +0.000 A 
ATOM     29  C   UNL     1       0.907   3.462  20.057  0.00  0.00    +0.000 A 
ATOM     30  C   UNL     1       2.048   3.389  19.247  0.00  0.00    +0.000 A 
ATOM     31  C   UNL     1       3.228   2.829  19.758  0.00  0.00    +0.000 A 
BRANCH  26  33
ATOM     32  C   UNL     1       5.361   1.234  20.800  0.00  0.00    +0.000 C 
ATOM     33  O   UNL     1       4.354   1.758  21.658  0.00  0.00    +0.000 OA
ENDBRANCH  26  33
ENDBRANCH  24  30
ENDBRANCH  23  24
ENDBRANCH   1  23
TORSDOF 9
ENDMDL
MODEL 7
REMARK VINA RESULT:      -7.6      3.916      7.914
REMARK  Name = 
REMARK  10 active torsions:
REMARK  status: ('A' for Active; 'I' for Inactive)
REMARK    1  A    between atoms: C_1  and  O_2
REMARK    2  A    between atoms: O_2  and  C_3
REMARK    3  A    between atoms: C_7  and  C_8
REMARK    4  A    between atoms: C_8  and  C_10
REMARK    5  A    between atoms: C_10  and  C_11
REMARK    6  A    between atoms: C_11  and  N_12
REMARK    7  A    between atoms: C_11  and  C_22
REMARK    8  A    between atoms: N_12  and  C_13
REMARK    9  A    between atoms: C_16  and  N_17
REMARK   10  A    between atoms: C_25  and  C_26
REMARK                            x       y       z     vdW  Elec       q    Type
REMARK                         _______ _______ _______ _____ _____    ______ ____
ROOT
ATOM      1  C   UNL     1       0.416   9.755  19.768  0.00  0.00    +0.000 C 
ENDROOT
BRANCH   1   2
ATOM      2  C   UNL     1       1.459   8.736  19.258  0.00  0.00    +0.000 A 
ATOM      3  C   UNL     1       1.861   7.612  20.001  0.00  0.00    +0.000 A 
ATOM      4  C   UNL     1       2.720   6.648  19.469  0.00  0.00    +0.000 A 
ATOM      5  C   UNL     1       3.241   6.789  18.183  0.00  0.00    +0.000 A 
ATOM      6  C   UNL     1       2.887   7.926  17.439  0.00  0.00    +0.000 A 
ATOM      7  C   UNL     1       1.999   8.875  17.964  0.00  0.00    +0.000 A 
BRANCH   5   8
ATOM      8  C   UNL     1       4.149   5.733  17.602  0.00  0.00    +0.000 C 
ATOM      9  F   UNL     1       3.590   4.491  17.572  0.00  0.00    +0.000 F 
ATOM     10  F   UNL     1       4.518   6.004  16.320  0.00  0.00    +0.000 F 
ATOM     11  F   UNL     1       5.307   5.599  18.307  0.00  0.00    +0.000 F 
ENDBRANCH   5   8
ENDBRANCH   1   2
BRANCH   1  12
ATOM     12  N   UNL     1      -0.181  10.441  18.595  0.00  0.00    +0.000 N 
ATOM     13  H   UNL     1       0.241  10.147  17.719  0.00  0.00    +0.000 HD
BRANCH  12  14
ATOM     14  C   UNL     1      -1.549  10.681  18.472  0.00  0.00    +0.000 A 
ATOM     15  C   UNL     1      -2.245  11.676  19.175  0.00  0.00    +0.000 A 
ATOM     16  C   UNL     1      -3.587  11.979  18.901  0.00  0.00    +0.000 A 
ATOM     17  C   UNL     1      -4.273  11.259  17.921  0.00  0.00    +0.000 A 
ATOM     18  C   UNL     1      -3.618  10.250  17.212  0.00  0.00    +0.000 A 
ATOM     19  C   UNL     1      -2.265   9.985  17.480  0.00  0.00    +0.000 A 
BRANCH  17  20
ATOM     20  N   UNL     1      -5.671  11.576  17.624  0.00  0.00    +0.000 N 
ATOM     21  O   UNL     1      -5.901  12.560  16.901  0.00  0.00    +0.000 OA
ATOM     22  O   UNL     1      -6.550  10.846  18.107  0.00  0.00    +0.000 OA
ENDBRANCH  17  20
ENDBRANCH  12  14
ENDBRANCH   1  12
BRANCH   1  23
ATOM     23  C   UNL     1       1.000  10.820  20.717  0.00  0.00    +0.000 C 
BRANCH  23  24
ATOM     24  C   UNL     1       0.413  10.759  22.120  0.00  0.00    +0.000 C 
ATOM     25  O   UNL     1       0.817   9.977  22.977  0.00  0.00    +0.000 OA
BRANCH  24  30
ATOM     26  C   UNL     1      -2.879  12.159  23.411  0.00  0.00    +0.000 A 
ATOM     27  C   UNL     1      -2.738  13.503  23.063  0.00  0.00    +0.000 A 
ATOM     28  C   UNL     1      -1.590  13.952  22.410  0.00  0.00    +0.000 A 
ATOM     29  C   UNL     1      -0.569  13.053  22.102  0.00  0.00    +0.000 A 
ATOM     30  C   UNL     1      -0.695  11.703  22.457  0.00  0.00    +0.000 A 
ATOM     31  C   UNL     1      -1.852  11.263  23.115  0.00  0.00    +0.000 A 
BRANCH  26  33
ATOM     32  C   UNL     1      -4.871  12.920  24.471  0.00  0.00    +0.000 C 
ATOM     33  O   UNL     1      -4.057  11.839  24.029  0.00  0.00    +0.000 OA
ENDBRANCH  26  33
ENDBRANCH  24  30
ENDBRANCH  23  24
ENDBRANCH   1  23
TORSDOF 9
ENDMDL
MODEL 8
REMARK VINA RESULT:      -7.6      4.554      6.910
REMARK  Name = 
REMARK  10 active torsions:
REMARK  status: ('A' for Active; 'I' for Inactive)
REMARK    1  A    between atoms: C_1  and  O_2
REMARK    2  A    between atoms: O_2  and  C_3
REMARK    3  A    between atoms: C_7  and  C_8
REMARK    4  A    between atoms: C_8  and  C_10
REMARK    5  A    between atoms: C_10  and  C_11
REMARK    6  A    between atoms: C_11  and  N_12
REMARK    7  A    between atoms: C_11  and  C_22
REMARK    8  A    between atoms: N_12  and  C_13
REMARK    9  A    between atoms: C_16  and  N_17
REMARK   10  A    between atoms: C_25  and  C_26
REMARK                            x       y       z     vdW  Elec       q    Type
REMARK                         _______ _______ _______ _____ _____    ______ ____
ROOT
ATOM      1  C   UNL     1       2.790   6.312  19.188  0.00  0.00    +0.000 C 
ENDROOT
BRANCH   1   2
ATOM      2  C   UNL     1       2.027   7.567  19.666  0.00  0.00    +0.000 A 
ATOM      3  C   UNL     1       1.754   8.665  18.831  0.00  0.00    +0.000 A 
ATOM      4  C   UNL     1       0.965   9.736  19.258  0.00  0.00    +0.000 A 
ATOM      5  C   UNL     1       0.447   9.768  20.552  0.00  0.00    +0.000 A 
ATOM      6  C   UNL     1       0.744   8.703  21.417  0.00  0.00    +0.000 A 
ATOM      7  C   UNL     1       1.509   7.615  20.975  0.00  0.00    +0.000 A 
BRANCH   5   8
ATOM      8  C   UNL     1      -0.424  10.914  21.003  0.00  0.00    +0.000 C 
ATOM      9  F   UNL     1      -1.394  11.246  20.103  0.00  0.00    +0.000 F 
ATOM     10  F   UNL     1      -1.075  10.653  22.169  0.00  0.00    +0.000 F 
ATOM     11  F   UNL     1       0.287  12.056  21.216  0.00  0.00    +0.000 F 
ENDBRANCH   5   8
ENDBRANCH   1   2
BRANCH   1  12
ATOM     12  N   UNL     1       4.211   6.682  18.972  0.00  0.00    +0.000 N 
ATOM     13  H   UNL     1       4.747   6.682  19.835  0.00  0.00    +0.000 HD
BRANCH  12  14
ATOM     14  C   UNL     1       4.956   6.226  17.885  0.00  0.00    +0.000 A 
ATOM     15  C   UNL     1       5.756   5.074  17.901  0.00  0.00    +0.000 A 
ATOM     16  C   UNL     1       6.362   4.573  16.738  0.00  0.00    +0.000 A 
ATOM     17  C   UNL     1       6.196   5.247  15.526  0.00  0.00    +0.000 A 
ATOM     18  C   UNL     1       5.420   6.406  15.475  0.00  0.00    +0.000 A 
ATOM     19  C   UNL     1       4.797   6.872  16.644  0.00  0.00    +0.000 A 
BRANCH  17  20
ATOM     20  N   UNL     1       6.817   4.724  14.308  0.00  0.00    +0.000 N 
ATOM     21  O   UNL     1       6.363   3.671  13.831  0.00  0.00    +0.000 OA
ATOM     22  O   UNL     1       7.762   5.360  13.817  0.00  0.00    +0.000 OA
ENDBRANCH  17  20
ENDBRANCH  12  14
ENDBRANCH   1  12
BRANCH   1  23
ATOM     23  C   UNL     1       2.235   5.707  17.883  0.00  0.00    +0.000 C 
BRANCH  23  24
ATOM     24  C   UNL     1       1.939   4.218  17.992  0.00  0.00    +0.000 C 
ATOM     25  O   UNL     1       1.519   3.552  17.049  0.00  0.00    +0.000 OA
BRANCH  24  30
ATOM     26  C   UNL     1       3.650   2.410  20.866  0.00  0.00    +0.000 A 
ATOM     27  C   UNL     1       2.591   2.309  21.771  0.00  0.00    +0.000 A 
ATOM     28  C   UNL     1       1.331   2.816  21.450  0.00  0.00    +0.000 A 
ATOM     29  C   UNL     1       1.125   3.433  20.216  0.00  0.00    +0.000 A 
ATOM     30  C   UNL     1       2.183   3.550  19.306  0.00  0.00    +0.000 A 
ATOM     31  C   UNL     1       3.446   3.038  19.639  0.00  0.00    +0.000 A 
BRANCH  26  33
ATOM     32  C   UNL     1       5.257   0.668  20.635  0.00  0.00    +0.000 C 
ATOM     33  O   UNL     1       4.828   1.857  21.289  0.00  0.00    +0.000 OA
ENDBRANCH  26  33
ENDBRANCH  24  30
ENDBRANCH  23  24
ENDBRANCH   1  23
TORSDOF 9
ENDMDL
MODEL 9
REMARK VINA RESULT:      -7.6      4.413      8.365
REMARK  Name = 
REMARK  10 active torsions:
REMARK  status: ('A' for Active; 'I' for Inactive)
REMARK    1  A    between atoms: C_1  and  O_2
REMARK    2  A    between atoms: O_2  and  C_3
REMARK    3  A    between atoms: C_7  and  C_8
REMARK    4  A    between atoms: C_8  and  C_10
REMARK    5  A    between atoms: C_10  and  C_11
REMARK    6  A    between atoms: C_11  and  N_12
REMARK    7  A    between atoms: C_11  and  C_22
REMARK    8  A    between atoms: N_12  and  C_13
REMARK    9  A    between atoms: C_16  and  N_17
REMARK   10  A    between atoms: C_25  and  C_26
REMARK                            x       y       z     vdW  Elec       q    Type
REMARK                         _______ _______ _______ _____ _____    ______ ____
ROOT
ATOM      1  C   UNL     1       0.128  10.915  19.051  0.00  0.00    +0.000 C 
ENDROOT
BRANCH   1   2
ATOM      2  C   UNL     1       1.050   9.675  19.030  0.00  0.00    +0.000 A 
ATOM      3  C   UNL     1       1.192   8.805  20.126  0.00  0.00    +0.000 A 
ATOM      4  C   UNL     1       1.945   7.631  20.040  0.00  0.00    +0.000 A 
ATOM      5  C   UNL     1       2.617   7.300  18.864  0.00  0.00    +0.000 A 
ATOM      6  C   UNL     1       2.524   8.176  17.772  0.00  0.00    +0.000 A 
ATOM      7  C   UNL     1       1.742   9.337  17.851  0.00  0.00    +0.000 A 
BRANCH   5   8
ATOM      8  C   UNL     1       3.409   6.019  18.768  0.00  0.00    +0.000 C 
ATOM      9  F   UNL     1       4.611   6.170  18.142  0.00  0.00    +0.000 F 
ATOM     10  F   UNL     1       3.691   5.482  19.986  0.00  0.00    +0.000 F 
ATOM     11  F   UNL     1       2.750   5.051  18.072  0.00  0.00    +0.000 F 
ENDBRANCH   5   8
ENDBRANCH   1   2
BRANCH   1  12
ATOM     12  N   UNL     1      -0.575  10.997  17.747  0.00  0.00    +0.000 N 
ATOM     13  H   UNL     1      -0.270  10.278  17.097  0.00  0.00    +0.000 HD
BRANCH  12  14
ATOM     14  C   UNL     1      -1.938  11.270  17.636  0.00  0.00    +0.000 A 
ATOM     15  C   UNL     1      -2.694  11.063  16.473  0.00  0.00    +0.000 A 
ATOM     16  C   UNL     1      -4.090  11.206  16.459  0.00  0.00    +0.000 A 
ATOM     17  C   UNL     1      -4.758  11.593  17.623  0.00  0.00    +0.000 A 
ATOM     18  C   UNL     1      -4.036  11.824  18.795  0.00  0.00    +0.000 A 
ATOM     19  C   UNL     1      -2.644  11.643  18.796  0.00  0.00    +0.000 A 
BRANCH  17  20
ATOM     20  N   UNL     1      -6.215  11.734  17.618  0.00  0.00    +0.000 N 
ATOM     21  O   UNL     1      -6.882  10.899  18.251  0.00  0.00    +0.000 OA
ATOM     22  O   UNL     1      -6.706  12.680  16.983  0.00  0.00    +0.000 OA
ENDBRANCH  17  20
ENDBRANCH  12  14
ENDBRANCH   1  12
BRANCH   1  23
ATOM     23  C   UNL     1       0.875  12.241  19.292  0.00  0.00    +0.000 C 
BRANCH  23  24
ATOM     24  C   UNL     1       0.957  12.624  20.763  0.00  0.00    +0.000 C 
ATOM     25  O   UNL     1       1.979  13.071  21.279  0.00  0.00    +0.000 OA
BRANCH  24  30
ATOM     26  C   UNL     1      -2.396  13.260  22.439  0.00  0.00    +0.000 A 
ATOM     27  C   UNL     1      -2.538  12.085  23.180  0.00  0.00    +0.000 A 
ATOM     28  C   UNL     1      -1.553  11.098  23.143  0.00  0.00    +0.000 A 
ATOM     29  C   UNL     1      -0.415  11.282  22.356  0.00  0.00    +0.000 A 
ATOM     30  C   UNL     1      -0.268  12.452  21.600  0.00  0.00    +0.000 A 
ATOM     31  C   UNL     1      -1.265  13.437  21.644  0.00  0.00    +0.000 A 
BRANCH  26  33
ATOM     32  C   UNL     1      -3.525  14.837  23.822  0.00  0.00    +0.000 C 
ATOM     33  O   UNL     1      -3.419  14.159  22.575  0.00  0.00    +0.000 OA
ENDBRANCH  26  33
ENDBRANCH  24  30
ENDBRANCH  23  24
ENDBRANCH   1  23
TORSDOF 9
ENDMDL
