MODEL 1
REMARK VINA RESULT:      -7.6      0.000      0.000
REMARK  Name = 
REMARK  5 active torsions:
REMARK  status: ('A' for Active; 'I' for Inactive)
REMARK    1  A    between atoms: C_1  and  C_2
REMARK    2  A    between atoms: C_6  and  N_7
REMARK    3  A    between atoms: N_7  and  C_8
REMARK    4  A    between atoms: N_11  and  C_12
REMARK    5  A    between atoms: C_12  and  C_13
REMARK                            x       y       z     vdW  Elec       q    Type
REMARK                         _______ _______ _______ _____ _____    ______ ____
ROOT
ATOM      1  C   UNL     1       5.085   5.861  19.169  0.00  0.00    +0.000 C 
ATOM      2  C   UNL     1       4.634   6.496  17.847  0.00  0.00    +0.000 C 
ATOM      3  C   UNL     1       4.819   5.546  16.663  0.00  0.00    +0.000 C 
ATOM      4  N   UNL     1       6.176   4.970  16.507  0.00  0.00    +0.000 NA
ATOM      5  C   UNL     1       6.734   4.482  17.785  0.00  0.00    +0.000 C 
ATOM      6  C   UNL     1       6.550   5.456  18.960  0.00  0.00    +0.000 C 
ENDROOT
BRANCH   1   7
ATOM      7  N   UNL     1       4.153   4.783  19.570  0.00  0.00    +0.000 NA
ATOM      8  H   UNL     1       4.197   4.024  18.890  0.00  0.00    +0.000 HD
BRANCH   7  14
ATOM      9  C   UNL     1       1.195   2.441  22.149  0.00  0.00    +0.000 C 
ATOM     10  C   UNL     1       1.795   3.015  20.864  0.00  0.00    +0.000 C 
ATOM     11  C   UNL     1       0.800   2.892  19.707  0.00  0.00    +0.000 C 
ATOM     12  C   UNL     1       1.392   3.464  18.425  0.00  0.00    +0.000 C 
ATOM     13  C   UNL     1       1.809   4.924  18.600  0.00  0.00    +0.000 C 
ATOM     14  C   UNL     1       2.752   5.179  19.792  0.00  0.00    +0.000 C 
ATOM     15  C   UNL     1       2.203   4.485  21.063  0.00  0.00    +0.000 C 
ENDBRANCH   7  14
ENDBRANCH   1   7
BRANCH   4  16
ATOM     16  C   UNL     1       6.044   3.858  15.531  0.00  0.00    +0.000 C 
BRANCH  16  17
ATOM     17  C   UNL     1       6.410   4.126  14.087  0.00  0.00    +0.000 A 
ATOM     18  C   UNL     1       7.355   5.121  13.783  0.00  0.00    +0.000 A 
ATOM     19  C   UNL     1       7.847   5.268  12.486  0.00  0.00    +0.000 A 
ATOM     20  C   UNL     1       7.392   4.428  11.473  0.00  0.00    +0.000 A 
ATOM     21  C   UNL     1       6.426   3.461  11.753  0.00  0.00    +0.000 A 
ATOM     22  C   UNL     1       5.931   3.314  13.052  0.00  0.00    +0.000 A 
ENDBRANCH  16  17
ENDBRANCH   4  16
TORSDOF 4
ENDMDL
MODEL 2
REMARK VINA RESULT:      -7.4      0.121      1.060
REMARK  Name = 
REMARK  5 active torsions:
REMARK  status: ('A' for Active; 'I' for Inactive)
REMARK    1  A    between atoms: C_1  and  C_2
REMARK    2  A    between atoms: C_6  and  N_7
REMARK    3  A    between atoms: N_7  and  C_8
REMARK    4  A    between atoms: N_11  and  C_12
REMARK    5  A    between atoms: C_12  and  C_13
REMARK                            x       y       z     vdW  Elec       q    Type
REMARK                         _______ _______ _______ _____ _____    ______ ____
ROOT
ATOM      1  C   UNL     1       5.084   5.831  19.162  0.00  0.00    +0.000 C 
ATOM      2  C   UNL     1       4.618   6.503  17.863  0.00  0.00    +0.000 C 
ATOM      3  C   UNL     1       4.779   5.584  16.653  0.00  0.00    +0.000 C 
ATOM      4  N   UNL     1       6.130   5.002  16.461  0.00  0.00    +0.000 NA
ATOM      5  C   UNL     1       6.702   4.476  17.718  0.00  0.00    +0.000 C 
ATOM      6  C   UNL     1       6.542   5.420  18.921  0.00  0.00    +0.000 C 
ENDROOT
BRANCH   1   7
ATOM      7  N   UNL     1       4.150   4.749  19.548  0.00  0.00    +0.000 NA
ATOM      8  H   UNL     1       4.201   3.994  18.864  0.00  0.00    +0.000 HD
BRANCH   7  14
ATOM      9  C   UNL     1       1.178   2.406  22.110  0.00  0.00    +0.000 C 
ATOM     10  C   UNL     1       1.787   2.978  20.829  0.00  0.00    +0.000 C 
ATOM     11  C   UNL     1       0.800   2.850  19.664  0.00  0.00    +0.000 C 
ATOM     12  C   UNL     1       1.401   3.420  18.385  0.00  0.00    +0.000 C 
ATOM     13  C   UNL     1       1.813   4.882  18.560  0.00  0.00    +0.000 C 
ATOM     14  C   UNL     1       2.746   5.142  19.758  0.00  0.00    +0.000 C 
ATOM     15  C   UNL     1       2.189   4.450  21.027  0.00  0.00    +0.000 C 
ENDBRANCH   7  14
ENDBRANCH   1   7
BRANCH   4  16
ATOM     16  C   UNL     1       5.975   3.916  15.459  0.00  0.00    +0.000 C 
BRANCH  16  17
ATOM     17  C   UNL     1       6.592   4.113  14.091  0.00  0.00    +0.000 A 
ATOM     18  C   UNL     1       6.149   3.333  13.009  0.00  0.00    +0.000 A 
ATOM     19  C   UNL     1       6.565   3.614  11.707  0.00  0.00    +0.000 A 
ATOM     20  C   UNL     1       7.438   4.673  11.472  0.00  0.00    +0.000 A 
ATOM     21  C   UNL     1       7.916   5.432  12.541  0.00  0.00    +0.000 A 
ATOM     22  C   UNL     1       7.502   5.150  13.846  0.00  0.00    +0.000 A 
ENDBRANCH  16  17
ENDBRANCH   4  16
TORSDOF 4
ENDMDL
MODEL 3
REMARK VINA RESULT:      -7.0      1.877      3.370
REMARK  Name = 
REMARK  5 active torsions:
REMARK  status: ('A' for Active; 'I' for Inactive)
REMARK    1  A    between atoms: C_1  and  C_2
REMARK    2  A    between atoms: C_6  and  N_7
REMARK    3  A    between atoms: N_7  and  C_8
REMARK    4  A    between atoms: N_11  and  C_12
REMARK    5  A    between atoms: C_12  and  C_13
REMARK                            x       y       z     vdW  Elec       q    Type
REMARK                         _______ _______ _______ _____ _____    ______ ____
ROOT
ATOM      1  C   UNL     1       4.321   4.211  19.505  0.00  0.00    +0.000 C 
ATOM      2  C   UNL     1       5.830   4.281  19.232  0.00  0.00    +0.000 C 
ATOM      3  C   UNL     1       6.138   4.900  17.870  0.00  0.00    +0.000 C 
ATOM      4  N   UNL     1       5.447   4.283  16.711  0.00  0.00    +0.000 NA
ATOM      5  C   UNL     1       4.012   4.042  16.972  0.00  0.00    +0.000 C 
ATOM      6  C   UNL     1       3.724   3.407  18.342  0.00  0.00    +0.000 C 
ENDROOT
BRANCH   1   7
ATOM      7  N   UNL     1       3.771   5.568  19.719  0.00  0.00    +0.000 NA
ATOM      8  H   UNL     1       3.981   5.875  20.669  0.00  0.00    +0.000 HD
BRANCH   7  14
ATOM      9  C   UNL     1       1.980   9.221  17.637  0.00  0.00    +0.000 C 
ATOM     10  C   UNL     1       2.265   8.257  18.789  0.00  0.00    +0.000 C 
ATOM     11  C   UNL     1       1.311   8.524  19.958  0.00  0.00    +0.000 C 
ATOM     12  C   UNL     1       1.590   7.565  21.109  0.00  0.00    +0.000 C 
ATOM     13  C   UNL     1       1.475   6.106  20.666  0.00  0.00    +0.000 C 
ATOM     14  C   UNL     1       2.336   5.743  19.440  0.00  0.00    +0.000 C 
ATOM     15  C   UNL     1       2.140   6.796  18.322  0.00  0.00    +0.000 C 
ENDBRANCH   7  14
ENDBRANCH   1   7
BRANCH   4  16
ATOM     16  C   UNL     1       5.625   5.222  15.574  0.00  0.00    +0.000 C 
BRANCH  16  17
ATOM     17  C   UNL     1       6.226   4.686  14.293  0.00  0.00    +0.000 A 
ATOM     18  C   UNL     1       5.545   3.694  13.566  0.00  0.00    +0.000 A 
ATOM     19  C   UNL     1       5.979   3.312  12.296  0.00  0.00    +0.000 A 
ATOM     20  C   UNL     1       7.107   3.910  11.741  0.00  0.00    +0.000 A 
ATOM     21  C   UNL     1       7.815   4.869  12.466  0.00  0.00    +0.000 A 
ATOM     22  C   UNL     1       7.382   5.251  13.739  0.00  0.00    +0.000 A 
ENDBRANCH  16  17
ENDBRANCH   4  16
TORSDOF 4
ENDMDL
MODEL 4
REMARK VINA RESULT:      -7.0      3.834      8.500
REMARK  Name = 
REMARK  5 active torsions:
REMARK  status: ('A' for Active; 'I' for Inactive)
REMARK    1  A    between atoms: C_1  and  C_2
REMARK    2  A    between atoms: C_6  and  N_7
REMARK    3  A    between atoms: N_7  and  C_8
REMARK    4  A    between atoms: N_11  and  C_12
REMARK    5  A    between atoms: C_12  and  C_13
REMARK                            x       y       z     vdW  Elec       q    Type
REMARK                         _______ _______ _______ _____ _____    ______ ____
ROOT
ATOM      1  C   UNL     1       2.997   5.150  18.846  0.00  0.00    +0.000 C 
ATOM      2  C   UNL     1       2.622   6.523  18.272  0.00  0.00    +0.000 C 
ATOM      3  C   UNL     1       2.344   7.547  19.372  0.00  0.00    +0.000 C 
ATOM      4  N   UNL     1       1.348   7.140  20.393  0.00  0.00    +0.000 NA
ATOM      5  C   UNL     1       1.562   5.759  20.873  0.00  0.00    +0.000 C 
ATOM      6  C   UNL     1       1.827   4.742  19.751  0.00  0.00    +0.000 C 
ENDROOT
BRANCH   1   7
ATOM      7  N   UNL     1       4.334   5.202  19.479  0.00  0.00    +0.000 NA
ATOM      8  H   UNL     1       4.570   6.169  19.700  0.00  0.00    +0.000 HD
BRANCH   7  14
ATOM      9  C   UNL     1       7.734   7.511  17.481  0.00  0.00    +0.000 C 
ATOM     10  C   UNL     1       6.476   6.645  17.558  0.00  0.00    +0.000 C 
ATOM     11  C   UNL     1       6.178   6.012  16.196  0.00  0.00    +0.000 C 
ATOM     12  C   UNL     1       4.926   5.146  16.266  0.00  0.00    +0.000 C 
ATOM     13  C   UNL     1       5.056   4.056  17.330  0.00  0.00    +0.000 C 
ATOM     14  C   UNL     1       5.436   4.574  18.731  0.00  0.00    +0.000 C 
ATOM     15  C   UNL     1       6.631   5.552  18.630  0.00  0.00    +0.000 C 
ENDBRANCH   7  14
ENDBRANCH   1   7
BRANCH   4  16
ATOM     16  C   UNL     1       1.478   8.111  21.510  0.00  0.00    +0.000 C 
BRANCH  16  17
ATOM     17  C   UNL     1       0.431   9.196  21.640  0.00  0.00    +0.000 A 
ATOM     18  C   UNL     1      -0.140   9.464  22.896  0.00  0.00    +0.000 A 
ATOM     19  C   UNL     1      -0.968  10.572  23.084  0.00  0.00    +0.000 A 
ATOM     20  C   UNL     1      -1.245  11.418  22.014  0.00  0.00    +0.000 A 
ATOM     21  C   UNL     1      -0.716  11.143  20.753  0.00  0.00    +0.000 A 
ATOM     22  C   UNL     1       0.112  10.033  20.563  0.00  0.00    +0.000 A 
ENDBRANCH  16  17
ENDBRANCH   4  16
TORSDOF 4
ENDMDL
MODEL 5
REMARK VINA RESULT:      -6.9      1.231      1.730
REMARK  Name = 
REMARK  5 active torsions:
REMARK  status: ('A' for Active; 'I' for Inactive)
REMARK    1  A    between atoms: C_1  and  C_2
REMARK    2  A    between atoms: C_6  and  N_7
REMARK    3  A    between atoms: N_7  and  C_8
REMARK    4  A    between atoms: N_11  and  C_12
REMARK    5  A    between atoms: C_12  and  C_13
REMARK                            x       y       z     vdW  Elec       q    Type
REMARK                         _______ _______ _______ _____ _____    ______ ____
ROOT
ATOM      1  C   UNL     1       6.391   4.769  18.951  0.00  0.00    +0.000 C 
ATOM      2  C   UNL     1       5.789   6.146  18.642  0.00  0.00    +0.000 C 
ATOM      3  C   UNL     1       5.287   6.241  17.201  0.00  0.00    +0.000 C 
ATOM      4  N   UNL     1       6.268   5.875  16.152  0.00  0.00    +0.000 NA
ATOM      5  C   UNL     1       7.000   4.631  16.471  0.00  0.00    +0.000 C 
ATOM      6  C   UNL     1       7.508   4.560  17.920  0.00  0.00    +0.000 C 
ENDROOT
BRANCH   1   7
ATOM      7  N   UNL     1       5.330   3.738  18.991  0.00  0.00    +0.000 NA
ATOM      8  H   UNL     1       5.567   2.979  18.352  0.00  0.00    +0.000 HD
BRANCH   7  14
ATOM      9  C   UNL     1       1.732   2.729  21.622  0.00  0.00    +0.000 C 
ATOM     10  C   UNL     1       2.613   2.702  20.372  0.00  0.00    +0.000 C 
ATOM     11  C   UNL     1       1.844   2.111  19.187  0.00  0.00    +0.000 C 
ATOM     12  C   UNL     1       2.717   2.082  17.938  0.00  0.00    +0.000 C 
ATOM     13  C   UNL     1       3.232   3.477  17.581  0.00  0.00    +0.000 C 
ATOM     14  C   UNL     1       3.957   4.202  18.732  0.00  0.00    +0.000 C 
ATOM     15  C   UNL     1       3.116   4.115  20.029  0.00  0.00    +0.000 C 
ENDBRANCH   7  14
ENDBRANCH   1   7
BRANCH   4  16
ATOM     16  C   UNL     1       5.493   5.721  14.894  0.00  0.00    +0.000 C 
BRANCH  16  17
ATOM     17  C   UNL     1       6.047   4.810  13.821  0.00  0.00    +0.000 A 
ATOM     18  C   UNL     1       5.269   3.738  13.349  0.00  0.00    +0.000 A 
ATOM     19  C   UNL     1       5.674   2.995  12.239  0.00  0.00    +0.000 A 
ATOM     20  C   UNL     1       6.867   3.308  11.594  0.00  0.00    +0.000 A 
ATOM     21  C   UNL     1       7.668   4.344  12.074  0.00  0.00    +0.000 A 
ATOM     22  C   UNL     1       7.265   5.089  13.187  0.00  0.00    +0.000 A 
ENDBRANCH  16  17
ENDBRANCH   4  16
TORSDOF 4
ENDMDL
MODEL 6
REMARK VINA RESULT:      -6.9      1.061      7.404
REMARK  Name = 
REMARK  5 active torsions:
REMARK  status: ('A' for Active; 'I' for Inactive)
REMARK    1  A    between atoms: C_1  and  C_2
REMARK    2  A    between atoms: C_6  and  N_7
REMARK    3  A    between atoms: N_7  and  C_8
REMARK    4  A    between atoms: N_11  and  C_12
REMARK    5  A    between atoms: C_12  and  C_13
REMARK                            x       y       z     vdW  Elec       q    Type
REMARK                         _______ _______ _______ _____ _____    ______ ____
ROOT
ATOM      1  C   UNL     1       7.054   5.011  16.878  0.00  0.00    +0.000 C 
ATOM      2  C   UNL     1       6.539   4.323  18.150  0.00  0.00    +0.000 C 
ATOM      3  C   UNL     1       5.022   4.438  18.289  0.00  0.00    +0.000 C 
ATOM      4  N   UNL     1       4.470   5.812  18.203  0.00  0.00    +0.000 NA
ATOM      5  C   UNL     1       5.049   6.584  17.084  0.00  0.00    +0.000 C 
ATOM      6  C   UNL     1       6.577   6.467  16.969  0.00  0.00    +0.000 C 
ENDROOT
BRANCH   1   7
ATOM      7  N   UNL     1       6.637   4.254  15.676  0.00  0.00    +0.000 NA
ATOM      8  H   UNL     1       7.396   3.640  15.380  0.00  0.00    +0.000 HD
BRANCH   7  14
ATOM      9  C   UNL     1       5.284   2.485  11.685  0.00  0.00    +0.000 C 
ATOM     10  C   UNL     1       6.181   3.268  12.646  0.00  0.00    +0.000 C 
ATOM     11  C   UNL     1       7.189   4.117  11.866  0.00  0.00    +0.000 C 
ATOM     12  C   UNL     1       8.084   4.900  12.819  0.00  0.00    +0.000 C 
ATOM     13  C   UNL     1       7.267   5.791  13.754  0.00  0.00    +0.000 C 
ATOM     14  C   UNL     1       6.162   5.053  14.534  0.00  0.00    +0.000 C 
ATOM     15  C   UNL     1       5.337   4.161  13.573  0.00  0.00    +0.000 C 
ENDBRANCH   7  14
ENDBRANCH   1   7
BRANCH   4  16
ATOM     16  C   UNL     1       3.002   5.659  18.033  0.00  0.00    +0.000 C 
BRANCH  16  17
ATOM     17  C   UNL     1       2.252   4.802  19.029  0.00  0.00    +0.000 A 
ATOM     18  C   UNL     1       1.438   3.752  18.571  0.00  0.00    +0.000 A 
ATOM     19  C   UNL     1       0.882   2.835  19.463  0.00  0.00    +0.000 A 
ATOM     20  C   UNL     1       1.125   2.963  20.828  0.00  0.00    +0.000 A 
ATOM     21  C   UNL     1       1.900   4.022  21.301  0.00  0.00    +0.000 A 
ATOM     22  C   UNL     1       2.456   4.942  20.408  0.00  0.00    +0.000 A 
ENDBRANCH  16  17
ENDBRANCH   4  16
TORSDOF 4
ENDMDL
MODEL 7
REMARK VINA RESULT:      -6.9      1.272      1.766
REMARK  Name = 
REMARK  5 active torsions:
REMARK  status: ('A' for Active; 'I' for Inactive)
REMARK    1  A    between atoms: C_1  and  C_2
REMARK    2  A    between atoms: C_6  and  N_7
REMARK    3  A    between atoms: N_7  and  C_8
REMARK    4  A    between atoms: N_11  and  C_12
REMARK    5  A    between atoms: C_12  and  C_13
REMARK                            x       y       z     vdW  Elec       q    Type
REMARK                         _______ _______ _______ _____ _____    ______ ____
ROOT
ATOM      1  C   UNL     1       6.022   5.147  17.750  0.00  0.00    +0.000 C 
ATOM      2  C   UNL     1       5.701   6.364  16.872  0.00  0.00    +0.000 C 
ATOM      3  C   UNL     1       5.177   5.955  15.496  0.00  0.00    +0.000 C 
ATOM      4  N   UNL     1       6.028   5.002  14.741  0.00  0.00    +0.000 NA
ATOM      5  C   UNL     1       6.504   3.882  15.580  0.00  0.00    +0.000 C 
ATOM      6  C   UNL     1       7.038   4.315  16.955  0.00  0.00    +0.000 C 
ENDROOT
BRANCH   1   7
ATOM      7  N   UNL     1       4.777   4.456  18.154  0.00  0.00    +0.000 NA
ATOM      8  H   UNL     1       4.417   3.914  17.369  0.00  0.00    +0.000 HD
BRANCH   7  14
ATOM      9  C   UNL     1       2.117   3.272  21.677  0.00  0.00    +0.000 C 
ATOM     10  C   UNL     1       2.465   3.600  20.224  0.00  0.00    +0.000 C 
ATOM     11  C   UNL     1       1.190   3.817  19.404  0.00  0.00    +0.000 C 
ATOM     12  C   UNL     1       1.530   4.146  17.956  0.00  0.00    +0.000 C 
ATOM     13  C   UNL     1       2.428   5.379  17.856  0.00  0.00    +0.000 C 
ATOM     14  C   UNL     1       3.710   5.305  18.710  0.00  0.00    +0.000 C 
ATOM     15  C   UNL     1       3.365   4.846  20.148  0.00  0.00    +0.000 C 
ENDBRANCH   7  14
ENDBRANCH   1   7
BRANCH   4  16
ATOM     16  C   UNL     1       5.194   4.501  13.619  0.00  0.00    +0.000 C 
BRANCH  16  17
ATOM     17  C   UNL     1       5.851   3.621  12.578  0.00  0.00    +0.000 A 
ATOM     18  C   UNL     1       7.174   3.883  12.182  0.00  0.00    +0.000 A 
ATOM     19  C   UNL     1       7.867   2.988  11.365  0.00  0.00    +0.000 A 
ATOM     20  C   UNL     1       7.240   1.825  10.925  0.00  0.00    +0.000 A 
ATOM     21  C   UNL     1       5.915   1.572  11.278  0.00  0.00    +0.000 A 
ATOM     22  C   UNL     1       5.219   2.468  12.095  0.00  0.00    +0.000 A 
ENDBRANCH  16  17
ENDBRANCH   4  16
TORSDOF 4
ENDMDL
MODEL 8
REMARK VINA RESULT:      -6.9      2.410      7.010
REMARK  Name = 
REMARK  5 active torsions:
REMARK  status: ('A' for Active; 'I' for Inactive)
REMARK    1  A    between atoms: C_1  and  C_2
REMARK    2  A    between atoms: C_6  and  N_7
REMARK    3  A    between atoms: N_7  and  C_8
REMARK    4  A    between atoms: N_11  and  C_12
REMARK    5  A    between atoms: C_12  and  C_13
REMARK                            x       y       z     vdW  Elec       q    Type
REMARK                         _______ _______ _______ _____ _____    ______ ____
ROOT
ATOM      1  C   UNL     1       2.968   2.609  18.111  0.00  0.00    +0.000 C 
ATOM      2  C   UNL     1       2.003   3.670  17.565  0.00  0.00    +0.000 C 
ATOM      3  C   UNL     1       2.197   5.024  18.247  0.00  0.00    +0.000 C 
ATOM      4  N   UNL     1       2.143   5.012  19.729  0.00  0.00    +0.000 NA
ATOM      5  C   UNL     1       2.931   3.906  20.314  0.00  0.00    +0.000 C 
ATOM      6  C   UNL     1       2.713   2.551  19.623  0.00  0.00    +0.000 C 
ENDROOT
BRANCH   1   7
ATOM      7  N   UNL     1       4.355   2.903  17.687  0.00  0.00    +0.000 NA
ATOM      8  H   UNL     1       5.001   2.659  18.439  0.00  0.00    +0.000 HD
BRANCH   7  14
ATOM      9  C   UNL     1       6.314   3.933  13.689  0.00  0.00    +0.000 C 
ATOM     10  C   UNL     1       6.196   3.815  15.209  0.00  0.00    +0.000 C 
ATOM     11  C   UNL     1       7.296   4.630  15.896  0.00  0.00    +0.000 C 
ATOM     12  C   UNL     1       7.182   4.517  17.411  0.00  0.00    +0.000 C 
ATOM     13  C   UNL     1       5.810   4.974  17.908  0.00  0.00    +0.000 C 
ATOM     14  C   UNL     1       4.620   4.275  17.222  0.00  0.00    +0.000 C 
ATOM     15  C   UNL     1       4.810   4.284  15.686  0.00  0.00    +0.000 C 
ENDBRANCH   7  14
ENDBRANCH   1   7
BRANCH   4  16
ATOM     16  C   UNL     1       2.672   6.327  20.174  0.00  0.00    +0.000 C 
BRANCH  16  17
ATOM     17  C   UNL     1       2.027   7.580  19.623  0.00  0.00    +0.000 A 
ATOM     18  C   UNL     1       1.184   8.347  20.445  0.00  0.00    +0.000 A 
ATOM     19  C   UNL     1       0.722   9.597  20.029  0.00  0.00    +0.000 A 
ATOM     20  C   UNL     1       1.089  10.090  18.780  0.00  0.00    +0.000 A 
ATOM     21  C   UNL     1       1.894   9.322  17.938  0.00  0.00    +0.000 A 
ATOM     22  C   UNL     1       2.356   8.070  18.353  0.00  0.00    +0.000 A 
ENDBRANCH  16  17
ENDBRANCH   4  16
TORSDOF 4
ENDMDL
MODEL 9
REMARK VINA RESULT:      -6.9      2.283      6.622
REMARK  Name = 
REMARK  5 active torsions:
REMARK  status: ('A' for Active; 'I' for Inactive)
REMARK    1  A    between atoms: C_1  and  C_2
REMARK    2  A    between atoms: C_6  and  N_7
REMARK    3  A    between atoms: N_7  and  C_8
REMARK    4  A    between atoms: N_11  and  C_12
REMARK    5  A    between atoms: C_12  and  C_13
REMARK                            x       y       z     vdW  Elec       q    Type
REMARK                         _______ _______ _______ _____ _____    ______ ____
ROOT
ATOM      1  C   UNL     1       3.750   2.546  17.776  0.00  0.00    +0.000 C 
ATOM      2  C   UNL     1       2.259   2.203  17.897  0.00  0.00    +0.000 C 
ATOM      3  C   UNL     1       1.522   3.174  18.819  0.00  0.00    +0.000 C 
ATOM      4  N   UNL     1       2.108   3.351  20.169  0.00  0.00    +0.000 NA
ATOM      5  C   UNL     1       3.575   3.529  20.130  0.00  0.00    +0.000 C 
ATOM      6  C   UNL     1       4.300   2.535  19.208  0.00  0.00    +0.000 C 
ENDROOT
BRANCH   1   7
ATOM      7  N   UNL     1       3.932   3.800  17.010  0.00  0.00    +0.000 NA
ATOM      8  H   UNL     1       3.209   3.870  16.293  0.00  0.00    +0.000 HD
BRANCH   7  14
ATOM      9  C   UNL     1       7.429   5.830  19.138  0.00  0.00    +0.000 C 
ATOM     10  C   UNL     1       6.310   5.670  18.108  0.00  0.00    +0.000 C 
ATOM     11  C   UNL     1       6.458   6.708  16.991  0.00  0.00    +0.000 C 
ATOM     12  C   UNL     1       5.346   6.552  15.961  0.00  0.00    +0.000 C 
ATOM     13  C   UNL     1       5.325   5.145  15.365  0.00  0.00    +0.000 C 
ATOM     14  C   UNL     1       5.259   4.012  16.407  0.00  0.00    +0.000 C 
ATOM     15  C   UNL     1       6.311   4.249  17.518  0.00  0.00    +0.000 C 
ENDBRANCH   7  14
ENDBRANCH   1   7
BRANCH   4  16
ATOM     16  C   UNL     1       1.449   4.547  20.754  0.00  0.00    +0.000 C 
BRANCH  16  17
ATOM     17  C   UNL     1       1.794   5.905  20.181  0.00  0.00    +0.000 A 
ATOM     18  C   UNL     1       2.411   5.991  18.921  0.00  0.00    +0.000 A 
ATOM     19  C   UNL     1       2.575   7.224  18.288  0.00  0.00    +0.000 A 
ATOM     20  C   UNL     1       2.133   8.387  18.913  0.00  0.00    +0.000 A 
ATOM     21  C   UNL     1       1.554   8.320  20.180  0.00  0.00    +0.000 A 
ATOM     22  C   UNL     1       1.390   7.086  20.816  0.00  0.00    +0.000 A 
ENDBRANCH  16  17
ENDBRANCH   4  16
TORSDOF 4
ENDMDL
