MODEL 1
REMARK VINA RESULT:      -8.4      0.000      0.000
REMARK  Name = 
REMARK  2 active torsions:
REMARK  status: ('A' for Active; 'I' for Inactive)
REMARK    1  A    between atoms: C_2  and  C_10
REMARK    2  A    between atoms: N_3  and  C_4
REMARK                            x       y       z     vdW  Elec       q    Type
REMARK                         _______ _______ _______ _____ _____    ______ ____
ROOT
ATOM      1  C   UNL     1       3.866   3.717  18.530  0.00  0.00    +0.000 C 
ATOM      2  C   UNL     1       3.743   3.733  16.907  0.00  0.00    +0.000 C 
ATOM      3  C   UNL     1       5.027   4.247  16.173  0.00  0.00    +0.000 A 
ATOM      4  C   UNL     1       5.996   4.828  16.980  0.00  0.00    +0.000 A 
ATOM      5  S   UNL     1       7.338   5.419  16.170  0.00  0.00    +0.000 S 
ATOM      6  C   UNL     1       6.820   4.752  14.684  0.00  0.00    +0.000 A 
ATOM      7  C   UNL     1       7.606   4.789  13.509  0.00  0.00    +0.000 A 
ATOM      8  C   UNL     1       7.120   4.224  12.342  0.00  0.00    +0.000 A 
ATOM      9  C   UNL     1       5.860   3.644  12.350  0.00  0.00    +0.000 A 
ATOM     10  C   UNL     1       5.070   3.605  13.535  0.00  0.00    +0.000 A 
ATOM     11  C   UNL     1       5.543   4.162  14.770  0.00  0.00    +0.000 A 
ATOM     12  C   UNL     1       5.920   4.908  18.456  0.00  0.00    +0.000 C 
ATOM     13  N   UNL     1       5.296   3.660  18.953  0.00  0.00    +0.000 NA
ATOM     14  H   UNL     1       5.741   2.881  18.463  0.00  0.00    +0.000 HD
ENDROOT
BRANCH   1  16
ATOM     15  O   UNL     1       2.882   4.602  20.655  0.00  0.00    +0.000 OA
ATOM     16  C   UNL     1       3.215   4.838  19.494  0.00  0.00    +0.000 C 
ATOM     17  N   UNL     1       3.078   6.086  18.819  0.00  0.00    +0.000 N 
ATOM     18  H   UNL     1       3.452   6.072  17.873  0.00  0.00    +0.000 HD
BRANCH  17  19
ATOM     19  C   UNL     1       2.352   7.272  19.167  0.00  0.00    +0.000 A 
ATOM     20  C   UNL     1       1.824   7.525  20.430  0.00  0.00    +0.000 A 
ATOM     21  C   UNL     1       1.053   8.685  20.675  0.00  0.00    +0.000 A 
ATOM     22  C   UNL     1       0.810   9.622  19.684  0.00  0.00    +0.000 A 
ATOM     23  C   UNL     1       1.339   9.400  18.420  0.00  0.00    +0.000 A 
ATOM     24  C   UNL     1       2.095   8.239  18.164  0.00  0.00    +0.000 A 
ENDBRANCH  17  19
ENDBRANCH   1  16
TORSDOF 2
ENDMDL
MODEL 2
REMARK VINA RESULT:      -8.3      0.134      1.025
REMARK  Name = 
REMARK  2 active torsions:
REMARK  status: ('A' for Active; 'I' for Inactive)
REMARK    1  A    between atoms: C_2  and  C_10
REMARK    2  A    between atoms: N_3  and  C_4
REMARK                            x       y       z     vdW  Elec       q    Type
REMARK                         _______ _______ _______ _____ _____    ______ ____
ROOT
ATOM      1  C   UNL     1       3.943   3.743  18.442  0.00  0.00    +0.000 C 
ATOM      2  C   UNL     1       3.811   3.728  16.820  0.00  0.00    +0.000 C 
ATOM      3  C   UNL     1       5.079   4.263  16.071  0.00  0.00    +0.000 A 
ATOM      4  C   UNL     1       6.035   4.884  16.864  0.00  0.00    +0.000 A 
ATOM      5  S   UNL     1       7.357   5.496  16.038  0.00  0.00    +0.000 S 
ATOM      6  C   UNL     1       6.851   4.790  14.566  0.00  0.00    +0.000 A 
ATOM      7  C   UNL     1       7.630   4.828  13.386  0.00  0.00    +0.000 A 
ATOM      8  C   UNL     1       7.155   4.230  12.231  0.00  0.00    +0.000 A 
ATOM      9  C   UNL     1       5.911   3.617  12.255  0.00  0.00    +0.000 A 
ATOM     10  C   UNL     1       5.128   3.577  13.444  0.00  0.00    +0.000 A 
ATOM     11  C   UNL     1       5.590   4.168  14.667  0.00  0.00    +0.000 A 
ATOM     12  C   UNL     1       5.964   4.987  18.338  0.00  0.00    +0.000 C 
ATOM     13  N   UNL     1       5.375   3.731  18.859  0.00  0.00    +0.000 NA
ATOM     14  H   UNL     1       5.839   2.956  18.381  0.00  0.00    +0.000 HD
ENDROOT
BRANCH   1  16
ATOM     15  O   UNL     1       2.946   4.639  20.558  0.00  0.00    +0.000 OA
ATOM     16  C   UNL     1       3.266   4.863  19.390  0.00  0.00    +0.000 C 
ATOM     17  N   UNL     1       3.090   6.094  18.694  0.00  0.00    +0.000 N 
ATOM     18  H   UNL     1       3.457   6.073  17.746  0.00  0.00    +0.000 HD
BRANCH  17  19
ATOM     19  C   UNL     1       2.333   7.265  19.025  0.00  0.00    +0.000 A 
ATOM     20  C   UNL     1       2.069   8.305  18.137  0.00  0.00    +0.000 A 
ATOM     21  C   UNL     1       1.379   9.464  18.561  0.00  0.00    +0.000 A 
ATOM     22  C   UNL     1       0.920   9.604  19.860  0.00  0.00    +0.000 A 
ATOM     23  C   UNL     1       1.156   8.575  20.761  0.00  0.00    +0.000 A 
ATOM     24  C   UNL     1       1.857   7.424  20.350  0.00  0.00    +0.000 A 
ENDBRANCH  17  19
ENDBRANCH   1  16
TORSDOF 2
ENDMDL
MODEL 3
REMARK VINA RESULT:      -7.8      4.434      6.167
REMARK  Name = 
REMARK  2 active torsions:
REMARK  status: ('A' for Active; 'I' for Inactive)
REMARK    1  A    between atoms: C_2  and  C_10
REMARK    2  A    between atoms: N_3  and  C_4
REMARK                            x       y       z     vdW  Elec       q    Type
REMARK                         _______ _______ _______ _____ _____    ______ ____
ROOT
ATOM      1  C   UNL     1       6.899   6.081  17.054  0.00  0.00    +0.000 C 
ATOM      2  C   UNL     1       6.271   4.677  17.585  0.00  0.00    +0.000 C 
ATOM      3  C   UNL     1       4.747   4.751  17.940  0.00  0.00    +0.000 A 
ATOM      4  C   UNL     1       4.196   6.024  17.980  0.00  0.00    +0.000 A 
ATOM      5  S   UNL     1       2.578   6.087  18.413  0.00  0.00    +0.000 S 
ATOM      6  C   UNL     1       2.433   4.384  18.380  0.00  0.00    +0.000 A 
ATOM      7  C   UNL     1       1.201   3.713  18.560  0.00  0.00    +0.000 A 
ATOM      8  C   UNL     1       1.161   2.330  18.516  0.00  0.00    +0.000 A 
ATOM      9  C   UNL     1       2.341   1.630  18.311  0.00  0.00    +0.000 A 
ATOM     10  C   UNL     1       3.581   2.306  18.127  0.00  0.00    +0.000 A 
ATOM     11  C   UNL     1       3.664   3.738  18.146  0.00  0.00    +0.000 A 
ATOM     12  C   UNL     1       4.923   7.265  17.633  0.00  0.00    +0.000 C 
ATOM     13  N   UNL     1       5.831   6.965  16.502  0.00  0.00    +0.000 NA
ATOM     14  H   UNL     1       5.296   6.427  15.816  0.00  0.00    +0.000 HD
ENDROOT
BRANCH   1  16
ATOM     15  O   UNL     1       8.315   6.708  19.022  0.00  0.00    +0.000 OA
ATOM     16  C   UNL     1       7.796   7.069  17.965  0.00  0.00    +0.000 C 
ATOM     17  N   UNL     1       7.879   8.370  17.391  0.00  0.00    +0.000 N 
ATOM     18  H   UNL     1       7.406   8.443  16.494  0.00  0.00    +0.000 HD
BRANCH  17  19
ATOM     19  C   UNL     1       8.340   9.613  17.935  0.00  0.00    +0.000 A 
ATOM     20  C   UNL     1       8.093  10.859  17.364  0.00  0.00    +0.000 A 
ATOM     21  C   UNL     1       8.647  12.035  17.919  0.00  0.00    +0.000 A 
ATOM     22  C   UNL     1       9.435  12.003  19.057  0.00  0.00    +0.000 A 
ATOM     23  C   UNL     1       9.684  10.775  19.655  0.00  0.00    +0.000 A 
ATOM     24  C   UNL     1       9.149   9.597  19.099  0.00  0.00    +0.000 A 
ENDBRANCH  17  19
ENDBRANCH   1  16
TORSDOF 2
ENDMDL
MODEL 4
REMARK VINA RESULT:      -7.8      3.065      7.207
REMARK  Name = 
REMARK  2 active torsions:
REMARK  status: ('A' for Active; 'I' for Inactive)
REMARK    1  A    between atoms: C_2  and  C_10
REMARK    2  A    between atoms: N_3  and  C_4
REMARK                            x       y       z     vdW  Elec       q    Type
REMARK                         _______ _______ _______ _____ _____    ______ ____
ROOT
ATOM      1  C   UNL     1       5.862   6.435  17.638  0.00  0.00    +0.000 C 
ATOM      2  C   UNL     1       4.293   6.027  17.789  0.00  0.00    +0.000 C 
ATOM      3  C   UNL     1       4.038   4.805  18.735  0.00  0.00    +0.000 A 
ATOM      4  C   UNL     1       5.166   4.097  19.128  0.00  0.00    +0.000 A 
ATOM      5  S   UNL     1       4.869   2.763  20.097  0.00  0.00    +0.000 S 
ATOM      6  C   UNL     1       3.210   3.150  20.238  0.00  0.00    +0.000 A 
ATOM      7  C   UNL     1       2.321   2.436  21.075  0.00  0.00    +0.000 A 
ATOM      8  C   UNL     1       0.990   2.811  21.141  0.00  0.00    +0.000 A 
ATOM      9  C   UNL     1       0.554   3.876  20.367  0.00  0.00    +0.000 A 
ATOM     10  C   UNL     1       1.449   4.597  19.526  0.00  0.00    +0.000 A 
ATOM     11  C   UNL     1       2.840   4.253  19.442  0.00  0.00    +0.000 A 
ATOM     12  C   UNL     1       6.555   4.474  18.784  0.00  0.00    +0.000 C 
ATOM     13  N   UNL     1       6.651   5.952  18.808  0.00  0.00    +0.000 NA
ATOM     14  H   UNL     1       6.186   6.274  19.660  0.00  0.00    +0.000 HD
ENDROOT
BRANCH   1  16
ATOM     15  O   UNL     1       7.878   6.554  16.158  0.00  0.00    +0.000 OA
ATOM     16  C   UNL     1       6.774   6.049  16.361  0.00  0.00    +0.000 C 
ATOM     17  N   UNL     1       6.126   5.087  15.534  0.00  0.00    +0.000 N 
ATOM     18  H   UNL     1       5.232   4.776  15.906  0.00  0.00    +0.000 HD
BRANCH  17  19
ATOM     19  C   UNL     1       6.420   4.635  14.206  0.00  0.00    +0.000 A 
ATOM     20  C   UNL     1       7.468   5.119  13.426  0.00  0.00    +0.000 A 
ATOM     21  C   UNL     1       7.647   4.677  12.096  0.00  0.00    +0.000 A 
ATOM     22  C   UNL     1       6.808   3.736  11.521  0.00  0.00    +0.000 A 
ATOM     23  C   UNL     1       5.765   3.227  12.282  0.00  0.00    +0.000 A 
ATOM     24  C   UNL     1       5.571   3.673  13.604  0.00  0.00    +0.000 A 
ENDBRANCH  17  19
ENDBRANCH   1  16
TORSDOF 2
ENDMDL
MODEL 5
REMARK VINA RESULT:      -7.7      4.445      6.095
REMARK  Name = 
REMARK  2 active torsions:
REMARK  status: ('A' for Active; 'I' for Inactive)
REMARK    1  A    between atoms: C_2  and  C_10
REMARK    2  A    between atoms: N_3  and  C_4
REMARK                            x       y       z     vdW  Elec       q    Type
REMARK                         _______ _______ _______ _____ _____    ______ ____
ROOT
ATOM      1  C   UNL     1       6.880   6.139  17.053  0.00  0.00    +0.000 C 
ATOM      2  C   UNL     1       6.261   4.715  17.537  0.00  0.00    +0.000 C 
ATOM      3  C   UNL     1       4.749   4.779  17.943  0.00  0.00    +0.000 A 
ATOM      4  C   UNL     1       4.207   6.052  18.060  0.00  0.00    +0.000 A 
ATOM      5  S   UNL     1       2.604   6.101  18.546  0.00  0.00    +0.000 S 
ATOM      6  C   UNL     1       2.447   4.402  18.438  0.00  0.00    +0.000 A 
ATOM      7  C   UNL     1       1.218   3.729  18.624  0.00  0.00    +0.000 A 
ATOM      8  C   UNL     1       1.168   2.350  18.517  0.00  0.00    +0.000 A 
ATOM      9  C   UNL     1       2.337   1.655  18.242  0.00  0.00    +0.000 A 
ATOM     10  C   UNL     1       3.574   2.333  18.051  0.00  0.00    +0.000 A 
ATOM     11  C   UNL     1       3.667   3.763  18.136  0.00  0.00    +0.000 A 
ATOM     12  C   UNL     1       4.930   7.304  17.748  0.00  0.00    +0.000 C 
ATOM     13  N   UNL     1       5.801   7.053  16.577  0.00  0.00    +0.000 NA
ATOM     14  H   UNL     1       5.242   6.551  15.884  0.00  0.00    +0.000 HD
ENDROOT
BRANCH   1  16
ATOM     15  O   UNL     1       8.313   6.684  19.033  0.00  0.00    +0.000 OA
ATOM     16  C   UNL     1       7.811   7.079  17.981  0.00  0.00    +0.000 C 
ATOM     17  N   UNL     1       7.944   8.385  17.427  0.00  0.00    +0.000 N 
ATOM     18  H   UNL     1       7.476   8.489  16.530  0.00  0.00    +0.000 HD
BRANCH  17  19
ATOM     19  C   UNL     1       8.450   9.602  17.991  0.00  0.00    +0.000 A 
ATOM     20  C   UNL     1       9.194   9.672  19.166  0.00  0.00    +0.000 A 
ATOM     21  C   UNL     1       9.593  10.919  19.700  0.00  0.00    +0.000 A 
ATOM     22  C   UNL     1       9.283  12.113  19.071  0.00  0.00    +0.000 A 
ATOM     23  C   UNL     1       8.556  12.070  17.890  0.00  0.00    +0.000 A 
ATOM     24  C   UNL     1       8.141  10.832  17.360  0.00  0.00    +0.000 A 
ENDBRANCH  17  19
ENDBRANCH   1  16
TORSDOF 2
ENDMDL
MODEL 6
REMARK VINA RESULT:      -7.6      3.059      7.222
REMARK  Name = 
REMARK  2 active torsions:
REMARK  status: ('A' for Active; 'I' for Inactive)
REMARK    1  A    between atoms: C_2  and  C_10
REMARK    2  A    between atoms: N_3  and  C_4
REMARK                            x       y       z     vdW  Elec       q    Type
REMARK                         _______ _______ _______ _____ _____    ______ ____
ROOT
ATOM      1  C   UNL     1       5.824   6.362  17.557  0.00  0.00    +0.000 C 
ATOM      2  C   UNL     1       4.257   5.975  17.764  0.00  0.00    +0.000 C 
ATOM      3  C   UNL     1       4.018   4.768  18.733  0.00  0.00    +0.000 A 
ATOM      4  C   UNL     1       5.150   4.051  19.099  0.00  0.00    +0.000 A 
ATOM      5  S   UNL     1       4.869   2.733  20.093  0.00  0.00    +0.000 S 
ATOM      6  C   UNL     1       3.220   3.142  20.284  0.00  0.00    +0.000 A 
ATOM      7  C   UNL     1       2.351   2.449  21.158  0.00  0.00    +0.000 A 
ATOM      8  C   UNL     1       1.027   2.841  21.263  0.00  0.00    +0.000 A 
ATOM      9  C   UNL     1       0.578   3.901  20.489  0.00  0.00    +0.000 A 
ATOM     10  C   UNL     1       1.454   4.601  19.611  0.00  0.00    +0.000 A 
ATOM     11  C   UNL     1       2.837   4.239  19.486  0.00  0.00    +0.000 A 
ATOM     12  C   UNL     1       6.532   4.406  18.705  0.00  0.00    +0.000 C 
ATOM     13  N   UNL     1       6.645   5.884  18.707  0.00  0.00    +0.000 NA
ATOM     14  H   UNL     1       6.212   6.221  19.569  0.00  0.00    +0.000 HD
ENDROOT
BRANCH   1  16
ATOM     15  O   UNL     1       7.810   6.406  16.033  0.00  0.00    +0.000 OA
ATOM     16  C   UNL     1       6.689   5.949  16.256  0.00  0.00    +0.000 C 
ATOM     17  N   UNL     1       5.981   5.025  15.434  0.00  0.00    +0.000 N 
ATOM     18  H   UNL     1       5.082   4.750  15.824  0.00  0.00    +0.000 HD
BRANCH  17  19
ATOM     19  C   UNL     1       6.224   4.574  14.096  0.00  0.00    +0.000 A 
ATOM     20  C   UNL     1       5.465   3.605  13.445  0.00  0.00    +0.000 A 
ATOM     21  C   UNL     1       5.815   3.158  12.150  0.00  0.00    +0.000 A 
ATOM     22  C   UNL     1       6.905   3.675  11.470  0.00  0.00    +0.000 A 
ATOM     23  C   UNL     1       7.669   4.654  12.091  0.00  0.00    +0.000 A 
ATOM     24  C   UNL     1       7.336   5.093  13.387  0.00  0.00    +0.000 A 
ENDBRANCH  17  19
ENDBRANCH   1  16
TORSDOF 2
ENDMDL
MODEL 7
REMARK VINA RESULT:      -7.5      4.662      6.531
REMARK  Name = 
REMARK  2 active torsions:
REMARK  status: ('A' for Active; 'I' for Inactive)
REMARK    1  A    between atoms: C_2  and  C_10
REMARK    2  A    between atoms: N_3  and  C_4
REMARK                            x       y       z     vdW  Elec       q    Type
REMARK                         _______ _______ _______ _____ _____    ______ ____
ROOT
ATOM      1  C   UNL     1       7.739   6.202  18.513  0.00  0.00    +0.000 C 
ATOM      2  C   UNL     1       6.492   5.631  19.389  0.00  0.00    +0.000 C 
ATOM      3  C   UNL     1       5.410   4.875  18.545  0.00  0.00    +0.000 A 
ATOM      4  C   UNL     1       5.529   4.989  17.166  0.00  0.00    +0.000 A 
ATOM      5  S   UNL     1       4.333   4.218  16.282  0.00  0.00    +0.000 S 
ATOM      6  C   UNL     1       3.672   3.491  17.680  0.00  0.00    +0.000 A 
ATOM      7  C   UNL     1       2.618   2.549  17.633  0.00  0.00    +0.000 A 
ATOM      8  C   UNL     1       2.136   2.000  18.809  0.00  0.00    +0.000 A 
ATOM      9  C   UNL     1       2.693   2.401  20.015  0.00  0.00    +0.000 A 
ATOM     10  C   UNL     1       3.756   3.348  20.062  0.00  0.00    +0.000 A 
ATOM     11  C   UNL     1       4.297   3.927  18.866  0.00  0.00    +0.000 A 
ATOM     12  C   UNL     1       6.634   5.688  16.474  0.00  0.00    +0.000 C 
ATOM     13  N   UNL     1       7.882   5.445  17.236  0.00  0.00    +0.000 NA
ATOM     14  H   UNL     1       7.913   4.447  17.459  0.00  0.00    +0.000 HD
ENDROOT
BRANCH   1  16
ATOM     15  O   UNL     1       7.471   8.182  17.003  0.00  0.00    +0.000 OA
ATOM     16  C   UNL     1       7.898   7.749  18.074  0.00  0.00    +0.000 C 
ATOM     17  N   UNL     1       8.589   8.501  19.067  0.00  0.00    +0.000 N 
ATOM     18  H   UNL     1       8.821   7.955  19.894  0.00  0.00    +0.000 HD
BRANCH  17  19
ATOM     19  C   UNL     1       9.167   9.812  19.025  0.00  0.00    +0.000 A 
ATOM     20  C   UNL     1       9.470  10.498  17.852  0.00  0.00    +0.000 A 
ATOM     21  C   UNL     1      10.110  11.758  17.892  0.00  0.00    +0.000 A 
ATOM     22  C   UNL     1      10.441  12.369  19.090  0.00  0.00    +0.000 A 
ATOM     23  C   UNL     1      10.136  11.713  20.274  0.00  0.00    +0.000 A 
ATOM     24  C   UNL     1       9.512  10.450  20.242  0.00  0.00    +0.000 A 
ENDBRANCH  17  19
ENDBRANCH   1  16
TORSDOF 2
ENDMDL
MODEL 8
REMARK VINA RESULT:      -7.4      4.458      6.318
REMARK  Name = 
REMARK  2 active torsions:
REMARK  status: ('A' for Active; 'I' for Inactive)
REMARK    1  A    between atoms: C_2  and  C_10
REMARK    2  A    between atoms: N_3  and  C_4
REMARK                            x       y       z     vdW  Elec       q    Type
REMARK                         _______ _______ _______ _____ _____    ______ ____
ROOT
ATOM      1  C   UNL     1       7.661   5.838  18.564  0.00  0.00    +0.000 C 
ATOM      2  C   UNL     1       6.315   5.484  19.407  0.00  0.00    +0.000 C 
ATOM      3  C   UNL     1       5.263   4.642  18.608  0.00  0.00    +0.000 A 
ATOM      4  C   UNL     1       5.501   4.509  17.247  0.00  0.00    +0.000 A 
ATOM      5  S   UNL     1       4.337   3.650  16.401  0.00  0.00    +0.000 S 
ATOM      6  C   UNL     1       3.522   3.207  17.836  0.00  0.00    +0.000 A 
ATOM      7  C   UNL     1       2.421   2.319  17.854  0.00  0.00    +0.000 A 
ATOM      8  C   UNL     1       1.814   2.004  19.058  0.00  0.00    +0.000 A 
ATOM      9  C   UNL     1       2.293   2.583  20.223  0.00  0.00    +0.000 A 
ATOM     10  C   UNL     1       3.403   3.475  20.206  0.00  0.00    +0.000 A 
ATOM     11  C   UNL     1       4.073   3.815  18.983  0.00  0.00    +0.000 A 
ATOM     12  C   UNL     1       6.698   5.028  16.549  0.00  0.00    +0.000 C 
ATOM     13  N   UNL     1       7.862   4.866  17.450  0.00  0.00    +0.000 NA
ATOM     14  H   UNL     1       7.816   3.922  17.841  0.00  0.00    +0.000 HD
ENDROOT
BRANCH   1  16
ATOM     15  O   UNL     1       7.911   7.456  16.668  0.00  0.00    +0.000 OA
ATOM     16  C   UNL     1       7.946   7.277  17.885  0.00  0.00    +0.000 C 
ATOM     17  N   UNL     1       8.244   8.264  18.869  0.00  0.00    +0.000 N 
ATOM     18  H   UNL     1       8.183   7.911  19.821  0.00  0.00    +0.000 HD
BRANCH  17  19
ATOM     19  C   UNL     1       8.789   9.584  18.747  0.00  0.00    +0.000 A 
ATOM     20  C   UNL     1       9.814  10.086  19.544  0.00  0.00    +0.000 A 
ATOM     21  C   UNL     1      10.246  11.426  19.412  0.00  0.00    +0.000 A 
ATOM     22  C   UNL     1       9.687  12.284  18.479  0.00  0.00    +0.000 A 
ATOM     23  C   UNL     1       8.674  11.803  17.662  0.00  0.00    +0.000 A 
ATOM     24  C   UNL     1       8.228  10.473  17.797  0.00  0.00    +0.000 A 
ENDBRANCH  17  19
ENDBRANCH   1  16
TORSDOF 2
ENDMDL
MODEL 9
REMARK VINA RESULT:      -7.3      2.380      8.117
REMARK  Name = 
REMARK  2 active torsions:
REMARK  status: ('A' for Active; 'I' for Inactive)
REMARK    1  A    between atoms: C_2  and  C_10
REMARK    2  A    between atoms: N_3  and  C_4
REMARK                            x       y       z     vdW  Elec       q    Type
REMARK                         _______ _______ _______ _____ _____    ______ ____
ROOT
ATOM      1  C   UNL     1       2.334   5.707  19.394  0.00  0.00    +0.000 C 
ATOM      2  C   UNL     1       1.896   6.478  20.759  0.00  0.00    +0.000 C 
ATOM      3  C   UNL     1       1.462   7.968  20.541  0.00  0.00    +0.000 A 
ATOM      4  C   UNL     1       1.723   8.497  19.284  0.00  0.00    +0.000 A 
ATOM      5  S   UNL     1       1.300  10.107  19.087  0.00  0.00    +0.000 S 
ATOM      6  C   UNL     1       0.538  10.165  20.616  0.00  0.00    +0.000 A 
ATOM      7  C   UNL     1      -0.182  11.292  21.075  0.00  0.00    +0.000 A 
ATOM      8  C   UNL     1      -0.776  11.264  22.325  0.00  0.00    +0.000 A 
ATOM      9  C   UNL     1      -0.636  10.128  23.109  0.00  0.00    +0.000 A 
ATOM     10  C   UNL     1       0.086   8.992  22.646  0.00  0.00    +0.000 A 
ATOM     11  C   UNL     1       0.702   8.972  21.350  0.00  0.00    +0.000 A 
ATOM     12  C   UNL     1       2.288   7.732  18.151  0.00  0.00    +0.000 C 
ATOM     13  N   UNL     1       1.728   6.361  18.197  0.00  0.00    +0.000 NA
ATOM     14  H   UNL     1       0.722   6.448  18.357  0.00  0.00    +0.000 HD
ENDROOT
BRANCH   1  16
ATOM     15  O   UNL     1       4.809   5.569  19.746  0.00  0.00    +0.000 OA
ATOM     16  C   UNL     1       3.868   5.440  18.963  0.00  0.00    +0.000 C 
ATOM     17  N   UNL     1       3.963   5.062  17.592  0.00  0.00    +0.000 N 
ATOM     18  H   UNL     1       3.057   4.981  17.136  0.00  0.00    +0.000 HD
BRANCH  17  19
ATOM     19  C   UNL     1       5.093   4.966  16.717  0.00  0.00    +0.000 A 
ATOM     20  C   UNL     1       6.234   5.758  16.818  0.00  0.00    +0.000 A 
ATOM     21  C   UNL     1       7.276   5.655  15.869  0.00  0.00    +0.000 A 
ATOM     22  C   UNL     1       7.219   4.755  14.818  0.00  0.00    +0.000 A 
ATOM     23  C   UNL     1       6.099   3.942  14.703  0.00  0.00    +0.000 A 
ATOM     24  C   UNL     1       5.049   4.050  15.636  0.00  0.00    +0.000 A 
ENDBRANCH  17  19
ENDBRANCH   1  16
TORSDOF 2
ENDMDL
