MODEL 1
REMARK VINA RESULT:      -7.5      0.000      0.000
REMARK  Name = 
REMARK  9 active torsions:
REMARK  status: ('A' for Active; 'I' for Inactive)
REMARK    1  A    between atoms: C_1  and  C_2
REMARK    2  A    between atoms: C_2  and  S_3
REMARK    3  A    between atoms: S_3  and  N_6
REMARK    4  A    between atoms: N_6  and  C_7
REMARK    5  A    between atoms: C_10  and  C_11
REMARK    6  A    between atoms: N_13  and  S_14
REMARK    7  A    between atoms: S_14  and  C_17
REMARK    8  A    between atoms: C_17  and  C_18
REMARK    9  A    between atoms: C_19  and  C_20
REMARK                            x       y       z     vdW  Elec       q    Type
REMARK                         _______ _______ _______ _____ _____    ______ ____
ROOT
ATOM      1  C   UNL     1       2.993   6.571  19.257  0.00  0.00    +0.000 C 
ATOM      2  N   UNL     1       2.664   5.328  19.457  0.00  0.00    +0.000 NA
ATOM      3  N   UNL     1       3.770   4.548  18.977  0.00  0.00    +0.000 N 
ATOM      4  C   UNL     1       4.934   5.365  18.597  0.00  0.00    +0.000 C 
ATOM      5  C   UNL     1       4.363   6.792  18.657  0.00  0.00    +0.000 C 
ENDROOT
BRANCH   1   9
ATOM      6  C   UNL     1       0.241   9.734  20.131  0.00  0.00    +0.000 A 
ATOM      7  C   UNL     1       0.536   8.778  21.097  0.00  0.00    +0.000 A 
ATOM      8  C   UNL     1       1.448   7.755  20.807  0.00  0.00    +0.000 A 
ATOM      9  C   UNL     1       2.074   7.697  19.554  0.00  0.00    +0.000 A 
ATOM     10  C   UNL     1       1.787   8.678  18.598  0.00  0.00    +0.000 A 
ATOM     11  C   UNL     1       0.871   9.696  18.888  0.00  0.00    +0.000 A 
BRANCH   6  12
ATOM     12  N   UNL     1      -0.657  10.797  20.449  0.00  0.00    +0.000 N 
ATOM     13  H   UNL     1      -1.017  11.319  19.647  0.00  0.00    +0.000 HD
BRANCH  12  14
ATOM     14  S   UNL     1      -0.145  11.906  21.626  0.00  0.00    +0.000 S 
ATOM     15  O   UNL     1       1.221  12.224  21.268  0.00  0.00    +0.000 OA
ATOM     16  O   UNL     1      -0.476  11.403  22.942  0.00  0.00    +0.000 OA
BRANCH  14  18
ATOM     17  C   UNL     1      -2.383  12.934  20.443  0.00  0.00    +0.000 C 
ATOM     18  C   UNL     1      -1.166  13.329  21.254  0.00  0.00    +0.000 C 
ENDBRANCH  14  18
ENDBRANCH  12  14
ENDBRANCH   6  12
ENDBRANCH   1   9
BRANCH   4  19
ATOM     19  C   UNL     1       5.449   5.038  17.221  0.00  0.00    +0.000 A 
ATOM     20  C   UNL     1       4.778   5.008  16.012  0.00  0.00    +0.000 A 
ATOM     21  C   UNL     1       5.581   4.486  14.955  0.00  0.00    +0.000 A 
ATOM     22  C   UNL     1       6.858   4.194  15.374  0.00  0.00    +0.000 A 
ATOM     23  S   UNL     1       7.099   4.602  17.017  0.00  0.00    +0.000 S 
ENDBRANCH   4  19
BRANCH   3  24
ATOM     24  S   UNL     1       3.773   2.865  19.045  0.00  0.00    +0.000 S 
ATOM     25  O   UNL     1       3.643   2.359  17.692  0.00  0.00    +0.000 OA
ATOM     26  O   UNL     1       4.853   2.426  19.907  0.00  0.00    +0.000 OA
BRANCH  24  27
ATOM     27  C   UNL     1       2.242   2.506  19.908  0.00  0.00    +0.000 C 
ATOM     28  C   UNL     1       1.121   2.198  18.927  0.00  0.00    +0.000 C 
ENDBRANCH  24  27
ENDBRANCH   3  24
TORSDOF 7
ENDMDL
MODEL 2
REMARK VINA RESULT:      -7.5      0.800      1.373
REMARK  Name = 
REMARK  9 active torsions:
REMARK  status: ('A' for Active; 'I' for Inactive)
REMARK    1  A    between atoms: C_1  and  C_2
REMARK    2  A    between atoms: C_2  and  S_3
REMARK    3  A    between atoms: S_3  and  N_6
REMARK    4  A    between atoms: N_6  and  C_7
REMARK    5  A    between atoms: C_10  and  C_11
REMARK    6  A    between atoms: N_13  and  S_14
REMARK    7  A    between atoms: S_14  and  C_17
REMARK    8  A    between atoms: C_17  and  C_18
REMARK    9  A    between atoms: C_19  and  C_20
REMARK                            x       y       z     vdW  Elec       q    Type
REMARK                         _______ _______ _______ _____ _____    ______ ____
ROOT
ATOM      1  C   UNL     1       3.023   6.716  18.957  0.00  0.00    +0.000 C 
ATOM      2  N   UNL     1       2.726   5.480  19.231  0.00  0.00    +0.000 NA
ATOM      3  N   UNL     1       3.848   4.700  18.790  0.00  0.00    +0.000 N 
ATOM      4  C   UNL     1       4.989   5.522  18.355  0.00  0.00    +0.000 C 
ATOM      5  C   UNL     1       4.384   6.935  18.336  0.00  0.00    +0.000 C 
ENDROOT
BRANCH   1   9
ATOM      6  C   UNL     1       0.394  10.032  19.619  0.00  0.00    +0.000 A 
ATOM      7  C   UNL     1       0.971   9.836  18.368  0.00  0.00    +0.000 A 
ATOM      8  C   UNL     1       1.818   8.741  18.157  0.00  0.00    +0.000 A 
ATOM      9  C   UNL     1       2.078   7.836  19.195  0.00  0.00    +0.000 A 
ATOM     10  C   UNL     1       1.474   8.029  20.442  0.00  0.00    +0.000 A 
ATOM     11  C   UNL     1       0.632   9.128  20.652  0.00  0.00    +0.000 A 
BRANCH   6  12
ATOM     12  N   UNL     1      -0.502  11.127  19.813  0.00  0.00    +0.000 N 
ATOM     13  H   UNL     1      -0.964  11.467  18.967  0.00  0.00    +0.000 HD
BRANCH  12  14
ATOM     14  S   UNL     1       0.094  12.461  20.674  0.00  0.00    +0.000 S 
ATOM     15  O   UNL     1      -0.041  13.580  19.767  0.00  0.00    +0.000 OA
ATOM     16  O   UNL     1       1.373  12.125  21.263  0.00  0.00    +0.000 OA
BRANCH  14  18
ATOM     17  C   UNL     1      -1.113  11.450  22.907  0.00  0.00    +0.000 C 
ATOM     18  C   UNL     1      -1.133  12.638  21.967  0.00  0.00    +0.000 C 
ENDBRANCH  14  18
ENDBRANCH  12  14
ENDBRANCH   6  12
ENDBRANCH   1   9
BRANCH   4  19
ATOM     19  C   UNL     1       5.505   5.127  16.997  0.00  0.00    +0.000 A 
ATOM     20  C   UNL     1       4.854   5.114  15.776  0.00  0.00    +0.000 A 
ATOM     21  C   UNL     1       5.638   4.513  14.747  0.00  0.00    +0.000 A 
ATOM     22  C   UNL     1       6.885   4.147  15.197  0.00  0.00    +0.000 A 
ATOM     23  S   UNL     1       7.125   4.576  16.834  0.00  0.00    +0.000 S 
ENDBRANCH   4  19
BRANCH   3  24
ATOM     24  S   UNL     1       3.892   3.024  18.955  0.00  0.00    +0.000 S 
ATOM     25  O   UNL     1       3.765   2.438  17.635  0.00  0.00    +0.000 OA
ATOM     26  O   UNL     1       4.988   2.662  19.833  0.00  0.00    +0.000 OA
BRANCH  24  27
ATOM     27  C   UNL     1       2.376   2.680  19.850  0.00  0.00    +0.000 C 
ATOM     28  C   UNL     1       1.277   2.218  18.905  0.00  0.00    +0.000 C 
ENDBRANCH  24  27
ENDBRANCH   3  24
TORSDOF 7
ENDMDL
MODEL 3
REMARK VINA RESULT:      -7.4      1.218      1.741
REMARK  Name = 
REMARK  9 active torsions:
REMARK  status: ('A' for Active; 'I' for Inactive)
REMARK    1  A    between atoms: C_1  and  C_2
REMARK    2  A    between atoms: C_2  and  S_3
REMARK    3  A    between atoms: S_3  and  N_6
REMARK    4  A    between atoms: N_6  and  C_7
REMARK    5  A    between atoms: C_10  and  C_11
REMARK    6  A    between atoms: N_13  and  S_14
REMARK    7  A    between atoms: S_14  and  C_17
REMARK    8  A    between atoms: C_17  and  C_18
REMARK    9  A    between atoms: C_19  and  C_20
REMARK                            x       y       z     vdW  Elec       q    Type
REMARK                         _______ _______ _______ _____ _____    ______ ____
ROOT
ATOM      1  C   UNL     1       2.992   6.658  19.008  0.00  0.00    +0.000 C 
ATOM      2  N   UNL     1       2.655   5.433  19.288  0.00  0.00    +0.000 NA
ATOM      3  N   UNL     1       3.760   4.618  18.869  0.00  0.00    +0.000 N 
ATOM      4  C   UNL     1       4.931   5.403  18.444  0.00  0.00    +0.000 C 
ATOM      5  C   UNL     1       4.367   6.833  18.405  0.00  0.00    +0.000 C 
ENDROOT
BRANCH   1   9
ATOM      6  C   UNL     1       0.448  10.053  19.599  0.00  0.00    +0.000 A 
ATOM      7  C   UNL     1       0.985   9.792  18.342  0.00  0.00    +0.000 A 
ATOM      8  C   UNL     1       1.804   8.672  18.155  0.00  0.00    +0.000 A 
ATOM      9  C   UNL     1       2.076   7.806  19.224  0.00  0.00    +0.000 A 
ATOM     10  C   UNL     1       1.512   8.066  20.478  0.00  0.00    +0.000 A 
ATOM     11  C   UNL     1       0.698   9.189  20.663  0.00  0.00    +0.000 A 
BRANCH   6  12
ATOM     12  N   UNL     1      -0.420  11.174  19.771  0.00  0.00    +0.000 N 
ATOM     13  H   UNL     1      -1.040  11.370  18.982  0.00  0.00    +0.000 HD
BRANCH  12  14
ATOM     14  S   UNL     1       0.296  12.629  20.266  0.00  0.00    +0.000 S 
ATOM     15  O   UNL     1       1.502  12.232  20.961  0.00  0.00    +0.000 OA
ATOM     16  O   UNL     1      -0.697  13.465  20.907  0.00  0.00    +0.000 OA
BRANCH  14  18
ATOM     17  C   UNL     1       2.263  13.257  18.477  0.00  0.00    +0.000 C 
ATOM     18  C   UNL     1       0.768  13.355  18.698  0.00  0.00    +0.000 C 
ENDBRANCH  14  18
ENDBRANCH  12  14
ENDBRANCH   6  12
ENDBRANCH   1   9
BRANCH   4  19
ATOM     19  C   UNL     1       5.454   4.982  17.097  0.00  0.00    +0.000 A 
ATOM     20  C   UNL     1       4.785   4.849  15.893  0.00  0.00    +0.000 A 
ATOM     21  C   UNL     1       5.598   4.264  14.879  0.00  0.00    +0.000 A 
ATOM     22  C   UNL     1       6.880   4.029  15.319  0.00  0.00    +0.000 A 
ATOM     23  S   UNL     1       7.112   4.563  16.925  0.00  0.00    +0.000 S 
ENDBRANCH   4  19
BRANCH   3  24
ATOM     24  S   UNL     1       3.753   2.943  19.048  0.00  0.00    +0.000 S 
ATOM     25  O   UNL     1       3.553   2.351  17.739  0.00  0.00    +0.000 OA
ATOM     26  O   UNL     1       4.871   2.550  19.884  0.00  0.00    +0.000 OA
BRANCH  24  27
ATOM     27  C   UNL     1       2.264   2.658  20.006  0.00  0.00    +0.000 C 
ATOM     28  C   UNL     1       2.562   2.677  21.498  0.00  0.00    +0.000 C 
ENDBRANCH  24  27
ENDBRANCH   3  24
TORSDOF 7
ENDMDL
MODEL 4
REMARK VINA RESULT:      -7.3      2.371      3.608
REMARK  Name = 
REMARK  9 active torsions:
REMARK  status: ('A' for Active; 'I' for Inactive)
REMARK    1  A    between atoms: C_1  and  C_2
REMARK    2  A    between atoms: C_2  and  S_3
REMARK    3  A    between atoms: S_3  and  N_6
REMARK    4  A    between atoms: N_6  and  C_7
REMARK    5  A    between atoms: C_10  and  C_11
REMARK    6  A    between atoms: N_13  and  S_14
REMARK    7  A    between atoms: S_14  and  C_17
REMARK    8  A    between atoms: C_17  and  C_18
REMARK    9  A    between atoms: C_19  and  C_20
REMARK                            x       y       z     vdW  Elec       q    Type
REMARK                         _______ _______ _______ _____ _____    ______ ____
ROOT
ATOM      1  C   UNL     1       2.970   6.826  17.972  0.00  0.00    +0.000 C 
ATOM      2  N   UNL     1       4.174   6.867  17.479  0.00  0.00    +0.000 NA
ATOM      3  N   UNL     1       4.503   5.511  17.137  0.00  0.00    +0.000 N 
ATOM      4  C   UNL     1       3.367   4.586  17.282  0.00  0.00    +0.000 C 
ATOM      5  C   UNL     1       2.323   5.460  17.995  0.00  0.00    +0.000 C 
ENDROOT
BRANCH   1   9
ATOM      6  C   UNL     1       0.899  10.224  19.556  0.00  0.00    +0.000 A 
ATOM      7  C   UNL     1       1.042   9.073  20.323  0.00  0.00    +0.000 A 
ATOM      8  C   UNL     1       1.733   7.972  19.803  0.00  0.00    +0.000 A 
ATOM      9  C   UNL     1       2.292   8.028  18.518  0.00  0.00    +0.000 A 
ATOM     10  C   UNL     1       2.162   9.200  17.764  0.00  0.00    +0.000 A 
ATOM     11  C   UNL     1       1.466  10.297  18.285  0.00  0.00    +0.000 A 
BRANCH   6  12
ATOM     12  N   UNL     1       0.230  11.357  20.111  0.00  0.00    +0.000 N 
ATOM     13  H   UNL     1       0.084  11.324  21.122  0.00  0.00    +0.000 HD
BRANCH  12  14
ATOM     14  S   UNL     1      -1.223  11.826  19.372  0.00  0.00    +0.000 S 
ATOM     15  O   UNL     1      -0.828  12.740  18.322  0.00  0.00    +0.000 OA
ATOM     16  O   UNL     1      -2.177  12.219  20.386  0.00  0.00    +0.000 OA
BRANCH  14  18
ATOM     17  C   UNL     1      -2.136  10.509  17.160  0.00  0.00    +0.000 C 
ATOM     18  C   UNL     1      -1.755  10.295  18.610  0.00  0.00    +0.000 C 
ENDBRANCH  14  18
ENDBRANCH  12  14
ENDBRANCH   6  12
ENDBRANCH   1   9
BRANCH   4  19
ATOM     19  C   UNL     1       3.711   3.368  18.097  0.00  0.00    +0.000 A 
ATOM     20  C   UNL     1       3.525   2.028  17.804  0.00  0.00    +0.000 A 
ATOM     21  C   UNL     1       3.829   1.180  18.909  0.00  0.00    +0.000 A 
ATOM     22  C   UNL     1       4.299   1.891  19.989  0.00  0.00    +0.000 A 
ATOM     23  S   UNL     1       4.425   3.561  19.648  0.00  0.00    +0.000 S 
ENDBRANCH   4  19
BRANCH   3  24
ATOM     24  S   UNL     1       5.986   5.096  16.456  0.00  0.00    +0.000 S 
ATOM     25  O   UNL     1       5.883   3.745  15.940  0.00  0.00    +0.000 OA
ATOM     26  O   UNL     1       6.443   6.185  15.614  0.00  0.00    +0.000 OA
BRANCH  24  27
ATOM     27  C   UNL     1       7.072   5.051  17.882  0.00  0.00    +0.000 C 
ATOM     28  C   UNL     1       7.634   6.432  18.184  0.00  0.00    +0.000 C 
ENDBRANCH  24  27
ENDBRANCH   3  24
TORSDOF 7
ENDMDL
MODEL 5
REMARK VINA RESULT:      -7.3      2.233      3.498
REMARK  Name = 
REMARK  9 active torsions:
REMARK  status: ('A' for Active; 'I' for Inactive)
REMARK    1  A    between atoms: C_1  and  C_2
REMARK    2  A    between atoms: C_2  and  S_3
REMARK    3  A    between atoms: S_3  and  N_6
REMARK    4  A    between atoms: N_6  and  C_7
REMARK    5  A    between atoms: C_10  and  C_11
REMARK    6  A    between atoms: N_13  and  S_14
REMARK    7  A    between atoms: S_14  and  C_17
REMARK    8  A    between atoms: C_17  and  C_18
REMARK    9  A    between atoms: C_19  and  C_20
REMARK                            x       y       z     vdW  Elec       q    Type
REMARK                         _______ _______ _______ _____ _____    ______ ____
ROOT
ATOM      1  C   UNL     1       3.035   6.823  18.021  0.00  0.00    +0.000 C 
ATOM      2  N   UNL     1       4.270   6.881  17.615  0.00  0.00    +0.000 NA
ATOM      3  N   UNL     1       4.626   5.538  17.252  0.00  0.00    +0.000 N 
ATOM      4  C   UNL     1       3.486   4.608  17.285  0.00  0.00    +0.000 C 
ATOM      5  C   UNL     1       2.391   5.457  17.951  0.00  0.00    +0.000 C 
ENDROOT
BRANCH   1   9
ATOM      6  C   UNL     1       0.851  10.161  19.582  0.00  0.00    +0.000 A 
ATOM      7  C   UNL     1       1.064   9.034  20.370  0.00  0.00    +0.000 A 
ATOM      8  C   UNL     1       1.792   7.954  19.857  0.00  0.00    +0.000 A 
ATOM      9  C   UNL     1       2.316   8.005  18.557  0.00  0.00    +0.000 A 
ATOM     10  C   UNL     1       2.115   9.153  17.782  0.00  0.00    +0.000 A 
ATOM     11  C   UNL     1       1.382  10.229  18.296  0.00  0.00    +0.000 A 
BRANCH   6  12
ATOM     12  N   UNL     1       0.144  11.275  20.129  0.00  0.00    +0.000 N 
ATOM     13  H   UNL     1      -0.088  11.198  21.122  0.00  0.00    +0.000 HD
BRANCH  12  14
ATOM     14  S   UNL     1      -1.237  11.792  19.292  0.00  0.00    +0.000 S 
ATOM     15  O   UNL     1      -1.849  10.577  18.799  0.00  0.00    +0.000 OA
ATOM     16  O   UNL     1      -0.883  12.870  18.393  0.00  0.00    +0.000 OA
BRANCH  14  18
ATOM     17  C   UNL     1      -1.660  12.091  21.974  0.00  0.00    +0.000 C 
ATOM     18  C   UNL     1      -2.252  12.429  20.622  0.00  0.00    +0.000 C 
ENDBRANCH  14  18
ENDBRANCH  12  14
ENDBRANCH   6  12
ENDBRANCH   1   9
BRANCH   4  19
ATOM     19  C   UNL     1       3.775   3.363  18.081  0.00  0.00    +0.000 A 
ATOM     20  C   UNL     1       3.588   2.035  17.741  0.00  0.00    +0.000 A 
ATOM     21  C   UNL     1       3.827   1.153  18.835  0.00  0.00    +0.000 A 
ATOM     22  C   UNL     1       4.252   1.827  19.956  0.00  0.00    +0.000 A 
ATOM     23  S   UNL     1       4.414   3.504  19.670  0.00  0.00    +0.000 S 
ENDBRANCH   4  19
BRANCH   3  24
ATOM     24  S   UNL     1       6.155   5.147  16.663  0.00  0.00    +0.000 S 
ATOM     25  O   UNL     1       6.670   6.298  15.946  0.00  0.00    +0.000 OA
ATOM     26  O   UNL     1       6.924   4.518  17.720  0.00  0.00    +0.000 OA
BRANCH  24  27
ATOM     27  C   UNL     1       5.794   3.872  15.455  0.00  0.00    +0.000 C 
ATOM     28  C   UNL     1       6.324   4.254  14.082  0.00  0.00    +0.000 C 
ENDBRANCH  24  27
ENDBRANCH   3  24
TORSDOF 7
ENDMDL
MODEL 6
REMARK VINA RESULT:      -7.3      1.060      1.328
REMARK  Name = 
REMARK  9 active torsions:
REMARK  status: ('A' for Active; 'I' for Inactive)
REMARK    1  A    between atoms: C_1  and  C_2
REMARK    2  A    between atoms: C_2  and  S_3
REMARK    3  A    between atoms: S_3  and  N_6
REMARK    4  A    between atoms: N_6  and  C_7
REMARK    5  A    between atoms: C_10  and  C_11
REMARK    6  A    between atoms: N_13  and  S_14
REMARK    7  A    between atoms: S_14  and  C_17
REMARK    8  A    between atoms: C_17  and  C_18
REMARK    9  A    between atoms: C_19  and  C_20
REMARK                            x       y       z     vdW  Elec       q    Type
REMARK                         _______ _______ _______ _____ _____    ______ ____
ROOT
ATOM      1  C   UNL     1       2.991   6.827  18.792  0.00  0.00    +0.000 C 
ATOM      2  N   UNL     1       2.675   5.607  19.112  0.00  0.00    +0.000 NA
ATOM      3  N   UNL     1       3.793   4.797  18.719  0.00  0.00    +0.000 N 
ATOM      4  C   UNL     1       4.950   5.587  18.267  0.00  0.00    +0.000 C 
ATOM      5  C   UNL     1       4.362   7.005  18.181  0.00  0.00    +0.000 C 
ENDROOT
BRANCH   1   9
ATOM      6  C   UNL     1       0.200  10.029  19.349  0.00  0.00    +0.000 A 
ATOM      7  C   UNL     1       0.618   9.268  20.437  0.00  0.00    +0.000 A 
ATOM      8  C   UNL     1       1.541   8.233  20.248  0.00  0.00    +0.000 A 
ATOM      9  C   UNL     1       2.056   7.966  18.971  0.00  0.00    +0.000 A 
ATOM     10  C   UNL     1       1.646   8.752  17.888  0.00  0.00    +0.000 A 
ATOM     11  C   UNL     1       0.719   9.783  18.079  0.00  0.00    +0.000 A 
BRANCH   6  12
ATOM     12  N   UNL     1      -0.710  11.110  19.558  0.00  0.00    +0.000 N 
ATOM     13  H   UNL     1      -1.557  11.082  18.987  0.00  0.00    +0.000 HD
BRANCH  12  14
ATOM     14  S   UNL     1      -0.065  12.677  19.490  0.00  0.00    +0.000 S 
ATOM     15  O   UNL     1      -0.366  13.145  18.154  0.00  0.00    +0.000 OA
ATOM     16  O   UNL     1       1.293  12.664  19.990  0.00  0.00    +0.000 OA
BRANCH  14  18
ATOM     17  C   UNL     1      -2.180  12.641  21.219  0.00  0.00    +0.000 C 
ATOM     18  C   UNL     1      -1.119  13.555  20.641  0.00  0.00    +0.000 C 
ENDBRANCH  14  18
ENDBRANCH  12  14
ENDBRANCH   6  12
ENDBRANCH   1   9
BRANCH   4  19
ATOM     19  C   UNL     1       5.479   5.131  16.933  0.00  0.00    +0.000 A 
ATOM     20  C   UNL     1       4.839   5.061  15.708  0.00  0.00    +0.000 A 
ATOM     21  C   UNL     1       5.633   4.415  14.715  0.00  0.00    +0.000 A 
ATOM     22  C   UNL     1       6.877   4.071  15.193  0.00  0.00    +0.000 A 
ATOM     23  S   UNL     1       7.101   4.576  16.810  0.00  0.00    +0.000 S 
ENDBRANCH   4  19
BRANCH   3  24
ATOM     24  S   UNL     1       3.815   3.129  18.953  0.00  0.00    +0.000 S 
ATOM     25  O   UNL     1       3.646   2.490  17.662  0.00  0.00    +0.000 OA
ATOM     26  O   UNL     1       4.927   2.785  19.817  0.00  0.00    +0.000 OA
BRANCH  24  27
ATOM     27  C   UNL     1       2.317   2.847  19.898  0.00  0.00    +0.000 C 
ATOM     28  C   UNL     1       2.615   2.782  21.388  0.00  0.00    +0.000 C 
ENDBRANCH  24  27
ENDBRANCH   3  24
TORSDOF 7
ENDMDL
MODEL 7
REMARK VINA RESULT:      -7.3      2.116      3.582
REMARK  Name = 
REMARK  9 active torsions:
REMARK  status: ('A' for Active; 'I' for Inactive)
REMARK    1  A    between atoms: C_1  and  C_2
REMARK    2  A    between atoms: C_2  and  S_3
REMARK    3  A    between atoms: S_3  and  N_6
REMARK    4  A    between atoms: N_6  and  C_7
REMARK    5  A    between atoms: C_10  and  C_11
REMARK    6  A    between atoms: N_13  and  S_14
REMARK    7  A    between atoms: S_14  and  C_17
REMARK    8  A    between atoms: C_17  and  C_18
REMARK    9  A    between atoms: C_19  and  C_20
REMARK                            x       y       z     vdW  Elec       q    Type
REMARK                         _______ _______ _______ _____ _____    ______ ____
ROOT
ATOM      1  C   UNL     1       2.669   6.988  18.176  0.00  0.00    +0.000 C 
ATOM      2  N   UNL     1       3.862   7.129  17.677  0.00  0.00    +0.000 NA
ATOM      3  N   UNL     1       4.269   5.818  17.258  0.00  0.00    +0.000 N 
ATOM      4  C   UNL     1       3.194   4.817  17.360  0.00  0.00    +0.000 C 
ATOM      5  C   UNL     1       2.106   5.586  18.128  0.00  0.00    +0.000 C 
ENDROOT
BRANCH   1   9
ATOM      6  C   UNL     1       0.618  10.318  19.924  0.00  0.00    +0.000 A 
ATOM      7  C   UNL     1       0.894  10.304  18.560  0.00  0.00    +0.000 A 
ATOM      8  C   UNL     1       1.552   9.205  17.995  0.00  0.00    +0.000 A 
ATOM      9  C   UNL     1       1.924   8.114  18.793  0.00  0.00    +0.000 A 
ATOM     10  C   UNL     1       1.620   8.128  20.159  0.00  0.00    +0.000 A 
ATOM     11  C   UNL     1       0.967   9.230  20.722  0.00  0.00    +0.000 A 
BRANCH   6  12
ATOM     12  N   UNL     1      -0.091  11.424  20.484  0.00  0.00    +0.000 N 
ATOM     13  H   UNL     1      -0.980  11.646  20.030  0.00  0.00    +0.000 HD
BRANCH  12  14
ATOM     14  S   UNL     1       0.779  12.863  20.696  0.00  0.00    +0.000 S 
ATOM     15  O   UNL     1       0.561  13.613  19.477  0.00  0.00    +0.000 OA
ATOM     16  O   UNL     1       2.117  12.557  21.156  0.00  0.00    +0.000 OA
BRANCH  14  18
ATOM     17  C   UNL     1      -1.019  12.660  22.742  0.00  0.00    +0.000 C 
ATOM     18  C   UNL     1      -0.141  13.655  22.012  0.00  0.00    +0.000 C 
ENDBRANCH  14  18
ENDBRANCH  12  14
ENDBRANCH   6  12
ENDBRANCH   1   9
BRANCH   4  19
ATOM     19  C   UNL     1       3.620   3.580  18.104  0.00  0.00    +0.000 A 
ATOM     20  C   UNL     1       3.433   2.248  17.780  0.00  0.00    +0.000 A 
ATOM     21  C   UNL     1       3.837   1.370  18.828  0.00  0.00    +0.000 A 
ATOM     22  C   UNL     1       4.379   2.053  19.892  0.00  0.00    +0.000 A 
ATOM     23  S   UNL     1       4.449   3.736  19.601  0.00  0.00    +0.000 S 
ENDBRANCH   4  19
BRANCH   3  24
ATOM     24  S   UNL     1       5.768   5.533  16.544  0.00  0.00    +0.000 S 
ATOM     25  O   UNL     1       5.908   4.103  16.345  0.00  0.00    +0.000 OA
ATOM     26  O   UNL     1       5.955   6.462  15.447  0.00  0.00    +0.000 OA
BRANCH  24  27
ATOM     27  C   UNL     1       6.914   6.016  17.835  0.00  0.00    +0.000 C 
ATOM     28  C   UNL     1       7.515   7.384  17.548  0.00  0.00    +0.000 C 
ENDBRANCH  24  27
ENDBRANCH   3  24
TORSDOF 7
ENDMDL
MODEL 8
REMARK VINA RESULT:      -7.3      1.582      1.973
REMARK  Name = 
REMARK  9 active torsions:
REMARK  status: ('A' for Active; 'I' for Inactive)
REMARK    1  A    between atoms: C_1  and  C_2
REMARK    2  A    between atoms: C_2  and  S_3
REMARK    3  A    between atoms: S_3  and  N_6
REMARK    4  A    between atoms: N_6  and  C_7
REMARK    5  A    between atoms: C_10  and  C_11
REMARK    6  A    between atoms: N_13  and  S_14
REMARK    7  A    between atoms: S_14  and  C_17
REMARK    8  A    between atoms: C_17  and  C_18
REMARK    9  A    between atoms: C_19  and  C_20
REMARK                            x       y       z     vdW  Elec       q    Type
REMARK                         _______ _______ _______ _____ _____    ______ ____
ROOT
ATOM      1  C   UNL     1       3.029   6.809  18.834  0.00  0.00    +0.000 C 
ATOM      2  N   UNL     1       2.679   5.591  19.127  0.00  0.00    +0.000 NA
ATOM      3  N   UNL     1       3.777   4.760  18.722  0.00  0.00    +0.000 N 
ATOM      4  C   UNL     1       4.957   5.527  18.291  0.00  0.00    +0.000 C 
ATOM      5  C   UNL     1       4.408   6.962  18.232  0.00  0.00    +0.000 C 
ENDROOT
BRANCH   1   9
ATOM      6  C   UNL     1       0.521  10.237  19.382  0.00  0.00    +0.000 A 
ATOM      7  C   UNL     1       1.106   9.990  18.145  0.00  0.00    +0.000 A 
ATOM      8  C   UNL     1       1.913   8.859  17.970  0.00  0.00    +0.000 A 
ATOM      9  C   UNL     1       2.125   7.969  19.033  0.00  0.00    +0.000 A 
ATOM     10  C   UNL     1       1.512   8.215  20.267  0.00  0.00    +0.000 A 
ATOM     11  C   UNL     1       0.711   9.349  20.439  0.00  0.00    +0.000 A 
BRANCH   6  12
ATOM     12  N   UNL     1      -0.335  11.370  19.539  0.00  0.00    +0.000 N 
ATOM     13  H   UNL     1      -0.582  11.599  20.504  0.00  0.00    +0.000 HD
BRANCH  12  14
ATOM     14  S   UNL     1      -1.747  11.398  18.600  0.00  0.00    +0.000 S 
ATOM     15  O   UNL     1      -2.192  10.022  18.556  0.00  0.00    +0.000 OA
ATOM     16  O   UNL     1      -1.506  12.146  17.385  0.00  0.00    +0.000 OA
BRANCH  14  18
ATOM     17  C   UNL     1      -2.342  12.396  21.073  0.00  0.00    +0.000 C 
ATOM     18  C   UNL     1      -2.868  12.314  19.655  0.00  0.00    +0.000 C 
ENDBRANCH  14  18
ENDBRANCH  12  14
ENDBRANCH   6  12
ENDBRANCH   1   9
BRANCH   4  19
ATOM     19  C   UNL     1       5.479   5.085  16.950  0.00  0.00    +0.000 A 
ATOM     20  C   UNL     1       4.830   5.013  15.730  0.00  0.00    +0.000 A 
ATOM     21  C   UNL     1       5.623   4.382  14.727  0.00  0.00    +0.000 A 
ATOM     22  C   UNL     1       6.874   4.051  15.192  0.00  0.00    +0.000 A 
ATOM     23  S   UNL     1       7.107   4.550  16.810  0.00  0.00    +0.000 S 
ENDBRANCH   4  19
BRANCH   3  24
ATOM     24  S   UNL     1       3.752   3.087  18.921  0.00  0.00    +0.000 S 
ATOM     25  O   UNL     1       3.542   2.481  17.620  0.00  0.00    +0.000 OA
ATOM     26  O   UNL     1       4.868   2.692  19.759  0.00  0.00    +0.000 OA
BRANCH  24  27
ATOM     27  C   UNL     1       2.263   2.830  19.886  0.00  0.00    +0.000 C 
ATOM     28  C   UNL     1       1.114   2.363  19.005  0.00  0.00    +0.000 C 
ENDBRANCH  24  27
ENDBRANCH   3  24
TORSDOF 7
ENDMDL
MODEL 9
REMARK VINA RESULT:      -7.2      1.950      3.316
REMARK  Name = 
REMARK  9 active torsions:
REMARK  status: ('A' for Active; 'I' for Inactive)
REMARK    1  A    between atoms: C_1  and  C_2
REMARK    2  A    between atoms: C_2  and  S_3
REMARK    3  A    between atoms: S_3  and  N_6
REMARK    4  A    between atoms: N_6  and  C_7
REMARK    5  A    between atoms: C_10  and  C_11
REMARK    6  A    between atoms: N_13  and  S_14
REMARK    7  A    between atoms: S_14  and  C_17
REMARK    8  A    between atoms: C_17  and  C_18
REMARK    9  A    between atoms: C_19  and  C_20
REMARK                            x       y       z     vdW  Elec       q    Type
REMARK                         _______ _______ _______ _____ _____    ______ ____
ROOT
ATOM      1  C   UNL     1       2.974   6.784  18.147  0.00  0.00    +0.000 C 
ATOM      2  N   UNL     1       4.237   6.887  17.855  0.00  0.00    +0.000 NA
ATOM      3  N   UNL     1       4.656   5.573  17.456  0.00  0.00    +0.000 N 
ATOM      4  C   UNL     1       3.541   4.620  17.341  0.00  0.00    +0.000 C 
ATOM      5  C   UNL     1       2.372   5.411  17.951  0.00  0.00    +0.000 C 
ENDROOT
BRANCH   1   9
ATOM      6  C   UNL     1       0.591   9.982  19.709  0.00  0.00    +0.000 A 
ATOM      7  C   UNL     1       0.990   8.938  20.537  0.00  0.00    +0.000 A 
ATOM      8  C   UNL     1       1.781   7.904  20.022  0.00  0.00    +0.000 A 
ATOM      9  C   UNL     1       2.182   7.921  18.679  0.00  0.00    +0.000 A 
ATOM     10  C   UNL     1       1.795   8.988  17.860  0.00  0.00    +0.000 A 
ATOM     11  C   UNL     1       1.000  10.017  18.377  0.00  0.00    +0.000 A 
BRANCH   6  12
ATOM     12  N   UNL     1      -0.180  11.053  20.253  0.00  0.00    +0.000 N 
ATOM     13  H   UNL     1      -1.030  11.285  19.736  0.00  0.00    +0.000 HD
BRANCH  12  14
ATOM     14  S   UNL     1       0.647  12.492  20.601  0.00  0.00    +0.000 S 
ATOM     15  O   UNL     1       0.494  13.305  19.413  0.00  0.00    +0.000 OA
ATOM     16  O   UNL     1       1.958  12.182  21.131  0.00  0.00    +0.000 OA
BRANCH  14  18
ATOM     17  C   UNL     1      -1.034  12.111  22.720  0.00  0.00    +0.000 C 
ATOM     18  C   UNL     1      -0.371  13.195  21.895  0.00  0.00    +0.000 C 
ENDBRANCH  14  18
ENDBRANCH  12  14
ENDBRANCH   6  12
ENDBRANCH   1   9
BRANCH   4  19
ATOM     19  C   UNL     1       3.790   3.340  18.094  0.00  0.00    +0.000 A 
ATOM     20  C   UNL     1       3.635   2.029  17.681  0.00  0.00    +0.000 A 
ATOM     21  C   UNL     1       3.815   1.097  18.745  0.00  0.00    +0.000 A 
ATOM     22  C   UNL     1       4.164   1.720  19.921  0.00  0.00    +0.000 A 
ATOM     23  S   UNL     1       4.329   3.409  19.724  0.00  0.00    +0.000 S 
ENDBRANCH   4  19
BRANCH   3  24
ATOM     24  S   UNL     1       6.239   5.245  16.984  0.00  0.00    +0.000 S 
ATOM     25  O   UNL     1       6.782   6.438  16.364  0.00  0.00    +0.000 OA
ATOM     26  O   UNL     1       6.933   4.587  18.074  0.00  0.00    +0.000 OA
BRANCH  24  27
ATOM     27  C   UNL     1       6.016   4.017  15.695  0.00  0.00    +0.000 C 
ATOM     28  C   UNL     1       6.363   4.589  14.329  0.00  0.00    +0.000 C 
ENDBRANCH  24  27
ENDBRANCH   3  24
TORSDOF 7
ENDMDL
