MODEL 1
REMARK VINA RESULT:      -7.6      0.000      0.000
REMARK  Name = 
REMARK  10 active torsions:
REMARK  status: ('A' for Active; 'I' for Inactive)
REMARK    1  A    between atoms: C_1  and  C_2
REMARK    2  A    between atoms: C_2  and  C_3
REMARK    3  A    between atoms: C_3  and  N_4
REMARK    4  A    between atoms: C_5  and  C_6
REMARK    5  A    between atoms: C_6  and  C_7
REMARK    6  A    between atoms: C_7  and  C_8
REMARK    7  A    between atoms: N_10  and  C_11
REMARK    8  A    between atoms: C_14  and  O_15
REMARK    9  A    between atoms: O_15  and  C_16
REMARK   10  A    between atoms: C_16  and  C_17
REMARK                            x       y       z     vdW  Elec       q    Type
REMARK                         _______ _______ _______ _____ _____    ______ ____
ROOT
ATOM      1  C   UNL     1       3.505   3.626  17.648  0.00  0.00    +0.000 C 
ENDROOT
BRANCH   1   2
ATOM      2  C   UNL     1       2.557   4.732  18.100  0.00  0.00    +0.000 C 
ATOM      3  O   UNL     1       1.432   4.431  18.493  0.00  0.00    +0.000 OA
ATOM      4  N   UNL     1       3.047   6.020  18.008  0.00  0.00    +0.000 N 
ATOM      5  H   UNL     1       3.908   6.174  17.508  0.00  0.00    +0.000 HD
BRANCH   4   6
ATOM      6  C   UNL     1       2.449   7.200  18.480  0.00  0.00    +0.000 A 
ATOM      7  C   UNL     1       2.124   8.288  17.673  0.00  0.00    +0.000 A 
ATOM      8  C   UNL     1       1.501   9.409  18.226  0.00  0.00    +0.000 A 
ATOM      9  C   UNL     1       1.184   9.448  19.583  0.00  0.00    +0.000 A 
ATOM     10  C   UNL     1       1.520   8.369  20.397  0.00  0.00    +0.000 A 
ATOM     11  C   UNL     1       2.141   7.247  19.845  0.00  0.00    +0.000 A 
BRANCH   9  12
ATOM     12  O   UNL     1       0.584  10.596  20.017  0.00  0.00    +0.000 OA
BRANCH  12  13
ATOM     13  C   UNL     1       0.681  10.839  21.420  0.00  0.00    +0.000 C 
ATOM     14  C   UNL     1      -0.726  11.014  21.959  0.00  0.00    +0.000 C 
ENDBRANCH  12  13
ENDBRANCH   9  12
ENDBRANCH   4   6
ENDBRANCH   1   2
BRANCH   1  15
ATOM     15  C   UNL     1       4.990   3.964  17.698  0.00  0.00    +0.000 C 
BRANCH  15  17
ATOM     16  N   UNL     1       6.652   5.036  16.109  0.00  0.00    +0.000 N 
ATOM     17  C   UNL     1       5.589   4.186  16.352  0.00  0.00    +0.000 A 
ATOM     18  N   UNL     1       5.221   3.561  15.249  0.00  0.00    +0.000 NA
ATOM     19  C   UNL     1       6.074   3.998  14.272  0.00  0.00    +0.000 A 
ATOM     20  C   UNL     1       6.166   3.675  12.917  0.00  0.00    +0.000 A 
ATOM     21  C   UNL     1       7.173   4.301  12.180  0.00  0.00    +0.000 A 
ATOM     22  C   UNL     1       8.025   5.195  12.821  0.00  0.00    +0.000 A 
ATOM     23  N   UNL     1       7.981   5.536  14.131  0.00  0.00    +0.000 NA
ATOM     24  C   UNL     1       6.985   4.908  14.787  0.00  0.00    +0.000 A 
BRANCH  16  25
ATOM     25  C   UNL     1       7.364   5.875  17.053  0.00  0.00    +0.000 C 
BRANCH  25  27
ATOM     26  C   UNL     1       7.765   8.318  17.668  0.00  0.00    +0.000 C 
ATOM     27  C   UNL     1       6.748   7.259  17.272  0.00  0.00    +0.000 C 
ENDBRANCH  25  27
ENDBRANCH  16  25
ENDBRANCH  15  17
ENDBRANCH   1  15
TORSDOF 8
ENDMDL
MODEL 2
REMARK VINA RESULT:      -7.5      4.408      6.853
REMARK  Name = 
REMARK  10 active torsions:
REMARK  status: ('A' for Active; 'I' for Inactive)
REMARK    1  A    between atoms: C_1  and  C_2
REMARK    2  A    between atoms: C_2  and  C_3
REMARK    3  A    between atoms: C_3  and  N_4
REMARK    4  A    between atoms: C_5  and  C_6
REMARK    5  A    between atoms: C_6  and  C_7
REMARK    6  A    between atoms: C_7  and  C_8
REMARK    7  A    between atoms: N_10  and  C_11
REMARK    8  A    between atoms: C_14  and  O_15
REMARK    9  A    between atoms: O_15  and  C_16
REMARK   10  A    between atoms: C_16  and  C_17
REMARK                            x       y       z     vdW  Elec       q    Type
REMARK                         _______ _______ _______ _____ _____    ______ ____
ROOT
ATOM      1  C   UNL     1       7.858   6.381  18.827  0.00  0.00    +0.000 C 
ENDROOT
BRANCH   1   2
ATOM      2  C   UNL     1       8.119   7.750  18.209  0.00  0.00    +0.000 C 
ATOM      3  O   UNL     1       7.774   7.957  17.047  0.00  0.00    +0.000 OA
ATOM      4  N   UNL     1       8.762   8.665  19.020  0.00  0.00    +0.000 N 
ATOM      5  H   UNL     1       9.161   8.344  19.887  0.00  0.00    +0.000 HD
BRANCH   4   6
ATOM      6  C   UNL     1       8.998  10.025  18.758  0.00  0.00    +0.000 A 
ATOM      7  C   UNL     1       8.318  10.763  17.793  0.00  0.00    +0.000 A 
ATOM      8  C   UNL     1       8.599  12.121  17.623  0.00  0.00    +0.000 A 
ATOM      9  C   UNL     1       9.546  12.755  18.425  0.00  0.00    +0.000 A 
ATOM     10  C   UNL     1      10.239  12.018  19.382  0.00  0.00    +0.000 A 
ATOM     11  C   UNL     1       9.959  10.661  19.553  0.00  0.00    +0.000 A 
BRANCH   9  12
ATOM     12  O   UNL     1       9.745  14.082  18.167  0.00  0.00    +0.000 OA
BRANCH  12  13
ATOM     13  C   UNL     1       8.612  14.921  18.388  0.00  0.00    +0.000 C 
ATOM     14  C   UNL     1       8.714  15.480  19.794  0.00  0.00    +0.000 C 
ENDBRANCH  12  13
ENDBRANCH   9  12
ENDBRANCH   4   6
ENDBRANCH   1   2
BRANCH   1  15
ATOM     15  C   UNL     1       7.514   5.266  17.847  0.00  0.00    +0.000 C 
BRANCH  15  17
ATOM     16  N   UNL     1       5.141   4.665  17.182  0.00  0.00    +0.000 N 
ATOM     17  C   UNL     1       6.178   4.655  18.096  0.00  0.00    +0.000 A 
ATOM     18  N   UNL     1       5.845   3.985  19.183  0.00  0.00    +0.000 NA
ATOM     19  C   UNL     1       4.572   3.533  18.965  0.00  0.00    +0.000 A 
ATOM     20  C   UNL     1       3.717   2.765  19.760  0.00  0.00    +0.000 A 
ATOM     21  C   UNL     1       2.461   2.461  19.234  0.00  0.00    +0.000 A 
ATOM     22  C   UNL     1       2.128   2.923  17.964  0.00  0.00    +0.000 A 
ATOM     23  N   UNL     1       2.921   3.663  17.153  0.00  0.00    +0.000 NA
ATOM     24  C   UNL     1       4.116   3.932  17.718  0.00  0.00    +0.000 A 
BRANCH  16  25
ATOM     25  C   UNL     1       5.114   5.263  15.861  0.00  0.00    +0.000 C 
BRANCH  25  27
ATOM     26  C   UNL     1       6.907   4.711  14.133  0.00  0.00    +0.000 C 
ATOM     27  C   UNL     1       5.560   4.334  14.728  0.00  0.00    +0.000 C 
ENDBRANCH  25  27
ENDBRANCH  16  25
ENDBRANCH  15  17
ENDBRANCH   1  15
TORSDOF 8
ENDMDL
MODEL 3
REMARK VINA RESULT:      -7.5      4.449      7.254
REMARK  Name = 
REMARK  10 active torsions:
REMARK  status: ('A' for Active; 'I' for Inactive)
REMARK    1  A    between atoms: C_1  and  C_2
REMARK    2  A    between atoms: C_2  and  C_3
REMARK    3  A    between atoms: C_3  and  N_4
REMARK    4  A    between atoms: C_5  and  C_6
REMARK    5  A    between atoms: C_6  and  C_7
REMARK    6  A    between atoms: C_7  and  C_8
REMARK    7  A    between atoms: N_10  and  C_11
REMARK    8  A    between atoms: C_14  and  O_15
REMARK    9  A    between atoms: O_15  and  C_16
REMARK   10  A    between atoms: C_16  and  C_17
REMARK                            x       y       z     vdW  Elec       q    Type
REMARK                         _______ _______ _______ _____ _____    ______ ____
ROOT
ATOM      1  C   UNL     1       7.957   6.499  18.732  0.00  0.00    +0.000 C 
ENDROOT
BRANCH   1   2
ATOM      2  C   UNL     1       8.175   7.959  18.350  0.00  0.00    +0.000 C 
ATOM      3  O   UNL     1       7.710   8.375  17.291  0.00  0.00    +0.000 OA
ATOM      4  N   UNL     1       8.917   8.710  19.241  0.00  0.00    +0.000 N 
ATOM      5  H   UNL     1       9.402   8.236  19.985  0.00  0.00    +0.000 HD
BRANCH   4   6
ATOM      6  C   UNL     1       9.149  10.096  19.208  0.00  0.00    +0.000 A 
ATOM      7  C   UNL     1       9.580  10.840  20.304  0.00  0.00    +0.000 A 
ATOM      8  C   UNL     1       9.814  12.211  20.170  0.00  0.00    +0.000 A 
ATOM      9  C   UNL     1       9.636  12.845  18.941  0.00  0.00    +0.000 A 
ATOM     10  C   UNL     1       9.191  12.107  17.847  0.00  0.00    +0.000 A 
ATOM     11  C   UNL     1       8.957  10.738  17.979  0.00  0.00    +0.000 A 
BRANCH   9  12
ATOM     12  O   UNL     1       9.886  14.188  18.928  0.00  0.00    +0.000 OA
BRANCH  12  13
ATOM     13  C   UNL     1      10.491  14.681  17.733  0.00  0.00    +0.000 C 
ATOM     14  C   UNL     1      11.995  14.613  17.912  0.00  0.00    +0.000 C 
ENDBRANCH  12  13
ENDBRANCH   9  12
ENDBRANCH   4   6
ENDBRANCH   1   2
BRANCH   1  15
ATOM     15  C   UNL     1       7.485   5.584  17.609  0.00  0.00    +0.000 C 
BRANCH  15  17
ATOM     16  N   UNL     1       5.178   4.687  17.053  0.00  0.00    +0.000 N 
ATOM     17  C   UNL     1       6.230   4.849  17.935  0.00  0.00    +0.000 A 
ATOM     18  N   UNL     1       5.997   4.221  19.072  0.00  0.00    +0.000 NA
ATOM     19  C   UNL     1       4.777   3.621  18.920  0.00  0.00    +0.000 A 
ATOM     20  C   UNL     1       4.030   2.819  19.786  0.00  0.00    +0.000 A 
ATOM     21  C   UNL     1       2.803   2.347  19.318  0.00  0.00    +0.000 A 
ATOM     22  C   UNL     1       2.393   2.685  18.032  0.00  0.00    +0.000 A 
ATOM     23  N   UNL     1       3.081   3.452  17.153  0.00  0.00    +0.000 NA
ATOM     24  C   UNL     1       4.252   3.885  17.664  0.00  0.00    +0.000 A 
BRANCH  16  25
ATOM     25  C   UNL     1       5.056   5.190  15.698  0.00  0.00    +0.000 C 
BRANCH  25  27
ATOM     26  C   UNL     1       6.907   4.700  14.013  0.00  0.00    +0.000 C 
ATOM     27  C   UNL     1       5.586   4.248  14.614  0.00  0.00    +0.000 C 
ENDBRANCH  25  27
ENDBRANCH  16  25
ENDBRANCH  15  17
ENDBRANCH   1  15
TORSDOF 8
ENDMDL
MODEL 4
REMARK VINA RESULT:      -7.4      5.023      8.274
REMARK  Name = 
REMARK  10 active torsions:
REMARK  status: ('A' for Active; 'I' for Inactive)
REMARK    1  A    between atoms: C_1  and  C_2
REMARK    2  A    between atoms: C_2  and  C_3
REMARK    3  A    between atoms: C_3  and  N_4
REMARK    4  A    between atoms: C_5  and  C_6
REMARK    5  A    between atoms: C_6  and  C_7
REMARK    6  A    between atoms: C_7  and  C_8
REMARK    7  A    between atoms: N_10  and  C_11
REMARK    8  A    between atoms: C_14  and  O_15
REMARK    9  A    between atoms: O_15  and  C_16
REMARK   10  A    between atoms: C_16  and  C_17
REMARK                            x       y       z     vdW  Elec       q    Type
REMARK                         _______ _______ _______ _____ _____    ______ ____
ROOT
ATOM      1  C   UNL     1       8.207   9.212  17.741  0.00  0.00    +0.000 C 
ENDROOT
BRANCH   1   2
ATOM      2  C   UNL     1       7.585   7.822  17.824  0.00  0.00    +0.000 C 
ATOM      3  O   UNL     1       8.104   6.977  18.550  0.00  0.00    +0.000 OA
ATOM      4  N   UNL     1       6.470   7.613  17.035  0.00  0.00    +0.000 N 
ATOM      5  H   UNL     1       6.231   8.307  16.345  0.00  0.00    +0.000 HD
BRANCH   4   6
ATOM      6  C   UNL     1       5.627   6.489  17.023  0.00  0.00    +0.000 A 
ATOM      7  C   UNL     1       4.496   6.353  17.825  0.00  0.00    +0.000 A 
ATOM      8  C   UNL     1       3.699   5.211  17.722  0.00  0.00    +0.000 A 
ATOM      9  C   UNL     1       4.014   4.205  16.810  0.00  0.00    +0.000 A 
ATOM     10  C   UNL     1       5.152   4.330  16.017  0.00  0.00    +0.000 A 
ATOM     11  C   UNL     1       5.949   5.471  16.118  0.00  0.00    +0.000 A 
BRANCH   9  12
ATOM     12  O   UNL     1       3.170   3.130  16.800  0.00  0.00    +0.000 OA
BRANCH  12  13
ATOM     13  C   UNL     1       2.739   2.685  18.086  0.00  0.00    +0.000 C 
ATOM     14  C   UNL     1       3.573   1.477  18.463  0.00  0.00    +0.000 C 
ENDBRANCH  12  13
ENDBRANCH   9  12
ENDBRANCH   4   6
ENDBRANCH   1   2
BRANCH   1  15
ATOM     15  C   UNL     1       8.998   9.658  18.965  0.00  0.00    +0.000 C 
BRANCH  15  17
ATOM     16  N   UNL     1      10.192  11.755  19.747  0.00  0.00    +0.000 N 
ATOM     17  C   UNL     1       9.783  10.903  18.737  0.00  0.00    +0.000 A 
ATOM     18  N   UNL     1      10.230  11.310  17.564  0.00  0.00    +0.000 NA
ATOM     19  C   UNL     1      10.961  12.439  17.817  0.00  0.00    +0.000 A 
ATOM     20  C   UNL     1      11.673  13.286  16.964  0.00  0.00    +0.000 A 
ATOM     21  C   UNL     1      12.333  14.368  17.548  0.00  0.00    +0.000 A 
ATOM     22  C   UNL     1      12.257  14.545  18.926  0.00  0.00    +0.000 A 
ATOM     23  N   UNL     1      11.588  13.750  19.795  0.00  0.00    +0.000 NA
ATOM     24  C   UNL     1      10.964  12.729  19.173  0.00  0.00    +0.000 A 
BRANCH  16  25
ATOM     25  C   UNL     1       9.938  11.647  21.171  0.00  0.00    +0.000 C 
BRANCH  25  27
ATOM     26  C   UNL     1       8.094  11.793  22.927  0.00  0.00    +0.000 C 
ATOM     27  C   UNL     1       8.687  12.383  21.657  0.00  0.00    +0.000 C 
ENDBRANCH  25  27
ENDBRANCH  16  25
ENDBRANCH  15  17
ENDBRANCH   1  15
TORSDOF 8
ENDMDL
MODEL 5
REMARK VINA RESULT:      -7.4      2.078      3.894
REMARK  Name = 
REMARK  10 active torsions:
REMARK  status: ('A' for Active; 'I' for Inactive)
REMARK    1  A    between atoms: C_1  and  C_2
REMARK    2  A    between atoms: C_2  and  C_3
REMARK    3  A    between atoms: C_3  and  N_4
REMARK    4  A    between atoms: C_5  and  C_6
REMARK    5  A    between atoms: C_6  and  C_7
REMARK    6  A    between atoms: C_7  and  C_8
REMARK    7  A    between atoms: N_10  and  C_11
REMARK    8  A    between atoms: C_14  and  O_15
REMARK    9  A    between atoms: O_15  and  C_16
REMARK   10  A    between atoms: C_16  and  C_17
REMARK                            x       y       z     vdW  Elec       q    Type
REMARK                         _______ _______ _______ _____ _____    ______ ____
ROOT
ATOM      1  C   UNL     1       2.772   3.572  21.472  0.00  0.00    +0.000 C 
ENDROOT
BRANCH   1   2
ATOM      2  C   UNL     1       1.964   4.691  20.825  0.00  0.00    +0.000 C 
ATOM      3  O   UNL     1       0.767   4.515  20.606  0.00  0.00    +0.000 OA
ATOM      4  N   UNL     1       2.667   5.837  20.507  0.00  0.00    +0.000 N 
ATOM      5  H   UNL     1       3.673   5.815  20.561  0.00  0.00    +0.000 HD
BRANCH   4   6
ATOM      6  C   UNL     1       2.152   7.057  20.038  0.00  0.00    +0.000 A 
ATOM      7  C   UNL     1       1.372   7.920  20.804  0.00  0.00    +0.000 A 
ATOM      8  C   UNL     1       0.928   9.129  20.263  0.00  0.00    +0.000 A 
ATOM      9  C   UNL     1       1.273   9.493  18.962  0.00  0.00    +0.000 A 
ATOM     10  C   UNL     1       2.041   8.627  18.188  0.00  0.00    +0.000 A 
ATOM     11  C   UNL     1       2.485   7.419  18.728  0.00  0.00    +0.000 A 
BRANCH   9  12
ATOM     12  O   UNL     1       0.778  10.693  18.534  0.00  0.00    +0.000 OA
BRANCH  12  13
ATOM     13  C   UNL     1       1.420  11.844  19.080  0.00  0.00    +0.000 C 
ATOM     14  C   UNL     1       0.738  13.072  18.510  0.00  0.00    +0.000 C 
ENDBRANCH  12  13
ENDBRANCH   9  12
ENDBRANCH   4   6
ENDBRANCH   1   2
BRANCH   1  15
ATOM     15  C   UNL     1       3.541   2.670  20.514  0.00  0.00    +0.000 C 
BRANCH  15  17
ATOM     16  N   UNL     1       4.279   3.355  18.186  0.00  0.00    +0.000 N 
ATOM     17  C   UNL     1       4.404   3.423  19.561  0.00  0.00    +0.000 A 
ATOM     18  N   UNL     1       5.343   4.282  19.910  0.00  0.00    +0.000 NA
ATOM     19  C   UNL     1       5.827   4.799  18.739  0.00  0.00    +0.000 A 
ATOM     20  C   UNL     1       6.817   5.752  18.492  0.00  0.00    +0.000 A 
ATOM     21  C   UNL     1       7.072   6.074  17.158  0.00  0.00    +0.000 A 
ATOM     22  C   UNL     1       6.337   5.446  16.157  0.00  0.00    +0.000 A 
ATOM     23  N   UNL     1       5.364   4.523  16.344  0.00  0.00    +0.000 NA
ATOM     24  C   UNL     1       5.169   4.247  17.650  0.00  0.00    +0.000 A 
BRANCH  16  25
ATOM     25  C   UNL     1       3.350   2.560  17.406  0.00  0.00    +0.000 C 
BRANCH  25  27
ATOM     26  C   UNL     1       1.503   4.318  17.353  0.00  0.00    +0.000 C 
ATOM     27  C   UNL     1       1.873   2.875  17.655  0.00  0.00    +0.000 C 
ENDBRANCH  25  27
ENDBRANCH  16  25
ENDBRANCH  15  17
ENDBRANCH   1  15
TORSDOF 8
ENDMDL
MODEL 6
REMARK VINA RESULT:      -7.3      2.067      3.899
REMARK  Name = 
REMARK  10 active torsions:
REMARK  status: ('A' for Active; 'I' for Inactive)
REMARK    1  A    between atoms: C_1  and  C_2
REMARK    2  A    between atoms: C_2  and  C_3
REMARK    3  A    between atoms: C_3  and  N_4
REMARK    4  A    between atoms: C_5  and  C_6
REMARK    5  A    between atoms: C_6  and  C_7
REMARK    6  A    between atoms: C_7  and  C_8
REMARK    7  A    between atoms: N_10  and  C_11
REMARK    8  A    between atoms: C_14  and  O_15
REMARK    9  A    between atoms: O_15  and  C_16
REMARK   10  A    between atoms: C_16  and  C_17
REMARK                            x       y       z     vdW  Elec       q    Type
REMARK                         _______ _______ _______ _____ _____    ______ ____
ROOT
ATOM      1  C   UNL     1       2.791   3.695  21.468  0.00  0.00    +0.000 C 
ENDROOT
BRANCH   1   2
ATOM      2  C   UNL     1       2.020   4.803  20.759  0.00  0.00    +0.000 C 
ATOM      3  O   UNL     1       0.804   4.687  20.615  0.00  0.00    +0.000 OA
ATOM      4  N   UNL     1       2.775   5.865  20.301  0.00  0.00    +0.000 N 
ATOM      5  H   UNL     1       3.779   5.782  20.309  0.00  0.00    +0.000 HD
BRANCH   4   6
ATOM      6  C   UNL     1       2.312   7.070  19.746  0.00  0.00    +0.000 A 
ATOM      7  C   UNL     1       2.473   7.425  18.409  0.00  0.00    +0.000 A 
ATOM      8  C   UNL     1       1.951   8.632  17.937  0.00  0.00    +0.000 A 
ATOM      9  C   UNL     1       1.251   9.484  18.791  0.00  0.00    +0.000 A 
ATOM     10  C   UNL     1       1.100   9.140  20.131  0.00  0.00    +0.000 A 
ATOM     11  C   UNL     1       1.621   7.934  20.603  0.00  0.00    +0.000 A 
BRANCH   9  12
ATOM     12  O   UNL     1       0.792  10.640  18.225  0.00  0.00    +0.000 OA
BRANCH  12  13
ATOM     13  C   UNL     1      -0.103  11.400  19.037  0.00  0.00    +0.000 C 
ATOM     14  C   UNL     1       0.413  12.824  19.089  0.00  0.00    +0.000 C 
ENDBRANCH  12  13
ENDBRANCH   9  12
ENDBRANCH   4   6
ENDBRANCH   1   2
BRANCH   1  15
ATOM     15  C   UNL     1       3.493   2.691  20.561  0.00  0.00    +0.000 C 
BRANCH  15  17
ATOM     16  N   UNL     1       4.018   3.252  18.143  0.00  0.00    +0.000 N 
ATOM     17  C   UNL     1       4.309   3.333  19.493  0.00  0.00    +0.000 A 
ATOM     18  N   UNL     1       5.364   4.098  19.704  0.00  0.00    +0.000 NA
ATOM     19  C   UNL     1       5.756   4.540  18.470  0.00  0.00    +0.000 A 
ATOM     20  C   UNL     1       6.801   5.381  18.081  0.00  0.00    +0.000 A 
ATOM     21  C   UNL     1       6.928   5.650  16.718  0.00  0.00    +0.000 A 
ATOM     22  C   UNL     1       6.021   5.082  15.828  0.00  0.00    +0.000 A 
ATOM     23  N   UNL     1       4.990   4.268  16.154  0.00  0.00    +0.000 NA
ATOM     24  C   UNL     1       4.923   4.038  17.481  0.00  0.00    +0.000 A 
BRANCH  16  25
ATOM     25  C   UNL     1       2.929   2.542  17.501  0.00  0.00    +0.000 C 
BRANCH  25  27
ATOM     26  C   UNL     1       0.615   2.249  18.533  0.00  0.00    +0.000 C 
ATOM     27  C   UNL     1       1.543   3.149  17.733  0.00  0.00    +0.000 C 
ENDBRANCH  25  27
ENDBRANCH  16  25
ENDBRANCH  15  17
ENDBRANCH   1  15
TORSDOF 8
ENDMDL
MODEL 7
REMARK VINA RESULT:      -7.2      1.334      1.515
REMARK  Name = 
REMARK  10 active torsions:
REMARK  status: ('A' for Active; 'I' for Inactive)
REMARK    1  A    between atoms: C_1  and  C_2
REMARK    2  A    between atoms: C_2  and  C_3
REMARK    3  A    between atoms: C_3  and  N_4
REMARK    4  A    between atoms: C_5  and  C_6
REMARK    5  A    between atoms: C_6  and  C_7
REMARK    6  A    between atoms: C_7  and  C_8
REMARK    7  A    between atoms: N_10  and  C_11
REMARK    8  A    between atoms: C_14  and  O_15
REMARK    9  A    between atoms: O_15  and  C_16
REMARK   10  A    between atoms: C_16  and  C_17
REMARK                            x       y       z     vdW  Elec       q    Type
REMARK                         _______ _______ _______ _____ _____    ______ ____
ROOT
ATOM      1  C   UNL     1       3.577   3.842  19.612  0.00  0.00    +0.000 C 
ENDROOT
BRANCH   1   2
ATOM      2  C   UNL     1       2.639   4.971  19.201  0.00  0.00    +0.000 C 
ATOM      3  O   UNL     1       1.539   4.692  18.727  0.00  0.00    +0.000 OA
ATOM      4  N   UNL     1       3.123   6.253  19.379  0.00  0.00    +0.000 N 
ATOM      5  H   UNL     1       4.098   6.373  19.605  0.00  0.00    +0.000 HD
BRANCH   4   6
ATOM      6  C   UNL     1       2.427   7.463  19.218  0.00  0.00    +0.000 A 
ATOM      7  C   UNL     1       2.389   8.189  18.031  0.00  0.00    +0.000 A 
ATOM      8  C   UNL     1       1.644   9.368  17.954  0.00  0.00    +0.000 A 
ATOM      9  C   UNL     1       0.918   9.821  19.055  0.00  0.00    +0.000 A 
ATOM     10  C   UNL     1       0.964   9.105  20.249  0.00  0.00    +0.000 A 
ATOM     11  C   UNL     1       1.708   7.927  20.326  0.00  0.00    +0.000 A 
BRANCH   9  12
ATOM     12  O   UNL     1       0.232  10.988  18.870  0.00  0.00    +0.000 OA
BRANCH  12  13
ATOM     13  C   UNL     1      -0.758  11.273  19.858  0.00  0.00    +0.000 C 
ATOM     14  C   UNL     1      -2.074  11.509  19.142  0.00  0.00    +0.000 C 
ENDBRANCH  12  13
ENDBRANCH   9  12
ENDBRANCH   4   6
ENDBRANCH   1   2
BRANCH   1  15
ATOM     15  C   UNL     1       5.063   4.101  19.390  0.00  0.00    +0.000 C 
BRANCH  15  17
ATOM     16  N   UNL     1       6.661   4.674  17.505  0.00  0.00    +0.000 N 
ATOM     17  C   UNL     1       5.429   4.234  17.952  0.00  0.00    +0.000 A 
ATOM     18  N   UNL     1       4.650   3.898  16.941  0.00  0.00    +0.000 NA
ATOM     19  C   UNL     1       5.398   4.103  15.813  0.00  0.00    +0.000 A 
ATOM     20  C   UNL     1       5.100   3.911  14.462  0.00  0.00    +0.000 A 
ATOM     21  C   UNL     1       6.103   4.212  13.540  0.00  0.00    +0.000 A 
ATOM     22  C   UNL     1       7.331   4.675  14.002  0.00  0.00    +0.000 A 
ATOM     23  N   UNL     1       7.671   4.872  15.298  0.00  0.00    +0.000 NA
ATOM     24  C   UNL     1       6.661   4.573  16.140  0.00  0.00    +0.000 A 
BRANCH  16  25
ATOM     25  C   UNL     1       7.800   5.103  18.293  0.00  0.00    +0.000 C 
BRANCH  25  27
ATOM     26  C   UNL     1       7.502   7.518  17.526  0.00  0.00    +0.000 C 
ATOM     27  C   UNL     1       7.783   6.582  18.691  0.00  0.00    +0.000 C 
ENDBRANCH  25  27
ENDBRANCH  16  25
ENDBRANCH  15  17
ENDBRANCH   1  15
TORSDOF 8
ENDMDL
MODEL 8
REMARK VINA RESULT:      -7.2      4.924      8.071
REMARK  Name = 
REMARK  10 active torsions:
REMARK  status: ('A' for Active; 'I' for Inactive)
REMARK    1  A    between atoms: C_1  and  C_2
REMARK    2  A    between atoms: C_2  and  C_3
REMARK    3  A    between atoms: C_3  and  N_4
REMARK    4  A    between atoms: C_5  and  C_6
REMARK    5  A    between atoms: C_6  and  C_7
REMARK    6  A    between atoms: C_7  and  C_8
REMARK    7  A    between atoms: N_10  and  C_11
REMARK    8  A    between atoms: C_14  and  O_15
REMARK    9  A    between atoms: O_15  and  C_16
REMARK   10  A    between atoms: C_16  and  C_17
REMARK                            x       y       z     vdW  Elec       q    Type
REMARK                         _______ _______ _______ _____ _____    ______ ____
ROOT
ATOM      1  C   UNL     1       8.192   8.934  17.669  0.00  0.00    +0.000 C 
ENDROOT
BRANCH   1   2
ATOM      2  C   UNL     1       7.463   7.602  17.806  0.00  0.00    +0.000 C 
ATOM      3  O   UNL     1       7.907   6.755  18.579  0.00  0.00    +0.000 OA
ATOM      4  N   UNL     1       6.344   7.442  17.012  0.00  0.00    +0.000 N 
ATOM      5  H   UNL     1       6.167   8.118  16.287  0.00  0.00    +0.000 HD
BRANCH   4   6
ATOM      6  C   UNL     1       5.417   6.386  17.040  0.00  0.00    +0.000 A 
ATOM      7  C   UNL     1       5.644   5.134  16.473  0.00  0.00    +0.000 A 
ATOM      8  C   UNL     1       4.676   4.133  16.576  0.00  0.00    +0.000 A 
ATOM      9  C   UNL     1       3.483   4.367  17.259  0.00  0.00    +0.000 A 
ATOM     10  C   UNL     1       3.245   5.622  17.815  0.00  0.00    +0.000 A 
ATOM     11  C   UNL     1       4.213   6.623  17.712  0.00  0.00    +0.000 A 
BRANCH   9  12
ATOM     12  O   UNL     1       2.605   3.320  17.291  0.00  0.00    +0.000 OA
BRANCH  12  13
ATOM     13  C   UNL     1       3.125   2.109  17.837  0.00  0.00    +0.000 C 
ATOM     14  C   UNL     1       2.872   2.127  19.332  0.00  0.00    +0.000 C 
ENDBRANCH  12  13
ENDBRANCH   9  12
ENDBRANCH   4   6
ENDBRANCH   1   2
BRANCH   1  15
ATOM     15  C   UNL     1       8.908   9.430  18.919  0.00  0.00    +0.000 C 
BRANCH  15  17
ATOM     16  N   UNL     1       9.943  11.600  19.729  0.00  0.00    +0.000 N 
ATOM     17  C   UNL     1       9.632  10.716  18.713  0.00  0.00    +0.000 A 
ATOM     18  N   UNL     1      10.111  11.135  17.556  0.00  0.00    +0.000 NA
ATOM     19  C   UNL     1      10.765  12.306  17.828  0.00  0.00    +0.000 A 
ATOM     20  C   UNL     1      11.468  13.183  16.999  0.00  0.00    +0.000 A 
ATOM     21  C   UNL     1      12.037  14.308  17.599  0.00  0.00    +0.000 A 
ATOM     22  C   UNL     1      11.885  14.494  18.970  0.00  0.00    +0.000 A 
ATOM     23  N   UNL     1      11.221  13.672  19.816  0.00  0.00    +0.000 NA
ATOM     24  C   UNL     1      10.686  12.610  19.179  0.00  0.00    +0.000 A 
BRANCH  16  25
ATOM     25  C   UNL     1       9.628  11.493  21.140  0.00  0.00    +0.000 C 
BRANCH  25  27
ATOM     26  C   UNL     1       8.929  13.173  22.927  0.00  0.00    +0.000 C 
ATOM     27  C   UNL     1       8.555  12.467  21.633  0.00  0.00    +0.000 C 
ENDBRANCH  25  27
ENDBRANCH  16  25
ENDBRANCH  15  17
ENDBRANCH   1  15
TORSDOF 8
ENDMDL
MODEL 9
REMARK VINA RESULT:      -7.1      1.458      3.259
REMARK  Name = 
REMARK  10 active torsions:
REMARK  status: ('A' for Active; 'I' for Inactive)
REMARK    1  A    between atoms: C_1  and  C_2
REMARK    2  A    between atoms: C_2  and  C_3
REMARK    3  A    between atoms: C_3  and  N_4
REMARK    4  A    between atoms: C_5  and  C_6
REMARK    5  A    between atoms: C_6  and  C_7
REMARK    6  A    between atoms: C_7  and  C_8
REMARK    7  A    between atoms: N_10  and  C_11
REMARK    8  A    between atoms: C_14  and  O_15
REMARK    9  A    between atoms: O_15  and  C_16
REMARK   10  A    between atoms: C_16  and  C_17
REMARK                            x       y       z     vdW  Elec       q    Type
REMARK                         _______ _______ _______ _____ _____    ______ ____
ROOT
ATOM      1  C   UNL     1       2.966   3.094  18.620  0.00  0.00    +0.000 C 
ENDROOT
BRANCH   1   2
ATOM      2  C   UNL     1       2.264   4.440  18.475  0.00  0.00    +0.000 C 
ATOM      3  O   UNL     1       1.275   4.524  17.750  0.00  0.00    +0.000 OA
ATOM      4  N   UNL     1       2.828   5.492  19.172  0.00  0.00    +0.000 N 
ATOM      5  H   UNL     1       3.735   5.362  19.590  0.00  0.00    +0.000 HD
BRANCH   4   6
ATOM      6  C   UNL     1       2.314   6.790  19.327  0.00  0.00    +0.000 A 
ATOM      7  C   UNL     1       2.293   7.747  18.315  0.00  0.00    +0.000 A 
ATOM      8  C   UNL     1       1.733   9.005  18.552  0.00  0.00    +0.000 A 
ATOM      9  C   UNL     1       1.177   9.311  19.793  0.00  0.00    +0.000 A 
ATOM     10  C   UNL     1       1.208   8.362  20.813  0.00  0.00    +0.000 A 
ATOM     11  C   UNL     1       1.767   7.105  20.577  0.00  0.00    +0.000 A 
BRANCH   9  12
ATOM     12  O   UNL     1       0.664  10.572  19.916  0.00  0.00    +0.000 OA
BRANCH  12  13
ATOM     13  C   UNL     1       0.107  11.119  18.722  0.00  0.00    +0.000 C 
ATOM     14  C   UNL     1      -1.403  11.050  18.840  0.00  0.00    +0.000 C 
ENDBRANCH  12  13
ENDBRANCH   9  12
ENDBRANCH   4   6
ENDBRANCH   1   2
BRANCH   1  15
ATOM     15  C   UNL     1       4.171   2.874  17.714  0.00  0.00    +0.000 C 
BRANCH  15  17
ATOM     16  N   UNL     1       5.476   4.868  16.845  0.00  0.00    +0.000 N 
ATOM     17  C   UNL     1       5.202   3.942  17.835  0.00  0.00    +0.000 A 
ATOM     18  N   UNL     1       5.931   4.170  18.912  0.00  0.00    +0.000 NA
ATOM     19  C   UNL     1       6.680   5.278  18.625  0.00  0.00    +0.000 A 
ATOM     20  C   UNL     1       7.618   5.979  19.387  0.00  0.00    +0.000 A 
ATOM     21  C   UNL     1       8.211   7.095  18.797  0.00  0.00    +0.000 A 
ATOM     22  C   UNL     1       7.843   7.454  17.504  0.00  0.00    +0.000 A 
ATOM     23  N   UNL     1       6.936   6.814  16.728  0.00  0.00    +0.000 NA
ATOM     24  C   UNL     1       6.404   5.741  17.347  0.00  0.00    +0.000 A 
BRANCH  16  25
ATOM     25  C   UNL     1       4.874   4.983  15.531  0.00  0.00    +0.000 C 
BRANCH  25  27
ATOM     26  C   UNL     1       6.090   3.667  13.715  0.00  0.00    +0.000 C 
ATOM     27  C   UNL     1       5.871   5.022  14.370  0.00  0.00    +0.000 C 
ENDBRANCH  25  27
ENDBRANCH  16  25
ENDBRANCH  15  17
ENDBRANCH   1  15
TORSDOF 8
ENDMDL
