MODEL 1
REMARK VINA RESULT:      -8.2      0.000      0.000
REMARK  Name = 
REMARK  8 active torsions:
REMARK  status: ('A' for Active; 'I' for Inactive)
REMARK    1  A    between atoms: C_1  and  C_2
REMARK    2  A    between atoms: C_2  and  N_3
REMARK    3  A    between atoms: C_10  and  C_11
REMARK    4  A    between atoms: C_15  and  C_16
REMARK    5  A    between atoms: C_20  and  N_21
REMARK    6  A    between atoms: N_21  and  C_22
REMARK    7  A    between atoms: C_26  and  C_27
REMARK    8  A    between atoms: C_27  and  O_29
REMARK                            x       y       z     vdW  Elec       q    Type
REMARK                         _______ _______ _______ _____ _____    ______ ____
ROOT
ATOM      1  N   UNL     1      -3.184  12.661  24.139  0.00  0.00    +0.000 N 
ATOM      2  C   UNL     1      -2.593  12.064  23.045  0.00  0.00    +0.000 C 
ATOM      3  O   UNL     1      -3.020  12.202  21.905  0.00  0.00    +0.000 OA
ATOM      4  N   UNL     1      -1.522  11.285  23.405  0.00  0.00    +0.000 N 
ATOM      5  C   UNL     1      -0.770  10.574  22.462  0.00  0.00    +0.000 A 
ATOM      6  C   UNL     1      -0.340  11.170  21.283  0.00  0.00    +0.000 A 
ATOM      7  C   UNL     1       0.535  10.500  20.396  0.00  0.00    +0.000 A 
ATOM      8  C   UNL     1       1.178  11.132  19.278  0.00  0.00    +0.000 A 
ATOM      9  C   UNL     1       1.946  10.317  18.426  0.00  0.00    +0.000 A 
ATOM     10  C   UNL     1       2.074   8.947  18.631  0.00  0.00    +0.000 A 
ATOM     11  C   UNL     1       1.516   8.328  19.750  0.00  0.00    +0.000 A 
ATOM     12  C   UNL     1       0.772   9.124  20.663  0.00  0.00    +0.000 A 
ATOM     13  C   UNL     1       0.265   8.622  21.875  0.00  0.00    +0.000 A 
ATOM     14  N   UNL     1      -0.431   9.324  22.802  0.00  0.00    +0.000 NA
ATOM     15  H   UNL     1      -2.527  13.021  24.817  0.00  0.00    +0.000 HD
ATOM     16  H   UNL     1      -1.632  10.791  24.278  0.00  0.00    +0.000 HD
ENDROOT
BRANCH   8  17
ATOM     17  C   UNL     1       1.117  12.598  18.975  0.00  0.00    +0.000 A 
ATOM     18  C   UNL     1      -0.087  13.310  18.887  0.00  0.00    +0.000 A 
ATOM     19  C   UNL     1      -0.071  14.655  18.547  0.00  0.00    +0.000 A 
ATOM     20  N   UNL     1       1.055  15.374  18.383  0.00  0.00    +0.000 NA
ATOM     21  C   UNL     1       2.223  14.722  18.545  0.00  0.00    +0.000 A 
ATOM     22  C   UNL     1       3.481  15.534  18.481  0.00  0.00    +0.000 C 
ATOM     23  C   UNL     1       2.291  13.354  18.810  0.00  0.00    +0.000 A 
ENDBRANCH   8  17
BRANCH   1  25
ATOM     24  C   UNL     1      -4.196  14.906  23.995  0.00  0.00    +0.000 C 
ATOM     25  C   UNL     1      -4.410  13.408  23.928  0.00  0.00    +0.000 C 
ENDBRANCH   1  25
BRANCH  11  26
ATOM     26  N   UNL     1       1.737   6.945  19.985  0.00  0.00    +0.000 N 
ATOM     27  H   UNL     1       0.985   6.510  20.514  0.00  0.00    +0.000 HD
BRANCH  26  28
ATOM     28  C   UNL     1       2.524   6.036  19.246  0.00  0.00    +0.000 A 
ATOM     29  C   UNL     1       1.959   5.304  18.196  0.00  0.00    +0.000 A 
ATOM     30  C   UNL     1       2.740   4.437  17.425  0.00  0.00    +0.000 A 
ATOM     31  C   UNL     1       4.100   4.292  17.695  0.00  0.00    +0.000 A 
ATOM     32  C   UNL     1       4.682   5.009  18.750  0.00  0.00    +0.000 A 
ATOM     33  C   UNL     1       3.890   5.876  19.514  0.00  0.00    +0.000 A 
BRANCH  32  34
ATOM     34  C   UNL     1       6.138   4.868  18.979  0.00  0.00    +0.000 C 
ATOM     35  O   UNL     1       6.726   5.474  19.864  0.00  0.00    +0.000 OA
BRANCH  34  36
ATOM     36  O   UNL     1       6.765   4.055  18.106  0.00  0.00    +0.000 OA
ATOM     37  H   UNL     1       6.946   3.150  18.417  0.00  0.00    +0.000 HD
ENDBRANCH  34  36
ENDBRANCH  32  34
ENDBRANCH  26  28
ENDBRANCH  11  26
TORSDOF 6
ENDMDL
MODEL 2
REMARK VINA RESULT:      -8.1      0.498      1.153
REMARK  Name = 
REMARK  8 active torsions:
REMARK  status: ('A' for Active; 'I' for Inactive)
REMARK    1  A    between atoms: C_1  and  C_2
REMARK    2  A    between atoms: C_2  and  N_3
REMARK    3  A    between atoms: C_10  and  C_11
REMARK    4  A    between atoms: C_15  and  C_16
REMARK    5  A    between atoms: C_20  and  N_21
REMARK    6  A    between atoms: N_21  and  C_22
REMARK    7  A    between atoms: C_26  and  C_27
REMARK    8  A    between atoms: C_27  and  O_29
REMARK                            x       y       z     vdW  Elec       q    Type
REMARK                         _______ _______ _______ _____ _____    ______ ____
ROOT
ATOM      1  N   UNL     1      -2.821  12.771  23.851  0.00  0.00    +0.000 N 
ATOM      2  C   UNL     1      -2.252  12.158  22.754  0.00  0.00    +0.000 C 
ATOM      3  O   UNL     1      -2.634  12.364  21.609  0.00  0.00    +0.000 OA
ATOM      4  N   UNL     1      -1.261  11.280  23.117  0.00  0.00    +0.000 N 
ATOM      5  C   UNL     1      -0.546  10.535  22.170  0.00  0.00    +0.000 A 
ATOM      6  C   UNL     1      -0.036  11.126  21.022  0.00  0.00    +0.000 A 
ATOM      7  C   UNL     1       0.804  10.410  20.137  0.00  0.00    +0.000 A 
ATOM      8  C   UNL     1       1.529  11.017  19.055  0.00  0.00    +0.000 A 
ATOM      9  C   UNL     1       2.249  10.164  18.197  0.00  0.00    +0.000 A 
ATOM     10  C   UNL     1       2.254   8.782  18.363  0.00  0.00    +0.000 A 
ATOM     11  C   UNL     1       1.615   8.182  19.448  0.00  0.00    +0.000 A 
ATOM     12  C   UNL     1       0.916   9.012  20.367  0.00  0.00    +0.000 A 
ATOM     13  C   UNL     1       0.335   8.519  21.549  0.00  0.00    +0.000 A 
ATOM     14  N   UNL     1      -0.324   9.252  22.480  0.00  0.00    +0.000 NA
ATOM     15  H   UNL     1      -2.154  13.053  24.556  0.00  0.00    +0.000 HD
ATOM     16  H   UNL     1      -1.437  10.772  23.970  0.00  0.00    +0.000 HD
ENDROOT
BRANCH   8  17
ATOM     17  C   UNL     1       1.600  12.490  18.796  0.00  0.00    +0.000 A 
ATOM     18  C   UNL     1       2.712  13.109  18.208  0.00  0.00    +0.000 A 
ATOM     19  C   UNL     1       2.732  14.487  18.051  0.00  0.00    +0.000 A 
ATOM     20  N   UNL     1       1.692  15.292  18.340  0.00  0.00    +0.000 NA
ATOM     21  C   UNL     1       0.584  14.700  18.831  0.00  0.00    +0.000 A 
ATOM     22  C   UNL     1      -0.620  15.566  19.048  0.00  0.00    +0.000 C 
ATOM     23  C   UNL     1       0.513  13.332  19.091  0.00  0.00    +0.000 A 
ENDBRANCH   8  17
BRANCH   1  25
ATOM     24  C   UNL     1      -3.821  14.983  24.289  0.00  0.00    +0.000 C 
ATOM     25  C   UNL     1      -3.972  13.626  23.633  0.00  0.00    +0.000 C 
ENDBRANCH   1  25
BRANCH  11  26
ATOM     26  N   UNL     1       1.711   6.778  19.645  0.00  0.00    +0.000 N 
ATOM     27  H   UNL     1       0.860   6.375  20.029  0.00  0.00    +0.000 HD
BRANCH  26  28
ATOM     28  C   UNL     1       2.549   5.848  18.992  0.00  0.00    +0.000 A 
ATOM     29  C   UNL     1       2.036   5.021  17.986  0.00  0.00    +0.000 A 
ATOM     30  C   UNL     1       2.867   4.130  17.299  0.00  0.00    +0.000 A 
ATOM     31  C   UNL     1       4.224   4.056  17.610  0.00  0.00    +0.000 A 
ATOM     32  C   UNL     1       4.753   4.869  18.621  0.00  0.00    +0.000 A 
ATOM     33  C   UNL     1       3.913   5.758  19.302  0.00  0.00    +0.000 A 
BRANCH  32  34
ATOM     34  C   UNL     1       6.207   4.799  18.892  0.00  0.00    +0.000 C 
ATOM     35  O   UNL     1       6.725   5.357  19.849  0.00  0.00    +0.000 OA
BRANCH  34  36
ATOM     36  O   UNL     1       6.914   4.110  17.976  0.00  0.00    +0.000 OA
ATOM     37  H   UNL     1       6.993   4.520  17.097  0.00  0.00    +0.000 HD
ENDBRANCH  34  36
ENDBRANCH  32  34
ENDBRANCH  26  28
ENDBRANCH  11  26
TORSDOF 6
ENDMDL
MODEL 3
REMARK VINA RESULT:      -7.9      1.429      1.990
REMARK  Name = 
REMARK  8 active torsions:
REMARK  status: ('A' for Active; 'I' for Inactive)
REMARK    1  A    between atoms: C_1  and  C_2
REMARK    2  A    between atoms: C_2  and  N_3
REMARK    3  A    between atoms: C_10  and  C_11
REMARK    4  A    between atoms: C_15  and  C_16
REMARK    5  A    between atoms: C_20  and  N_21
REMARK    6  A    between atoms: N_21  and  C_22
REMARK    7  A    between atoms: C_26  and  C_27
REMARK    8  A    between atoms: C_27  and  O_29
REMARK                            x       y       z     vdW  Elec       q    Type
REMARK                         _______ _______ _______ _____ _____    ______ ____
ROOT
ATOM      1  N   UNL     1      -3.109  12.588  24.055  0.00  0.00    +0.000 N 
ATOM      2  C   UNL     1      -2.498  12.287  22.855  0.00  0.00    +0.000 C 
ATOM      3  O   UNL     1      -2.834  12.801  21.794  0.00  0.00    +0.000 OA
ATOM      4  N   UNL     1      -1.524  11.333  23.003  0.00  0.00    +0.000 N 
ATOM      5  C   UNL     1      -0.773  10.863  21.917  0.00  0.00    +0.000 A 
ATOM      6  C   UNL     1      -0.216  11.736  20.992  0.00  0.00    +0.000 A 
ATOM      7  C   UNL     1       0.657  11.277  19.979  0.00  0.00    +0.000 A 
ATOM      8  C   UNL     1       1.425  12.145  19.130  0.00  0.00    +0.000 A 
ATOM      9  C   UNL     1       2.177  11.548  18.101  0.00  0.00    +0.000 A 
ATOM     10  C   UNL     1       2.173  10.173  17.886  0.00  0.00    +0.000 A 
ATOM     11  C   UNL     1       1.491   9.309  18.743  0.00  0.00    +0.000 A 
ATOM     12  C   UNL     1       0.757   9.867  19.825  0.00  0.00    +0.000 A 
ATOM     13  C   UNL     1       0.129   9.080  20.807  0.00  0.00    +0.000 A 
ATOM     14  N   UNL     1      -0.565   9.541  21.876  0.00  0.00    +0.000 NA
ATOM     15  H   UNL     1      -2.470  12.660  24.835  0.00  0.00    +0.000 HD
ATOM     16  H   UNL     1      -1.734  10.615  23.679  0.00  0.00    +0.000 HD
ENDROOT
BRANCH   8  17
ATOM     17  C   UNL     1       1.509  13.632  19.284  0.00  0.00    +0.000 A 
ATOM     18  C   UNL     1       2.606  14.279  19.868  0.00  0.00    +0.000 A 
ATOM     19  C   UNL     1       2.591  15.657  20.028  0.00  0.00    +0.000 A 
ATOM     20  N   UNL     1       1.613  16.456  19.564  0.00  0.00    +0.000 NA
ATOM     21  C   UNL     1       0.588  15.856  18.926  0.00  0.00    +0.000 A 
ATOM     22  C   UNL     1      -0.449  16.740  18.302  0.00  0.00    +0.000 C 
ATOM     23  C   UNL     1       0.492  14.471  18.793  0.00  0.00    +0.000 A 
ENDBRANCH   8  17
BRANCH   1  25
ATOM     24  C   UNL     1      -5.566  12.754  24.192  0.00  0.00    +0.000 C 
ATOM     25  C   UNL     1      -4.249  13.484  24.033  0.00  0.00    +0.000 C 
ENDBRANCH   1  25
BRANCH  11  26
ATOM     26  N   UNL     1       1.577   7.903  18.555  0.00  0.00    +0.000 N 
ATOM     27  H   UNL     1       0.808   7.531  18.004  0.00  0.00    +0.000 HD
BRANCH  26  28
ATOM     28  C   UNL     1       2.719   7.075  18.587  0.00  0.00    +0.000 A 
ATOM     29  C   UNL     1       2.888   6.145  19.620  0.00  0.00    +0.000 A 
ATOM     30  C   UNL     1       3.992   5.285  19.636  0.00  0.00    +0.000 A 
ATOM     31  C   UNL     1       4.941   5.344  18.617  0.00  0.00    +0.000 A 
ATOM     32  C   UNL     1       4.794   6.276  17.580  0.00  0.00    +0.000 A 
ATOM     33  C   UNL     1       3.685   7.131  17.573  0.00  0.00    +0.000 A 
BRANCH  32  34
ATOM     34  C   UNL     1       5.795   6.279  16.489  0.00  0.00    +0.000 C 
ATOM     35  O   UNL     1       5.541   6.692  15.366  0.00  0.00    +0.000 OA
BRANCH  34  36
ATOM     36  O   UNL     1       6.988   5.751  16.823  0.00  0.00    +0.000 OA
ATOM     37  H   UNL     1       7.708   6.385  16.986  0.00  0.00    +0.000 HD
ENDBRANCH  34  36
ENDBRANCH  32  34
ENDBRANCH  26  28
ENDBRANCH  11  26
TORSDOF 6
ENDMDL
MODEL 4
REMARK VINA RESULT:      -7.8      2.938      4.095
REMARK  Name = 
REMARK  8 active torsions:
REMARK  status: ('A' for Active; 'I' for Inactive)
REMARK    1  A    between atoms: C_1  and  C_2
REMARK    2  A    between atoms: C_2  and  N_3
REMARK    3  A    between atoms: C_10  and  C_11
REMARK    4  A    between atoms: C_15  and  C_16
REMARK    5  A    between atoms: C_20  and  N_21
REMARK    6  A    between atoms: N_21  and  C_22
REMARK    7  A    between atoms: C_26  and  C_27
REMARK    8  A    between atoms: C_27  and  O_29
REMARK                            x       y       z     vdW  Elec       q    Type
REMARK                         _______ _______ _______ _____ _____    ______ ____
ROOT
ATOM      1  N   UNL     1      -1.744  14.888  24.106  0.00  0.00    +0.000 N 
ATOM      2  C   UNL     1      -1.703  13.814  23.241  0.00  0.00    +0.000 C 
ATOM      3  O   UNL     1      -2.493  12.880  23.308  0.00  0.00    +0.000 OA
ATOM      4  N   UNL     1      -0.661  13.913  22.355  0.00  0.00    +0.000 N 
ATOM      5  C   UNL     1      -0.414  12.932  21.385  0.00  0.00    +0.000 A 
ATOM      6  C   UNL     1      -1.440  12.413  20.605  0.00  0.00    +0.000 A 
ATOM      7  C   UNL     1      -1.175  11.529  19.534  0.00  0.00    +0.000 A 
ATOM      8  C   UNL     1      -2.158  11.127  18.567  0.00  0.00    +0.000 A 
ATOM      9  C   UNL     1      -1.774  10.165  17.613  0.00  0.00    +0.000 A 
ATOM     10  C   UNL     1      -0.503   9.600  17.603  0.00  0.00    +0.000 A 
ATOM     11  C   UNL     1       0.486  10.029  18.489  0.00  0.00    +0.000 A 
ATOM     12  C   UNL     1       0.155  11.035  19.438  0.00  0.00    +0.000 A 
ATOM     13  C   UNL     1       1.105  11.613  20.298  0.00  0.00    +0.000 A 
ATOM     14  N   UNL     1       0.868  12.589  21.209  0.00  0.00    +0.000 NA
ATOM     15  H   UNL     1      -1.564  15.779  23.664  0.00  0.00    +0.000 HD
ATOM     16  H   UNL     1       0.183  14.313  22.735  0.00  0.00    +0.000 HD
ENDROOT
BRANCH   8  17
ATOM     17  C   UNL     1      -3.546  11.681  18.480  0.00  0.00    +0.000 A 
ATOM     18  C   UNL     1      -4.326  11.610  17.318  0.00  0.00    +0.000 A 
ATOM     19  C   UNL     1      -5.584  12.196  17.293  0.00  0.00    +0.000 A 
ATOM     20  N   UNL     1      -6.170  12.762  18.364  0.00  0.00    +0.000 NA
ATOM     21  C   UNL     1      -5.465  12.765  19.513  0.00  0.00    +0.000 A 
ATOM     22  C   UNL     1      -6.149  13.285  20.740  0.00  0.00    +0.000 C 
ATOM     23  C   UNL     1      -4.165  12.267  19.599  0.00  0.00    +0.000 A 
ENDBRANCH   8  17
BRANCH   1  25
ATOM     24  C   UNL     1      -3.814  15.882  25.009  0.00  0.00    +0.000 C 
ATOM     25  C   UNL     1      -2.713  14.857  25.185  0.00  0.00    +0.000 C 
ENDBRANCH   1  25
BRANCH  11  26
ATOM     26  N   UNL     1       1.802   9.501  18.400  0.00  0.00    +0.000 N 
ATOM     27  H   UNL     1       2.519  10.217  18.482  0.00  0.00    +0.000 HD
BRANCH  26  28
ATOM     28  C   UNL     1       2.252   8.195  18.685  0.00  0.00    +0.000 A 
ATOM     29  C   UNL     1       1.873   7.561  19.874  0.00  0.00    +0.000 A 
ATOM     30  C   UNL     1       2.273   6.248  20.145  0.00  0.00    +0.000 A 
ATOM     31  C   UNL     1       3.059   5.552  19.228  0.00  0.00    +0.000 A 
ATOM     32  C   UNL     1       3.459   6.174  18.037  0.00  0.00    +0.000 A 
ATOM     33  C   UNL     1       3.050   7.488  17.775  0.00  0.00    +0.000 A 
BRANCH  32  34
ATOM     34  C   UNL     1       4.253   5.390  17.064  0.00  0.00    +0.000 C 
ATOM     35  O   UNL     1       4.219   4.169  17.021  0.00  0.00    +0.000 OA
BRANCH  34  36
ATOM     36  O   UNL     1       5.046   6.130  16.265  0.00  0.00    +0.000 OA
ATOM     37  H   UNL     1       5.528   6.859  16.694  0.00  0.00    +0.000 HD
ENDBRANCH  34  36
ENDBRANCH  32  34
ENDBRANCH  26  28
ENDBRANCH  11  26
TORSDOF 6
ENDMDL
MODEL 5
REMARK VINA RESULT:      -7.7      1.211      1.485
REMARK  Name = 
REMARK  8 active torsions:
REMARK  status: ('A' for Active; 'I' for Inactive)
REMARK    1  A    between atoms: C_1  and  C_2
REMARK    2  A    between atoms: C_2  and  N_3
REMARK    3  A    between atoms: C_10  and  C_11
REMARK    4  A    between atoms: C_15  and  C_16
REMARK    5  A    between atoms: C_20  and  N_21
REMARK    6  A    between atoms: N_21  and  C_22
REMARK    7  A    between atoms: C_26  and  C_27
REMARK    8  A    between atoms: C_27  and  O_29
REMARK                            x       y       z     vdW  Elec       q    Type
REMARK                         _______ _______ _______ _____ _____    ______ ____
ROOT
ATOM      1  N   UNL     1      -2.898  12.508  24.084  0.00  0.00    +0.000 N 
ATOM      2  C   UNL     1      -2.337  12.083  22.897  0.00  0.00    +0.000 C 
ATOM      3  O   UNL     1      -2.776  12.415  21.802  0.00  0.00    +0.000 OA
ATOM      4  N   UNL     1      -1.283  11.230  23.107  0.00  0.00    +0.000 N 
ATOM      5  C   UNL     1      -0.563  10.665  22.047  0.00  0.00    +0.000 A 
ATOM      6  C   UNL     1      -0.134  11.434  20.973  0.00  0.00    +0.000 A 
ATOM      7  C   UNL     1       0.711  10.897  19.973  0.00  0.00    +0.000 A 
ATOM      8  C   UNL     1       1.355  11.687  18.961  0.00  0.00    +0.000 A 
ATOM      9  C   UNL     1       2.089  11.003  17.974  0.00  0.00    +0.000 A 
ATOM     10  C   UNL     1       2.183   9.615  17.952  0.00  0.00    +0.000 A 
ATOM     11  C   UNL     1       1.624   8.836  18.966  0.00  0.00    +0.000 A 
ATOM     12  C   UNL     1       0.915   9.490  20.009  0.00  0.00    +0.000 A 
ATOM     13  C   UNL     1       0.411   8.810  21.132  0.00  0.00    +0.000 A 
ATOM     14  N   UNL     1      -0.253   9.368  22.174  0.00  0.00    +0.000 NA
ATOM     15  H   UNL     1      -2.222  12.736  24.800  0.00  0.00    +0.000 HD
ATOM     16  H   UNL     1      -1.394  10.604  23.889  0.00  0.00    +0.000 HD
ENDROOT
BRANCH   8  17
ATOM     17  C   UNL     1       1.328  13.183  18.901  0.00  0.00    +0.000 A 
ATOM     18  C   UNL     1       0.153  13.918  18.698  0.00  0.00    +0.000 A 
ATOM     19  C   UNL     1       0.212  15.301  18.596  0.00  0.00    +0.000 A 
ATOM     20  N   UNL     1       1.334  16.020  18.781  0.00  0.00    +0.000 NA
ATOM     21  C   UNL     1       2.459  15.331  19.060  0.00  0.00    +0.000 A 
ATOM     22  C   UNL     1       3.690  16.123  19.383  0.00  0.00    +0.000 C 
ATOM     23  C   UNL     1       2.498  13.938  19.101  0.00  0.00    +0.000 A 
ENDBRANCH   8  17
BRANCH   1  25
ATOM     24  C   UNL     1      -3.863  14.757  24.390  0.00  0.00    +0.000 C 
ATOM     25  C   UNL     1      -4.105  13.309  24.019  0.00  0.00    +0.000 C 
ENDBRANCH   1  25
BRANCH  11  26
ATOM     26  N   UNL     1       1.812   7.428  18.969  0.00  0.00    +0.000 N 
ATOM     27  H   UNL     1       0.948   6.916  19.133  0.00  0.00    +0.000 HD
BRANCH  26  28
ATOM     28  C   UNL     1       2.825   6.668  18.346  0.00  0.00    +0.000 A 
ATOM     29  C   UNL     1       3.748   7.287  17.495  0.00  0.00    +0.000 A 
ATOM     30  C   UNL     1       4.786   6.553  16.910  0.00  0.00    +0.000 A 
ATOM     31  C   UNL     1       4.914   5.190  17.171  0.00  0.00    +0.000 A 
ATOM     32  C   UNL     1       3.993   4.551  18.012  0.00  0.00    +0.000 A 
ATOM     33  C   UNL     1       2.959   5.295  18.593  0.00  0.00    +0.000 A 
BRANCH  32  34
ATOM     34  C   UNL     1       4.186   3.113  18.305  0.00  0.00    +0.000 C 
ATOM     35  O   UNL     1       3.548   2.236  17.741  0.00  0.00    +0.000 OA
BRANCH  34  36
ATOM     36  O   UNL     1       5.087   2.856  19.274  0.00  0.00    +0.000 OA
ATOM     37  H   UNL     1       5.224   3.561  19.931  0.00  0.00    +0.000 HD
ENDBRANCH  34  36
ENDBRANCH  32  34
ENDBRANCH  26  28
ENDBRANCH  11  26
TORSDOF 6
ENDMDL
MODEL 6
REMARK VINA RESULT:      -7.6      2.533      5.089
REMARK  Name = 
REMARK  8 active torsions:
REMARK  status: ('A' for Active; 'I' for Inactive)
REMARK    1  A    between atoms: C_1  and  C_2
REMARK    2  A    between atoms: C_2  and  N_3
REMARK    3  A    between atoms: C_10  and  C_11
REMARK    4  A    between atoms: C_15  and  C_16
REMARK    5  A    between atoms: C_20  and  N_21
REMARK    6  A    between atoms: N_21  and  C_22
REMARK    7  A    between atoms: C_26  and  C_27
REMARK    8  A    between atoms: C_27  and  O_29
REMARK                            x       y       z     vdW  Elec       q    Type
REMARK                         _______ _______ _______ _____ _____    ______ ____
ROOT
ATOM      1  N   UNL     1       2.082  15.944  18.087  0.00  0.00    +0.000 N 
ATOM      2  C   UNL     1       2.001  14.790  18.838  0.00  0.00    +0.000 C 
ATOM      3  O   UNL     1       2.114  14.786  20.059  0.00  0.00    +0.000 OA
ATOM      4  N   UNL     1       1.826  13.680  18.052  0.00  0.00    +0.000 N 
ATOM      5  C   UNL     1       1.725  12.393  18.595  0.00  0.00    +0.000 A 
ATOM      6  C   UNL     1       0.909  12.132  19.688  0.00  0.00    +0.000 A 
ATOM      7  C   UNL     1       0.697  10.812  20.149  0.00  0.00    +0.000 A 
ATOM      8  C   UNL     1      -0.290  10.457  21.131  0.00  0.00    +0.000 A 
ATOM      9  C   UNL     1      -0.322   9.118  21.565  0.00  0.00    +0.000 A 
ATOM     10  C   UNL     1       0.572   8.165  21.087  0.00  0.00    +0.000 A 
ATOM     11  C   UNL     1       1.490   8.474  20.083  0.00  0.00    +0.000 A 
ATOM     12  C   UNL     1       1.523   9.804  19.581  0.00  0.00    +0.000 A 
ATOM     13  C   UNL     1       2.331  10.190  18.496  0.00  0.00    +0.000 A 
ATOM     14  N   UNL     1       2.397  11.430  17.951  0.00  0.00    +0.000 NA
ATOM     15  H   UNL     1       1.419  15.987  17.326  0.00  0.00    +0.000 HD
ATOM     16  H   UNL     1       2.322  13.701  17.173  0.00  0.00    +0.000 HD
ENDROOT
BRANCH   8  17
ATOM     17  C   UNL     1      -1.306  11.399  21.699  0.00  0.00    +0.000 A 
ATOM     18  C   UNL     1      -1.277  11.844  23.027  0.00  0.00    +0.000 A 
ATOM     19  C   UNL     1      -2.284  12.673  23.501  0.00  0.00    +0.000 A 
ATOM     20  N   UNL     1      -3.266  13.176  22.731  0.00  0.00    +0.000 NA
ATOM     21  C   UNL     1      -3.261  12.823  21.430  0.00  0.00    +0.000 A 
ATOM     22  C   UNL     1      -4.278  13.466  20.536  0.00  0.00    +0.000 C 
ATOM     23  C   UNL     1      -2.330  11.933  20.895  0.00  0.00    +0.000 A 
ENDBRANCH   8  17
BRANCH   1  25
ATOM     24  C   UNL     1       1.165  18.001  19.096  0.00  0.00    +0.000 C 
ATOM     25  C   UNL     1       2.398  17.183  18.773  0.00  0.00    +0.000 C 
ENDBRANCH   1  25
BRANCH  11  26
ATOM     26  N   UNL     1       2.331   7.461  19.548  0.00  0.00    +0.000 N 
ATOM     27  H   UNL     1       3.318   7.700  19.602  0.00  0.00    +0.000 HD
BRANCH  26  28
ATOM     28  C   UNL     1       2.076   6.080  19.412  0.00  0.00    +0.000 A 
ATOM     29  C   UNL     1       1.802   5.533  18.154  0.00  0.00    +0.000 A 
ATOM     30  C   UNL     1       1.596   4.158  18.000  0.00  0.00    +0.000 A 
ATOM     31  C   UNL     1       1.662   3.312  19.106  0.00  0.00    +0.000 A 
ATOM     32  C   UNL     1       1.925   3.843  20.376  0.00  0.00    +0.000 A 
ATOM     33  C   UNL     1       2.131   5.221  20.518  0.00  0.00    +0.000 A 
BRANCH  32  34
ATOM     34  C   UNL     1       2.036   2.910  21.521  0.00  0.00    +0.000 C 
ATOM     35  O   UNL     1       3.098   2.408  21.859  0.00  0.00    +0.000 OA
BRANCH  34  36
ATOM     36  O   UNL     1       0.866   2.629  22.128  0.00  0.00    +0.000 OA
ATOM     37  H   UNL     1       0.807   2.856  23.073  0.00  0.00    +0.000 HD
ENDBRANCH  34  36
ENDBRANCH  32  34
ENDBRANCH  26  28
ENDBRANCH  11  26
TORSDOF 6
ENDMDL
MODEL 7
REMARK VINA RESULT:      -7.6      1.403      1.796
REMARK  Name = 
REMARK  8 active torsions:
REMARK  status: ('A' for Active; 'I' for Inactive)
REMARK    1  A    between atoms: C_1  and  C_2
REMARK    2  A    between atoms: C_2  and  N_3
REMARK    3  A    between atoms: C_10  and  C_11
REMARK    4  A    between atoms: C_15  and  C_16
REMARK    5  A    between atoms: C_20  and  N_21
REMARK    6  A    between atoms: N_21  and  C_22
REMARK    7  A    between atoms: C_26  and  C_27
REMARK    8  A    between atoms: C_27  and  O_29
REMARK                            x       y       z     vdW  Elec       q    Type
REMARK                         _______ _______ _______ _____ _____    ______ ____
ROOT
ATOM      1  N   UNL     1      -3.078  12.519  23.828  0.00  0.00    +0.000 N 
ATOM      2  C   UNL     1      -2.462  11.995  22.710  0.00  0.00    +0.000 C 
ATOM      3  O   UNL     1      -2.874  12.195  21.573  0.00  0.00    +0.000 OA
ATOM      4  N   UNL     1      -1.387  11.209  23.040  0.00  0.00    +0.000 N 
ATOM      5  C   UNL     1      -0.612  10.565  22.068  0.00  0.00    +0.000 A 
ATOM      6  C   UNL     1      -0.172  11.234  20.934  0.00  0.00    +0.000 A 
ATOM      7  C   UNL     1       0.725  10.629  20.023  0.00  0.00    +0.000 A 
ATOM      8  C   UNL     1       1.377  11.334  18.954  0.00  0.00    +0.000 A 
ATOM      9  C   UNL     1       2.169  10.580  18.067  0.00  0.00    +0.000 A 
ATOM     10  C   UNL     1       2.311   9.202  18.193  0.00  0.00    +0.000 A 
ATOM     11  C   UNL     1       1.743   8.511  19.265  0.00  0.00    +0.000 A 
ATOM     12  C   UNL     1       0.976   9.243  20.212  0.00  0.00    +0.000 A 
ATOM     13  C   UNL     1       0.457   8.663  21.383  0.00  0.00    +0.000 A 
ATOM     14  N   UNL     1      -0.262   9.301  22.339  0.00  0.00    +0.000 NA
ATOM     15  H   UNL     1      -2.435  12.846  24.536  0.00  0.00    +0.000 HD
ATOM     16  H   UNL     1      -1.504  10.663  23.879  0.00  0.00    +0.000 HD
ENDROOT
BRANCH   8  17
ATOM     17  C   UNL     1       1.302  12.814  18.737  0.00  0.00    +0.000 A 
ATOM     18  C   UNL     1       0.112  13.544  18.861  0.00  0.00    +0.000 A 
ATOM     19  C   UNL     1       0.106  14.905  18.590  0.00  0.00    +0.000 A 
ATOM     20  N   UNL     1       1.210  15.618  18.301  0.00  0.00    +0.000 NA
ATOM     21  C   UNL     1       2.376  14.944  18.259  0.00  0.00    +0.000 A 
ATOM     22  C   UNL     1       3.628  15.743  18.055  0.00  0.00    +0.000 C 
ATOM     23  C   UNL     1       2.454  13.563  18.443  0.00  0.00    +0.000 A 
ENDBRANCH   8  17
BRANCH   1  25
ATOM     24  C   UNL     1      -5.421  12.785  24.551  0.00  0.00    +0.000 C 
ATOM     25  C   UNL     1      -4.309  13.263  23.641  0.00  0.00    +0.000 C 
ENDBRANCH   1  25
BRANCH  11  26
ATOM     26  N   UNL     1       1.979   7.118  19.421  0.00  0.00    +0.000 N 
ATOM     27  H   UNL     1       1.275   6.663  19.997  0.00  0.00    +0.000 HD
BRANCH  26  28
ATOM     28  C   UNL     1       2.692   6.241  18.577  0.00  0.00    +0.000 A 
ATOM     29  C   UNL     1       3.741   6.722  17.784  0.00  0.00    +0.000 A 
ATOM     30  C   UNL     1       4.487   5.853  16.981  0.00  0.00    +0.000 A 
ATOM     31  C   UNL     1       4.193   4.491  16.960  0.00  0.00    +0.000 A 
ATOM     32  C   UNL     1       3.140   3.993  17.739  0.00  0.00    +0.000 A 
ATOM     33  C   UNL     1       2.401   4.871  18.542  0.00  0.00    +0.000 A 
BRANCH  32  34
ATOM     34  C   UNL     1       2.886   2.534  17.731  0.00  0.00    +0.000 C 
ATOM     35  O   UNL     1       3.788   1.710  17.745  0.00  0.00    +0.000 OA
BRANCH  34  36
ATOM     36  O   UNL     1       1.583   2.194  17.661  0.00  0.00    +0.000 OA
ATOM     37  H   UNL     1       0.992   2.845  17.244  0.00  0.00    +0.000 HD
ENDBRANCH  34  36
ENDBRANCH  32  34
ENDBRANCH  26  28
ENDBRANCH  11  26
TORSDOF 6
ENDMDL
MODEL 8
REMARK VINA RESULT:      -7.6      1.341      1.586
REMARK  Name = 
REMARK  8 active torsions:
REMARK  status: ('A' for Active; 'I' for Inactive)
REMARK    1  A    between atoms: C_1  and  C_2
REMARK    2  A    between atoms: C_2  and  N_3
REMARK    3  A    between atoms: C_10  and  C_11
REMARK    4  A    between atoms: C_15  and  C_16
REMARK    5  A    between atoms: C_20  and  N_21
REMARK    6  A    between atoms: N_21  and  C_22
REMARK    7  A    between atoms: C_26  and  C_27
REMARK    8  A    between atoms: C_27  and  O_29
REMARK                            x       y       z     vdW  Elec       q    Type
REMARK                         _______ _______ _______ _____ _____    ______ ____
ROOT
ATOM      1  N   UNL     1      -2.901  12.232  24.177  0.00  0.00    +0.000 N 
ATOM      2  C   UNL     1      -2.330  11.939  22.955  0.00  0.00    +0.000 C 
ATOM      3  O   UNL     1      -2.729  12.428  21.905  0.00  0.00    +0.000 OA
ATOM      4  N   UNL     1      -1.318  11.021  23.072  0.00  0.00    +0.000 N 
ATOM      5  C   UNL     1      -0.598  10.564  21.961  0.00  0.00    +0.000 A 
ATOM      6  C   UNL     1      -0.111  11.445  21.003  0.00  0.00    +0.000 A 
ATOM      7  C   UNL     1       0.734  11.003  19.958  0.00  0.00    +0.000 A 
ATOM      8  C   UNL     1       1.434  11.887  19.069  0.00  0.00    +0.000 A 
ATOM      9  C   UNL     1       2.163  11.304  18.015  0.00  0.00    +0.000 A 
ATOM     10  C   UNL     1       2.199   9.928  17.815  0.00  0.00    +0.000 A 
ATOM     11  C   UNL     1       1.584   9.051  18.709  0.00  0.00    +0.000 A 
ATOM     12  C   UNL     1       0.877   9.597  19.815  0.00  0.00    +0.000 A 
ATOM     13  C   UNL     1       0.319   8.800  20.831  0.00  0.00    +0.000 A 
ATOM     14  N   UNL     1      -0.345   9.250  21.924  0.00  0.00    +0.000 NA
ATOM     15  H   UNL     1      -2.233  12.337  24.928  0.00  0.00    +0.000 HD
ATOM     16  H   UNL     1      -1.474  10.304  23.764  0.00  0.00    +0.000 HD
ENDROOT
BRANCH   8  17
ATOM     17  C   UNL     1       1.472  13.379  19.202  0.00  0.00    +0.000 A 
ATOM     18  C   UNL     1       0.406  14.206  18.826  0.00  0.00    +0.000 A 
ATOM     19  C   UNL     1       0.533  15.585  18.925  0.00  0.00    +0.000 A 
ATOM     20  N   UNL     1       1.600  16.204  19.463  0.00  0.00    +0.000 NA
ATOM     21  C   UNL     1       2.601  15.416  19.906  0.00  0.00    +0.000 A 
ATOM     22  C   UNL     1       3.742  16.083  20.613  0.00  0.00    +0.000 C 
ATOM     23  C   UNL     1       2.582  14.028  19.771  0.00  0.00    +0.000 A 
ENDBRANCH   8  17
BRANCH   1  25
ATOM     24  C   UNL     1      -3.737  14.524  24.542  0.00  0.00    +0.000 C 
ATOM     25  C   UNL     1      -4.071  13.089  24.194  0.00  0.00    +0.000 C 
ENDBRANCH   1  25
BRANCH  11  26
ATOM     26  N   UNL     1       1.712   7.646  18.533  0.00  0.00    +0.000 N 
ATOM     27  H   UNL     1       0.963   7.250  17.971  0.00  0.00    +0.000 HD
BRANCH  26  28
ATOM     28  C   UNL     1       2.875   6.850  18.592  0.00  0.00    +0.000 A 
ATOM     29  C   UNL     1       3.060   5.947  19.646  0.00  0.00    +0.000 A 
ATOM     30  C   UNL     1       4.185   5.117  19.689  0.00  0.00    +0.000 A 
ATOM     31  C   UNL     1       5.141   5.180  18.676  0.00  0.00    +0.000 A 
ATOM     32  C   UNL     1       4.978   6.086  17.618  0.00  0.00    +0.000 A 
ATOM     33  C   UNL     1       3.847   6.910  17.584  0.00  0.00    +0.000 A 
BRANCH  32  34
ATOM     34  C   UNL     1       5.988   6.092  16.535  0.00  0.00    +0.000 C 
ATOM     35  O   UNL     1       5.791   6.635  15.457  0.00  0.00    +0.000 OA
BRANCH  34  36
ATOM     36  O   UNL     1       7.117   5.415  16.820  0.00  0.00    +0.000 OA
ATOM     37  H   UNL     1       7.010   4.472  17.035  0.00  0.00    +0.000 HD
ENDBRANCH  34  36
ENDBRANCH  32  34
ENDBRANCH  26  28
ENDBRANCH  11  26
TORSDOF 6
ENDMDL
MODEL 9
REMARK VINA RESULT:      -7.5      1.396      1.915
REMARK  Name = 
REMARK  8 active torsions:
REMARK  status: ('A' for Active; 'I' for Inactive)
REMARK    1  A    between atoms: C_1  and  C_2
REMARK    2  A    between atoms: C_2  and  N_3
REMARK    3  A    between atoms: C_10  and  C_11
REMARK    4  A    between atoms: C_15  and  C_16
REMARK    5  A    between atoms: C_20  and  N_21
REMARK    6  A    between atoms: N_21  and  C_22
REMARK    7  A    between atoms: C_26  and  C_27
REMARK    8  A    between atoms: C_27  and  O_29
REMARK                            x       y       z     vdW  Elec       q    Type
REMARK                         _______ _______ _______ _____ _____    ______ ____
ROOT
ATOM      1  N   UNL     1      -2.888  12.467  24.134  0.00  0.00    +0.000 N 
ATOM      2  C   UNL     1      -2.306  12.160  22.922  0.00  0.00    +0.000 C 
ATOM      3  O   UNL     1      -2.668  12.668  21.867  0.00  0.00    +0.000 OA
ATOM      4  N   UNL     1      -1.329  11.205  23.051  0.00  0.00    +0.000 N 
ATOM      5  C   UNL     1      -0.605  10.729  21.951  0.00  0.00    +0.000 A 
ATOM      6  C   UNL     1      -0.070  11.597  21.008  0.00  0.00    +0.000 A 
ATOM      7  C   UNL     1       0.778  11.132  19.977  0.00  0.00    +0.000 A 
ATOM      8  C   UNL     1       1.527  11.995  19.105  0.00  0.00    +0.000 A 
ATOM      9  C   UNL     1       2.254  11.392  18.062  0.00  0.00    +0.000 A 
ATOM     10  C   UNL     1       2.244  10.016  17.854  0.00  0.00    +0.000 A 
ATOM     11  C   UNL     1       1.582   9.157  18.732  0.00  0.00    +0.000 A 
ATOM     12  C   UNL     1       0.875   9.721  19.828  0.00  0.00    +0.000 A 
ATOM     13  C   UNL     1       0.270   8.940  20.829  0.00  0.00    +0.000 A 
ATOM     14  N   UNL     1      -0.399   9.407  21.912  0.00  0.00    +0.000 NA
ATOM     15  H   UNL     1      -2.231  12.543  24.898  0.00  0.00    +0.000 HD
ATOM     16  H   UNL     1      -1.524  10.491  23.736  0.00  0.00    +0.000 HD
ENDROOT
BRANCH   8  17
ATOM     17  C   UNL     1       1.615  13.483  19.249  0.00  0.00    +0.000 A 
ATOM     18  C   UNL     1       2.751  14.136  19.745  0.00  0.00    +0.000 A 
ATOM     19  C   UNL     1       2.741  15.515  19.904  0.00  0.00    +0.000 A 
ATOM     20  N   UNL     1       1.727  16.308  19.514  0.00  0.00    +0.000 NA
ATOM     21  C   UNL     1       0.659  15.701  18.959  0.00  0.00    +0.000 A 
ATOM     22  C   UNL     1      -0.427  16.579  18.414  0.00  0.00    +0.000 C 
ATOM     23  C   UNL     1       0.559  14.316  18.836  0.00  0.00    +0.000 A 
ENDBRANCH   8  17
BRANCH   1  25
ATOM     24  C   UNL     1      -5.343  12.634  24.313  0.00  0.00    +0.000 C 
ATOM     25  C   UNL     1      -4.028  13.364  24.135  0.00  0.00    +0.000 C 
ENDBRANCH   1  25
BRANCH  11  26
ATOM     26  N   UNL     1       1.663   7.750  18.550  0.00  0.00    +0.000 N 
ATOM     27  H   UNL     1       0.780   7.339  18.258  0.00  0.00    +0.000 HD
BRANCH  26  28
ATOM     28  C   UNL     1       2.795   6.960  18.255  0.00  0.00    +0.000 A 
ATOM     29  C   UNL     1       3.835   7.479  17.475  0.00  0.00    +0.000 A 
ATOM     30  C   UNL     1       4.983   6.723  17.217  0.00  0.00    +0.000 A 
ATOM     31  C   UNL     1       5.105   5.435  17.737  0.00  0.00    +0.000 A 
ATOM     32  C   UNL     1       4.069   4.894  18.511  0.00  0.00    +0.000 A 
ATOM     33  C   UNL     1       2.925   5.661  18.765  0.00  0.00    +0.000 A 
BRANCH  32  34
ATOM     34  C   UNL     1       4.253   3.543  19.087  0.00  0.00    +0.000 C 
ATOM     35  O   UNL     1       5.291   3.196  19.632  0.00  0.00    +0.000 OA
BRANCH  34  36
ATOM     36  O   UNL     1       3.201   2.717  18.921  0.00  0.00    +0.000 OA
ATOM     37  H   UNL     1       2.926   2.551  18.002  0.00  0.00    +0.000 HD
ENDBRANCH  34  36
ENDBRANCH  32  34
ENDBRANCH  26  28
ENDBRANCH  11  26
TORSDOF 6
ENDMDL
