MODEL 1
REMARK VINA RESULT:      -8.7      0.000      0.000
REMARK  Name = 
REMARK  4 active torsions:
REMARK  status: ('A' for Active; 'I' for Inactive)
REMARK    1  A    between atoms: C_1  and  C_2
REMARK    2  A    between atoms: C_2  and  C_3
REMARK    3  A    between atoms: C_2  and  N_9
REMARK    4  A    between atoms: C_18  and  C_19
REMARK                            x       y       z     vdW  Elec       q    Type
REMARK                         _______ _______ _______ _____ _____    ______ ____
ROOT
ATOM      1  N   UNL     1       4.323   4.178  19.366  0.00  0.00    +0.000 N 
ATOM      2  N   UNL     1       3.903   3.065  20.058  0.00  0.00    +0.000 NA
ATOM      3  N   UNL     1       2.582   3.095  19.979  0.00  0.00    +0.000 NA
ATOM      4  C   UNL     1       2.299   4.300  19.422  0.00  0.00    +0.000 A 
ATOM      5  C   UNL     1       1.388   4.657  18.433  0.00  0.00    +0.000 A 
ATOM      6  N   UNL     1       1.742   5.704  17.598  0.00  0.00    +0.000 NA
ATOM      7  C   UNL     1       2.532   6.677  18.059  0.00  0.00    +0.000 A 
ATOM      8  C   UNL     1       2.395   7.898  17.440  0.00  0.00    +0.000 A 
ATOM      9  C   UNL     1       1.857   8.986  18.147  0.00  0.00    +0.000 A 
ATOM     10  C   UNL     1       1.454   8.850  19.477  0.00  0.00    +0.000 A 
ATOM     11  C   UNL     1       2.106   7.706  20.116  0.00  0.00    +0.000 A 
ATOM     12  C   UNL     1       2.899   6.629  19.375  0.00  0.00    +0.000 A 
ATOM     13  C   UNL     1       3.345   5.229  19.690  0.00  0.00    +0.000 A 
ENDROOT
BRANCH  10  14
ATOM     14  C   UNL     1       0.299   9.802  19.980  0.00  0.00    +0.000 A 
ATOM     15  C   UNL     1      -0.446  10.672  19.167  0.00  0.00    +0.000 A 
ATOM     16  C   UNL     1      -1.405  11.612  19.676  0.00  0.00    +0.000 A 
ATOM     17  C   UNL     1      -1.635  11.700  21.046  0.00  0.00    +0.000 A 
ATOM     18  N   UNL     1      -2.459  12.542  21.784  0.00  0.00    +0.000 N 
ATOM     19  C   UNL     1      -2.346  12.257  23.124  0.00  0.00    +0.000 A 
ATOM     20  C   UNL     1      -1.433  11.223  23.255  0.00  0.00    +0.000 A 
ATOM     21  C   UNL     1      -0.967  10.872  21.944  0.00  0.00    +0.000 A 
ATOM     22  C   UNL     1      -0.024   9.938  21.388  0.00  0.00    +0.000 A 
ATOM     23  H   UNL     1      -3.058  13.265  21.412  0.00  0.00    +0.000 HD
ENDBRANCH  10  14
BRANCH   1  25
ATOM     24  C   UNL     1       5.336   3.424  17.142  0.00  0.00    +0.000 C 
ATOM     25  C   UNL     1       5.586   3.999  18.572  0.00  0.00    +0.000 C 
BRANCH  25  26
ATOM     26  C   UNL     1       6.484   5.261  18.296  0.00  0.00    +0.000 A 
ATOM     27  C   UNL     1       7.579   5.672  19.082  0.00  0.00    +0.000 A 
ATOM     28  C   UNL     1       8.240   6.906  18.846  0.00  0.00    +0.000 A 
ATOM     29  C   UNL     1       7.812   7.769  17.841  0.00  0.00    +0.000 A 
ATOM     30  C   UNL     1       6.689   7.428  17.102  0.00  0.00    +0.000 A 
ATOM     31  C   UNL     1       6.033   6.202  17.332  0.00  0.00    +0.000 A 
ENDBRANCH  25  26
ENDBRANCH   1  25
TORSDOF 3
ENDMDL
MODEL 2
REMARK VINA RESULT:      -8.4      0.736      1.310
REMARK  Name = 
REMARK  4 active torsions:
REMARK  status: ('A' for Active; 'I' for Inactive)
REMARK    1  A    between atoms: C_1  and  C_2
REMARK    2  A    between atoms: C_2  and  C_3
REMARK    3  A    between atoms: C_2  and  N_9
REMARK    4  A    between atoms: C_18  and  C_19
REMARK                            x       y       z     vdW  Elec       q    Type
REMARK                         _______ _______ _______ _____ _____    ______ ____
ROOT
ATOM      1  N   UNL     1       4.310   3.970  19.093  0.00  0.00    +0.000 N 
ATOM      2  N   UNL     1       3.981   2.775  19.690  0.00  0.00    +0.000 NA
ATOM      3  N   UNL     1       2.668   2.823  19.847  0.00  0.00    +0.000 NA
ATOM      4  C   UNL     1       2.330   4.096  19.518  0.00  0.00    +0.000 A 
ATOM      5  C   UNL     1       1.274   4.593  18.760  0.00  0.00    +0.000 A 
ATOM      6  N   UNL     1       1.510   5.744  18.026  0.00  0.00    +0.000 NA
ATOM      7  C   UNL     1       2.397   6.638  18.471  0.00  0.00    +0.000 A 
ATOM      8  C   UNL     1       2.193   7.934  18.058  0.00  0.00    +0.000 A 
ATOM      9  C   UNL     1       1.817   8.917  18.988  0.00  0.00    +0.000 A 
ATOM     10  C   UNL     1       1.645   8.599  20.338  0.00  0.00    +0.000 A 
ATOM     11  C   UNL     1       2.361   7.373  20.692  0.00  0.00    +0.000 A 
ATOM     12  C   UNL     1       2.983   6.405  19.684  0.00  0.00    +0.000 A 
ATOM     13  C   UNL     1       3.434   4.972  19.723  0.00  0.00    +0.000 A 
ENDROOT
BRANCH  10  14
ATOM     14  C   UNL     1       0.622   9.478  21.158  0.00  0.00    +0.000 A 
ATOM     15  C   UNL     1       0.219   9.231  22.480  0.00  0.00    +0.000 A 
ATOM     16  C   UNL     1      -0.805   9.979  23.154  0.00  0.00    +0.000 A 
ATOM     17  C   UNL     1      -1.463  11.013  22.493  0.00  0.00    +0.000 A 
ATOM     18  N   UNL     1      -2.502  11.842  22.896  0.00  0.00    +0.000 N 
ATOM     19  C   UNL     1      -2.826  12.718  21.886  0.00  0.00    +0.000 A 
ATOM     20  C   UNL     1      -1.990  12.447  20.815  0.00  0.00    +0.000 A 
ATOM     21  C   UNL     1      -1.131  11.359  21.186  0.00  0.00    +0.000 A 
ATOM     22  C   UNL     1      -0.091  10.589  20.555  0.00  0.00    +0.000 A 
ATOM     23  H   UNL     1      -2.969  11.821  23.791  0.00  0.00    +0.000 HD
ENDBRANCH  10  14
BRANCH   1  25
ATOM     24  C   UNL     1       4.889   3.679  16.620  0.00  0.00    +0.000 C 
ATOM     25  C   UNL     1       5.412   3.897  18.075  0.00  0.00    +0.000 C 
BRANCH  25  26
ATOM     26  C   UNL     1       6.379   5.128  17.925  0.00  0.00    +0.000 A 
ATOM     27  C   UNL     1       7.443   5.441  18.794  0.00  0.00    +0.000 A 
ATOM     28  C   UNL     1       8.171   6.654  18.669  0.00  0.00    +0.000 A 
ATOM     29  C   UNL     1       7.841   7.592  17.695  0.00  0.00    +0.000 A 
ATOM     30  C   UNL     1       6.749   7.348  16.875  0.00  0.00    +0.000 A 
ATOM     31  C   UNL     1       6.027   6.143  16.995  0.00  0.00    +0.000 A 
ENDBRANCH  25  26
ENDBRANCH   1  25
TORSDOF 3
ENDMDL
MODEL 3
REMARK VINA RESULT:      -8.3      2.821      4.421
REMARK  Name = 
REMARK  4 active torsions:
REMARK  status: ('A' for Active; 'I' for Inactive)
REMARK    1  A    between atoms: C_1  and  C_2
REMARK    2  A    between atoms: C_2  and  C_3
REMARK    3  A    between atoms: C_2  and  N_9
REMARK    4  A    between atoms: C_18  and  C_19
REMARK                            x       y       z     vdW  Elec       q    Type
REMARK                         _______ _______ _______ _____ _____    ______ ____
ROOT
ATOM      1  N   UNL     1       6.325   5.359  16.136  0.00  0.00    +0.000 N 
ATOM      2  N   UNL     1       7.456   6.105  15.897  0.00  0.00    +0.000 NA
ATOM      3  N   UNL     1       7.690   6.742  17.032  0.00  0.00    +0.000 NA
ATOM      4  C   UNL     1       6.598   6.490  17.798  0.00  0.00    +0.000 A 
ATOM      5  C   UNL     1       6.483   6.159  19.144  0.00  0.00    +0.000 A 
ATOM      6  N   UNL     1       5.437   5.324  19.502  0.00  0.00    +0.000 NA
ATOM      7  C   UNL     1       4.304   5.348  18.796  0.00  0.00    +0.000 A 
ATOM      8  C   UNL     1       3.171   4.967  19.477  0.00  0.00    +0.000 A 
ATOM      9  C   UNL     1       2.170   5.912  19.758  0.00  0.00    +0.000 A 
ATOM     10  C   UNL     1       2.305   7.242  19.356  0.00  0.00    +0.000 A 
ATOM     11  C   UNL     1       3.261   7.371  18.255  0.00  0.00    +0.000 A 
ATOM     12  C   UNL     1       4.203   6.262  17.784  0.00  0.00    +0.000 A 
ATOM     13  C   UNL     1       5.468   6.212  16.976  0.00  0.00    +0.000 A 
ENDROOT
BRANCH  10  14
ATOM     14  C   UNL     1       1.570   8.335  20.227  0.00  0.00    +0.000 A 
ATOM     15  C   UNL     1       1.430   8.299  21.624  0.00  0.00    +0.000 A 
ATOM     16  C   UNL     1       0.651   9.245  22.371  0.00  0.00    +0.000 A 
ATOM     17  C   UNL     1      -0.024  10.269  21.711  0.00  0.00    +0.000 A 
ATOM     18  N   UNL     1      -0.867  11.266  22.187  0.00  0.00    +0.000 N 
ATOM     19  C   UNL     1      -1.304  12.051  21.146  0.00  0.00    +0.000 A 
ATOM     20  C   UNL     1      -0.743  11.550  19.982  0.00  0.00    +0.000 A 
ATOM     21  C   UNL     1       0.060  10.413  20.329  0.00  0.00    +0.000 A 
ATOM     22  C   UNL     1       0.862   9.448  19.623  0.00  0.00    +0.000 A 
ATOM     23  H   UNL     1      -1.135  11.410  23.150  0.00  0.00    +0.000 HD
ENDBRANCH  10  14
BRANCH   1  25
ATOM     24  C   UNL     1       5.208   3.059  16.077  0.00  0.00    +0.000 C 
ATOM     25  C   UNL     1       6.298   4.006  15.483  0.00  0.00    +0.000 C 
BRANCH  25  26
ATOM     26  C   UNL     1       6.036   3.925  13.934  0.00  0.00    +0.000 A 
ATOM     27  C   UNL     1       4.825   3.530  13.331  0.00  0.00    +0.000 A 
ATOM     28  C   UNL     1       4.723   3.341  11.927  0.00  0.00    +0.000 A 
ATOM     29  C   UNL     1       5.826   3.516  11.097  0.00  0.00    +0.000 A 
ATOM     30  C   UNL     1       7.050   3.828  11.670  0.00  0.00    +0.000 A 
ATOM     31  C   UNL     1       7.153   4.019  13.063  0.00  0.00    +0.000 A 
ENDBRANCH  25  26
ENDBRANCH   1  25
TORSDOF 3
ENDMDL
MODEL 4
REMARK VINA RESULT:      -8.2      1.436      2.180
REMARK  Name = 
REMARK  4 active torsions:
REMARK  status: ('A' for Active; 'I' for Inactive)
REMARK    1  A    between atoms: C_1  and  C_2
REMARK    2  A    between atoms: C_2  and  C_3
REMARK    3  A    between atoms: C_2  and  N_9
REMARK    4  A    between atoms: C_18  and  C_19
REMARK                            x       y       z     vdW  Elec       q    Type
REMARK                         _______ _______ _______ _____ _____    ______ ____
ROOT
ATOM      1  N   UNL     1       3.332   3.780  20.315  0.00  0.00    +0.000 N 
ATOM      2  N   UNL     1       2.514   2.803  20.834  0.00  0.00    +0.000 NA
ATOM      3  N   UNL     1       1.335   3.011  20.270  0.00  0.00    +0.000 NA
ATOM      4  C   UNL     1       1.473   4.192  19.614  0.00  0.00    +0.000 A 
ATOM      5  C   UNL     1       1.053   4.587  18.348  0.00  0.00    +0.000 A 
ATOM      6  N   UNL     1       1.850   5.497  17.673  0.00  0.00    +0.000 NA
ATOM      7  C   UNL     1       2.568   6.384  18.366  0.00  0.00    +0.000 A 
ATOM      8  C   UNL     1       2.866   7.554  17.706  0.00  0.00    +0.000 A 
ATOM      9  C   UNL     1       2.294   8.764  18.131  0.00  0.00    +0.000 A 
ATOM     10  C   UNL     1       1.422   8.803  19.221  0.00  0.00    +0.000 A 
ATOM     11  C   UNL     1       1.601   7.638  20.088  0.00  0.00    +0.000 A 
ATOM     12  C   UNL     1       2.422   6.400  19.725  0.00  0.00    +0.000 A 
ATOM     13  C   UNL     1       2.489   4.983  20.223  0.00  0.00    +0.000 A 
ENDROOT
BRANCH  10  14
ATOM     14  C   UNL     1       0.335   9.948  19.232  0.00  0.00    +0.000 A 
ATOM     15  C   UNL     1       0.353  11.076  20.069  0.00  0.00    +0.000 A 
ATOM     16  C   UNL     1      -0.714  12.034  20.138  0.00  0.00    +0.000 A 
ATOM     17  C   UNL     1      -1.851  11.870  19.351  0.00  0.00    +0.000 A 
ATOM     18  N   UNL     1      -3.021  12.613  19.268  0.00  0.00    +0.000 N 
ATOM     19  C   UNL     1      -3.871  12.053  18.342  0.00  0.00    +0.000 A 
ATOM     20  C   UNL     1      -3.244  10.930  17.827  0.00  0.00    +0.000 A 
ATOM     21  C   UNL     1      -1.969  10.799  18.470  0.00  0.00    +0.000 A 
ATOM     22  C   UNL     1      -0.870   9.870  18.426  0.00  0.00    +0.000 A 
ATOM     23  H   UNL     1      -3.240  13.443  19.800  0.00  0.00    +0.000 HD
ENDBRANCH  10  14
BRANCH   1  25
ATOM     24  C   UNL     1       4.870   1.870  19.589  0.00  0.00    +0.000 C 
ATOM     25  C   UNL     1       4.749   3.357  20.051  0.00  0.00    +0.000 C 
BRANCH  25  26
ATOM     26  C   UNL     1       5.575   4.136  18.962  0.00  0.00    +0.000 A 
ATOM     27  C   UNL     1       6.489   5.176  19.220  0.00  0.00    +0.000 A 
ATOM     28  C   UNL     1       7.078   5.925  18.167  0.00  0.00    +0.000 A 
ATOM     29  C   UNL     1       6.751   5.674  16.838  0.00  0.00    +0.000 A 
ATOM     30  C   UNL     1       5.795   4.709  16.556  0.00  0.00    +0.000 A 
ATOM     31  C   UNL     1       5.213   3.962  17.600  0.00  0.00    +0.000 A 
ENDBRANCH  25  26
ENDBRANCH   1  25
TORSDOF 3
ENDMDL
MODEL 5
REMARK VINA RESULT:      -8.2      2.155      9.156
REMARK  Name = 
REMARK  4 active torsions:
REMARK  status: ('A' for Active; 'I' for Inactive)
REMARK    1  A    between atoms: C_1  and  C_2
REMARK    2  A    between atoms: C_2  and  C_3
REMARK    3  A    between atoms: C_2  and  N_9
REMARK    4  A    between atoms: C_18  and  C_19
REMARK                            x       y       z     vdW  Elec       q    Type
REMARK                         _______ _______ _______ _____ _____    ______ ____
ROOT
ATOM      1  N   UNL     1      -1.479  11.465  20.956  0.00  0.00    +0.000 N 
ATOM      2  N   UNL     1      -1.502  11.635  22.322  0.00  0.00    +0.000 NA
ATOM      3  N   UNL     1      -0.238  11.537  22.698  0.00  0.00    +0.000 NA
ATOM      4  C   UNL     1       0.421  11.130  21.583  0.00  0.00    +0.000 A 
ATOM      5  C   UNL     1       1.635  11.538  21.040  0.00  0.00    +0.000 A 
ATOM      6  N   UNL     1       1.752  11.510  19.660  0.00  0.00    +0.000 NA
ATOM      7  C   UNL     1       1.058  10.609  18.959  0.00  0.00    +0.000 A 
ATOM      8  C   UNL     1       1.601  10.253  17.746  0.00  0.00    +0.000 A 
ATOM      9  C   UNL     1       2.100   8.955  17.554  0.00  0.00    +0.000 A 
ATOM     10  C   UNL     1       2.055   8.009  18.581  0.00  0.00    +0.000 A 
ATOM     11  C   UNL     1       1.039   8.353  19.577  0.00  0.00    +0.000 A 
ATOM     12  C   UNL     1       0.313   9.697  19.653  0.00  0.00    +0.000 A 
ATOM     13  C   UNL     1      -0.462  10.429  20.712  0.00  0.00    +0.000 A 
ENDROOT
BRANCH  10  14
ATOM     14  C   UNL     1       3.166   6.887  18.575  0.00  0.00    +0.000 A 
ATOM     15  C   UNL     1       3.298   5.872  19.536  0.00  0.00    +0.000 A 
ATOM     16  C   UNL     1       4.393   4.943  19.568  0.00  0.00    +0.000 A 
ATOM     17  C   UNL     1       5.403   5.023  18.613  0.00  0.00    +0.000 A 
ATOM     18  N   UNL     1       6.572   4.289  18.455  0.00  0.00    +0.000 N 
ATOM     19  C   UNL     1       7.268   4.741  17.358  0.00  0.00    +0.000 A 
ATOM     20  C   UNL     1       6.542   5.784  16.805  0.00  0.00    +0.000 A 
ATOM     21  C   UNL     1       5.365   5.978  17.602  0.00  0.00    +0.000 A 
ATOM     22  C   UNL     1       4.244   6.880  17.603  0.00  0.00    +0.000 A 
ATOM     23  H   UNL     1       6.887   3.534  19.047  0.00  0.00    +0.000 HD
ENDBRANCH  10  14
BRANCH   1  25
ATOM     24  C   UNL     1      -1.906  13.725  19.839  0.00  0.00    +0.000 C 
ATOM     25  C   UNL     1      -2.458  12.307  20.188  0.00  0.00    +0.000 C 
BRANCH  25  26
ATOM     26  C   UNL     1      -2.979  11.776  18.802  0.00  0.00    +0.000 A 
ATOM     27  C   UNL     1      -2.179  11.531  17.668  0.00  0.00    +0.000 A 
ATOM     28  C   UNL     1      -2.753  11.196  16.413  0.00  0.00    +0.000 A 
ATOM     29  C   UNL     1      -4.134  11.122  16.252  0.00  0.00    +0.000 A 
ATOM     30  C   UNL     1      -4.949  11.435  17.330  0.00  0.00    +0.000 A 
ATOM     31  C   UNL     1      -4.381  11.764  18.578  0.00  0.00    +0.000 A 
ENDBRANCH  25  26
ENDBRANCH   1  25
TORSDOF 3
ENDMDL
MODEL 6
REMARK VINA RESULT:      -8.2      2.649      3.690
REMARK  Name = 
REMARK  4 active torsions:
REMARK  status: ('A' for Active; 'I' for Inactive)
REMARK    1  A    between atoms: C_1  and  C_2
REMARK    2  A    between atoms: C_2  and  C_3
REMARK    3  A    between atoms: C_2  and  N_9
REMARK    4  A    between atoms: C_18  and  C_19
REMARK                            x       y       z     vdW  Elec       q    Type
REMARK                         _______ _______ _______ _____ _____    ______ ____
ROOT
ATOM      1  N   UNL     1       6.576   4.863  16.806  0.00  0.00    +0.000 N 
ATOM      2  N   UNL     1       7.795   5.047  17.416  0.00  0.00    +0.000 NA
ATOM      3  N   UNL     1       7.506   5.340  18.674  0.00  0.00    +0.000 NA
ATOM      4  C   UNL     1       6.158   5.498  18.687  0.00  0.00    +0.000 A 
ATOM      5  C   UNL     1       5.197   5.062  19.594  0.00  0.00    +0.000 A 
ATOM      6  N   UNL     1       3.948   4.745  19.087  0.00  0.00    +0.000 NA
ATOM      7  C   UNL     1       3.498   5.377  18.000  0.00  0.00    +0.000 A 
ATOM      8  C   UNL     1       2.130   5.452  17.880  0.00  0.00    +0.000 A 
ATOM      9  C   UNL     1       1.482   6.693  17.988  0.00  0.00    +0.000 A 
ATOM     10  C   UNL     1       2.208   7.864  18.219  0.00  0.00    +0.000 A 
ATOM     11  C   UNL     1       3.610   7.707  17.827  0.00  0.00    +0.000 A 
ATOM     12  C   UNL     1       4.273   6.375  17.477  0.00  0.00    +0.000 A 
ATOM     13  C   UNL     1       5.689   5.879  17.398  0.00  0.00    +0.000 A 
ENDROOT
BRANCH  10  14
ATOM     14  C   UNL     1       1.467   9.032  18.981  0.00  0.00    +0.000 A 
ATOM     15  C   UNL     1       1.438  10.375  18.574  0.00  0.00    +0.000 A 
ATOM     16  C   UNL     1       0.858  11.432  19.355  0.00  0.00    +0.000 A 
ATOM     17  C   UNL     1       0.287  11.150  20.594  0.00  0.00    +0.000 A 
ATOM     18  N   UNL     1      -0.286  11.982  21.547  0.00  0.00    +0.000 N 
ATOM     19  C   UNL     1      -0.712  11.242  22.625  0.00  0.00    +0.000 A 
ATOM     20  C   UNL     1      -0.403   9.916  22.368  0.00  0.00    +0.000 A 
ATOM     21  C   UNL     1       0.242   9.850  21.088  0.00  0.00    +0.000 A 
ATOM     22  C   UNL     1       0.825   8.823  20.266  0.00  0.00    +0.000 A 
ATOM     23  H   UNL     1      -0.385  12.985  21.481  0.00  0.00    +0.000 HD
ENDBRANCH  10  14
BRANCH   1  25
ATOM     24  C   UNL     1       5.194   2.977  15.772  0.00  0.00    +0.000 C 
ATOM     25  C   UNL     1       6.534   3.777  15.769  0.00  0.00    +0.000 C 
BRANCH  25  26
ATOM     26  C   UNL     1       6.708   4.175  14.257  0.00  0.00    +0.000 A 
ATOM     27  C   UNL     1       6.169   3.474  13.161  0.00  0.00    +0.000 A 
ATOM     28  C   UNL     1       6.501   3.818  11.824  0.00  0.00    +0.000 A 
ATOM     29  C   UNL     1       7.395   4.849  11.549  0.00  0.00    +0.000 A 
ATOM     30  C   UNL     1       8.002   5.506  12.609  0.00  0.00    +0.000 A 
ATOM     31  C   UNL     1       7.671   5.169  13.937  0.00  0.00    +0.000 A 
ENDBRANCH  25  26
ENDBRANCH   1  25
TORSDOF 3
ENDMDL
MODEL 7
REMARK VINA RESULT:      -8.2      3.437      8.741
REMARK  Name = 
REMARK  4 active torsions:
REMARK  status: ('A' for Active; 'I' for Inactive)
REMARK    1  A    between atoms: C_1  and  C_2
REMARK    2  A    between atoms: C_2  and  C_3
REMARK    3  A    between atoms: C_2  and  N_9
REMARK    4  A    between atoms: C_18  and  C_19
REMARK                            x       y       z     vdW  Elec       q    Type
REMARK                         _______ _______ _______ _____ _____    ______ ____
ROOT
ATOM      1  N   UNL     1       0.367  12.881  18.918  0.00  0.00    +0.000 N 
ATOM      2  N   UNL     1      -0.508  13.164  17.895  0.00  0.00    +0.000 NA
ATOM      3  N   UNL     1      -1.382  12.171  17.909  0.00  0.00    +0.000 NA
ATOM      4  C   UNL     1      -0.872  11.279  18.796  0.00  0.00    +0.000 A 
ATOM      5  C   UNL     1      -1.486  10.534  19.798  0.00  0.00    +0.000 A 
ATOM      6  N   UNL     1      -0.740  10.266  20.933  0.00  0.00    +0.000 NA
ATOM      7  C   UNL     1       0.588  10.155  20.838  0.00  0.00    +0.000 A 
ATOM      8  C   UNL     1       1.190   9.372  21.795  0.00  0.00    +0.000 A 
ATOM      9  C   UNL     1       1.784   8.152  21.433  0.00  0.00    +0.000 A 
ATOM     10  C   UNL     1       1.775   7.715  20.106  0.00  0.00    +0.000 A 
ATOM     11  C   UNL     1       1.572   8.830  19.180  0.00  0.00    +0.000 A 
ATOM     12  C   UNL     1       1.146  10.240  19.592  0.00  0.00    +0.000 A 
ATOM     13  C   UNL     1       0.543  11.419  18.884  0.00  0.00    +0.000 A 
ENDROOT
BRANCH  10  14
ATOM     14  C   UNL     1       1.811   6.156  19.862  0.00  0.00    +0.000 A 
ATOM     15  C   UNL     1       1.506   5.178  20.823  0.00  0.00    +0.000 A 
ATOM     16  C   UNL     1       1.668   3.768  20.603  0.00  0.00    +0.000 A 
ATOM     17  C   UNL     1       2.156   3.304  19.384  0.00  0.00    +0.000 A 
ATOM     18  N   UNL     1       2.444   2.018  18.944  0.00  0.00    +0.000 N 
ATOM     19  C   UNL     1       2.916   2.056  17.653  0.00  0.00    +0.000 A 
ATOM     20  C   UNL     1       2.940   3.383  17.257  0.00  0.00    +0.000 A 
ATOM     21  C   UNL     1       2.472   4.183  18.353  0.00  0.00    +0.000 A 
ATOM     22  C   UNL     1       2.283   5.585  18.614  0.00  0.00    +0.000 A 
ATOM     23  H   UNL     1       2.334   1.167  19.477  0.00  0.00    +0.000 HD
ENDBRANCH  10  14
BRANCH   1  25
ATOM     24  C   UNL     1       1.893  13.699  20.800  0.00  0.00    +0.000 C 
ATOM     25  C   UNL     1       0.867  14.073  19.684  0.00  0.00    +0.000 C 
BRANCH  25  26
ATOM     26  C   UNL     1       1.600  15.219  18.894  0.00  0.00    +0.000 A 
ATOM     27  C   UNL     1       1.057  16.485  18.601  0.00  0.00    +0.000 A 
ATOM     28  C   UNL     1       1.732  17.404  17.755  0.00  0.00    +0.000 A 
ATOM     29  C   UNL     1       2.947  17.074  17.161  0.00  0.00    +0.000 A 
ATOM     30  C   UNL     1       3.468  15.806  17.368  0.00  0.00    +0.000 A 
ATOM     31  C   UNL     1       2.802  14.894  18.212  0.00  0.00    +0.000 A 
ENDBRANCH  25  26
ENDBRANCH   1  25
TORSDOF 3
ENDMDL
MODEL 8
REMARK VINA RESULT:      -8.2      2.931      4.372
REMARK  Name = 
REMARK  4 active torsions:
REMARK  status: ('A' for Active; 'I' for Inactive)
REMARK    1  A    between atoms: C_1  and  C_2
REMARK    2  A    between atoms: C_2  and  C_3
REMARK    3  A    between atoms: C_2  and  N_9
REMARK    4  A    between atoms: C_18  and  C_19
REMARK                            x       y       z     vdW  Elec       q    Type
REMARK                         _______ _______ _______ _____ _____    ______ ____
ROOT
ATOM      1  N   UNL     1       6.441   5.397  15.912  0.00  0.00    +0.000 N 
ATOM      2  N   UNL     1       7.605   6.113  15.749  0.00  0.00    +0.000 NA
ATOM      3  N   UNL     1       7.757   6.777  16.883  0.00  0.00    +0.000 NA
ATOM      4  C   UNL     1       6.599   6.569  17.561  0.00  0.00    +0.000 A 
ATOM      5  C   UNL     1       6.365   6.277  18.901  0.00  0.00    +0.000 A 
ATOM      6  N   UNL     1       5.274   5.474  19.191  0.00  0.00    +0.000 NA
ATOM      7  C   UNL     1       4.205   5.501  18.392  0.00  0.00    +0.000 A 
ATOM      8  C   UNL     1       3.011   5.163  18.985  0.00  0.00    +0.000 A 
ATOM      9  C   UNL     1       2.011   6.135  19.156  0.00  0.00    +0.000 A 
ATOM     10  C   UNL     1       2.209   7.450  18.732  0.00  0.00    +0.000 A 
ATOM     11  C   UNL     1       3.257   7.529  17.713  0.00  0.00    +0.000 A 
ATOM     12  C   UNL     1       4.209   6.389  17.352  0.00  0.00    +0.000 A 
ATOM     13  C   UNL     1       5.536   6.291  16.654  0.00  0.00    +0.000 A 
ENDROOT
BRANCH  10  14
ATOM     14  C   UNL     1       1.429   8.582  19.509  0.00  0.00    +0.000 A 
ATOM     15  C   UNL     1       1.330   9.923  19.106  0.00  0.00    +0.000 A 
ATOM     16  C   UNL     1       0.717  10.951  19.899  0.00  0.00    +0.000 A 
ATOM     17  C   UNL     1       0.182  10.642  21.147  0.00  0.00    +0.000 A 
ATOM     18  N   UNL     1      -0.411  11.446  22.112  0.00  0.00    +0.000 N 
ATOM     19  C   UNL     1      -0.783  10.685  23.196  0.00  0.00    +0.000 A 
ATOM     20  C   UNL     1      -0.418   9.376  22.931  0.00  0.00    +0.000 A 
ATOM     21  C   UNL     1       0.206   9.340  21.640  0.00  0.00    +0.000 A 
ATOM     22  C   UNL     1       0.820   8.342  20.805  0.00  0.00    +0.000 A 
ATOM     23  H   UNL     1      -0.557  12.443  22.050  0.00  0.00    +0.000 HD
ENDBRANCH  10  14
BRANCH   1  25
ATOM     24  C   UNL     1       5.448   3.042  15.991  0.00  0.00    +0.000 C 
ATOM     25  C   UNL     1       6.439   4.028  15.294  0.00  0.00    +0.000 C 
BRANCH  25  26
ATOM     26  C   UNL     1       6.067   3.891  13.772  0.00  0.00    +0.000 A 
ATOM     27  C   UNL     1       4.800   3.531  13.270  0.00  0.00    +0.000 A 
ATOM     28  C   UNL     1       4.592   3.285  11.887  0.00  0.00    +0.000 A 
ATOM     29  C   UNL     1       5.643   3.366  10.978  0.00  0.00    +0.000 A 
ATOM     30  C   UNL     1       6.917   3.641  11.453  0.00  0.00    +0.000 A 
ATOM     31  C   UNL     1       7.125   3.889  12.825  0.00  0.00    +0.000 A 
ENDBRANCH  25  26
ENDBRANCH   1  25
TORSDOF 3
ENDMDL
MODEL 9
REMARK VINA RESULT:      -8.1      1.185      1.599
REMARK  Name = 
REMARK  4 active torsions:
REMARK  status: ('A' for Active; 'I' for Inactive)
REMARK    1  A    between atoms: C_1  and  C_2
REMARK    2  A    between atoms: C_2  and  C_3
REMARK    3  A    between atoms: C_2  and  N_9
REMARK    4  A    between atoms: C_18  and  C_19
REMARK                            x       y       z     vdW  Elec       q    Type
REMARK                         _______ _______ _______ _____ _____    ______ ____
ROOT
ATOM      1  N   UNL     1       3.315   3.746  20.336  0.00  0.00    +0.000 N 
ATOM      2  N   UNL     1       2.503   2.767  20.861  0.00  0.00    +0.000 NA
ATOM      3  N   UNL     1       1.315   2.985  20.321  0.00  0.00    +0.000 NA
ATOM      4  C   UNL     1       1.445   4.171  19.674  0.00  0.00    +0.000 A 
ATOM      5  C   UNL     1       1.003   4.580  18.419  0.00  0.00    +0.000 A 
ATOM      6  N   UNL     1       1.791   5.493  17.739  0.00  0.00    +0.000 NA
ATOM      7  C   UNL     1       2.525   6.371  18.427  0.00  0.00    +0.000 A 
ATOM      8  C   UNL     1       2.815   7.546  17.772  0.00  0.00    +0.000 A 
ATOM      9  C   UNL     1       2.256   8.755  18.219  0.00  0.00    +0.000 A 
ATOM     10  C   UNL     1       1.404   8.786  19.325  0.00  0.00    +0.000 A 
ATOM     11  C   UNL     1       1.595   7.612  20.178  0.00  0.00    +0.000 A 
ATOM     12  C   UNL     1       2.404   6.374  19.789  0.00  0.00    +0.000 A 
ATOM     13  C   UNL     1       2.475   4.953  20.271  0.00  0.00    +0.000 A 
ENDROOT
BRANCH  10  14
ATOM     14  C   UNL     1       0.322   9.935  19.367  0.00  0.00    +0.000 A 
ATOM     15  C   UNL     1      -0.441  10.371  18.272  0.00  0.00    +0.000 A 
ATOM     16  C   UNL     1      -1.327  11.500  18.317  0.00  0.00    +0.000 A 
ATOM     17  C   UNL     1      -1.463  12.234  19.492  0.00  0.00    +0.000 A 
ATOM     18  N   UNL     1      -2.202  13.374  19.779  0.00  0.00    +0.000 N 
ATOM     19  C   UNL     1      -2.012  13.742  21.091  0.00  0.00    +0.000 A 
ATOM     20  C   UNL     1      -1.133  12.833  21.655  0.00  0.00    +0.000 A 
ATOM     21  C   UNL     1      -0.769  11.880  20.646  0.00  0.00    +0.000 A 
ATOM     22  C   UNL     1       0.098  10.735  20.557  0.00  0.00    +0.000 A 
ATOM     23  H   UNL     1      -2.797  13.877  19.136  0.00  0.00    +0.000 HD
ENDBRANCH  10  14
BRANCH   1  25
ATOM     24  C   UNL     1       4.830   1.843  19.549  0.00  0.00    +0.000 C 
ATOM     25  C   UNL     1       4.725   3.320  20.042  0.00  0.00    +0.000 C 
BRANCH  25  26
ATOM     26  C   UNL     1       5.539   4.117  18.956  0.00  0.00    +0.000 A 
ATOM     27  C   UNL     1       6.463   5.147  19.222  0.00  0.00    +0.000 A 
ATOM     28  C   UNL     1       7.040   5.914  18.175  0.00  0.00    +0.000 A 
ATOM     29  C   UNL     1       6.693   5.690  16.846  0.00  0.00    +0.000 A 
ATOM     30  C   UNL     1       5.728   4.736  16.560  0.00  0.00    +0.000 A 
ATOM     31  C   UNL     1       5.156   3.971  17.597  0.00  0.00    +0.000 A 
ENDBRANCH  25  26
ENDBRANCH   1  25
TORSDOF 3
ENDMDL
