MODEL 1
REMARK VINA RESULT:      -8.3      0.000      0.000
REMARK  Name = 
REMARK  5 active torsions:
REMARK  status: ('A' for Active; 'I' for Inactive)
REMARK    1  A    between atoms: C_1  and  C_2
REMARK    2  A    between atoms: C_6  and  C_8
REMARK    3  A    between atoms: C_8  and  C_9
REMARK    4  A    between atoms: C_9  and  N_10
REMARK    5  A    between atoms: C_19  and  C_20
REMARK                            x       y       z     vdW  Elec       q    Type
REMARK                         _______ _______ _______ _____ _____    ______ ____
ROOT
ATOM      1  N   UNL     1       4.675   6.030  18.210  0.00  0.00    +0.000 NA
ATOM      2  C   UNL     1       3.477   5.274  17.788  0.00  0.00    +0.000 C 
ATOM      3  C   UNL     1       2.846   4.433  18.868  0.00  0.00    +0.000 A 
ATOM      4  C   UNL     1       1.459   4.327  19.014  0.00  0.00    +0.000 A 
ATOM      5  C   UNL     1       0.922   3.439  19.946  0.00  0.00    +0.000 A 
ATOM      6  C   UNL     1       1.766   2.646  20.723  0.00  0.00    +0.000 A 
ATOM      7  C   UNL     1       3.151   2.743  20.579  0.00  0.00    +0.000 A 
ATOM      8  C   UNL     1       3.689   3.645  19.659  0.00  0.00    +0.000 A 
ATOM      9  C   UNL     1       5.164   3.774  19.409  0.00  0.00    +0.000 C 
ATOM     10  C   UNL     1       5.559   5.251  19.151  0.00  0.00    +0.000 C 
ENDROOT
BRANCH  10  11
ATOM     11  C   UNL     1       7.065   5.269  18.828  0.00  0.00    +0.000 C 
ATOM     12  N   UNL     1       7.533   4.229  18.071  0.00  0.00    +0.000 N 
ATOM     13  O   UNL     1       7.837   6.159  19.175  0.00  0.00    +0.000 OA
ATOM     14  H   UNL     1       8.532   4.194  17.911  0.00  0.00    +0.000 HD
ATOM     15  H   UNL     1       6.987   3.394  17.913  0.00  0.00    +0.000 HD
ENDBRANCH  10  11
BRANCH   1  16
ATOM     16  C   UNL     1       5.340   6.645  17.041  0.00  0.00    +0.000 C 
BRANCH  16  17
ATOM     17  C   UNL     1       5.070   5.894  15.722  0.00  0.00    +0.000 C 
BRANCH  17  23
ATOM     18  C   UNL     1       4.468   3.045  11.156  0.00  0.00    +0.000 C 
ATOM     19  C   UNL     1       5.442   3.112  12.321  0.00  0.00    +0.000 C 
ATOM     20  C   UNL     1       6.815   3.656  11.917  0.00  0.00    +0.000 C 
ATOM     21  C   UNL     1       7.388   4.150  13.234  0.00  0.00    +0.000 C 
ATOM     22  N   UNL     1       6.228   4.622  13.966  0.00  0.00    +0.000 N 
ATOM     23  C   UNL     1       6.360   5.490  15.032  0.00  0.00    +0.000 C 
ATOM     24  O   UNL     1       7.455   5.902  15.401  0.00  0.00    +0.000 OA
ATOM     25  C   UNL     1       4.993   4.078  13.421  0.00  0.00    +0.000 C 
ENDBRANCH  17  23
ENDBRANCH  16  17
ENDBRANCH   1  16
TORSDOF 4
ENDMDL
MODEL 2
REMARK VINA RESULT:      -7.6      4.109      6.873
REMARK  Name = 
REMARK  5 active torsions:
REMARK  status: ('A' for Active; 'I' for Inactive)
REMARK    1  A    between atoms: C_1  and  C_2
REMARK    2  A    between atoms: C_6  and  C_8
REMARK    3  A    between atoms: C_8  and  C_9
REMARK    4  A    between atoms: C_9  and  N_10
REMARK    5  A    between atoms: C_19  and  C_20
REMARK                            x       y       z     vdW  Elec       q    Type
REMARK                         _______ _______ _______ _____ _____    ______ ____
ROOT
ATOM      1  N   UNL     1       3.502   6.645  18.202  0.00  0.00    +0.000 NA
ATOM      2  C   UNL     1       2.210   5.926  18.226  0.00  0.00    +0.000 C 
ATOM      3  C   UNL     1       2.316   4.444  18.481  0.00  0.00    +0.000 A 
ATOM      4  C   UNL     1       1.409   3.762  19.300  0.00  0.00    +0.000 A 
ATOM      5  C   UNL     1       1.472   2.373  19.404  0.00  0.00    +0.000 A 
ATOM      6  C   UNL     1       2.428   1.660  18.682  0.00  0.00    +0.000 A 
ATOM      7  C   UNL     1       3.332   2.333  17.859  0.00  0.00    +0.000 A 
ATOM      8  C   UNL     1       3.283   3.725  17.769  0.00  0.00    +0.000 A 
ATOM      9  C   UNL     1       4.186   4.519  16.869  0.00  0.00    +0.000 C 
ATOM     10  C   UNL     1       4.600   5.856  17.534  0.00  0.00    +0.000 C 
ENDROOT
BRANCH  10  11
ATOM     11  C   UNL     1       5.453   6.628  16.510  0.00  0.00    +0.000 C 
ATOM     12  N   UNL     1       6.598   7.204  16.990  0.00  0.00    +0.000 N 
ATOM     13  O   UNL     1       5.185   6.720  15.315  0.00  0.00    +0.000 OA
ATOM     14  H   UNL     1       7.131   7.771  16.341  0.00  0.00    +0.000 HD
ATOM     15  H   UNL     1       6.771   7.307  17.980  0.00  0.00    +0.000 HD
ENDBRANCH  10  11
BRANCH   1  16
ATOM     16  C   UNL     1       3.312   8.035  17.736  0.00  0.00    +0.000 C 
BRANCH  16  17
ATOM     17  C   UNL     1       1.849   8.511  17.816  0.00  0.00    +0.000 C 
BRANCH  17  23
ATOM     18  C   UNL     1      -0.286   9.485  22.697  0.00  0.00    +0.000 C 
ATOM     19  C   UNL     1      -0.265  10.141  21.326  0.00  0.00    +0.000 C 
ATOM     20  C   UNL     1       0.532  11.448  21.305  0.00  0.00    +0.000 C 
ATOM     21  C   UNL     1       0.886  11.609  19.837  0.00  0.00    +0.000 C 
ATOM     22  N   UNL     1       1.059  10.247  19.366  0.00  0.00    +0.000 N 
ATOM     23  C   UNL     1       1.755   9.975  18.205  0.00  0.00    +0.000 C 
ATOM     24  O   UNL     1       2.258  10.865  17.526  0.00  0.00    +0.000 OA
ATOM     25  C   UNL     1       0.435   9.287  20.265  0.00  0.00    +0.000 C 
ENDBRANCH  17  23
ENDBRANCH  16  17
ENDBRANCH   1  16
TORSDOF 4
ENDMDL
MODEL 3
REMARK VINA RESULT:      -7.2      2.287      2.797
REMARK  Name = 
REMARK  5 active torsions:
REMARK  status: ('A' for Active; 'I' for Inactive)
REMARK    1  A    between atoms: C_1  and  C_2
REMARK    2  A    between atoms: C_6  and  C_8
REMARK    3  A    between atoms: C_8  and  C_9
REMARK    4  A    between atoms: C_9  and  N_10
REMARK    5  A    between atoms: C_19  and  C_20
REMARK                            x       y       z     vdW  Elec       q    Type
REMARK                         _______ _______ _______ _____ _____    ______ ____
ROOT
ATOM      1  N   UNL     1       4.693   4.920  18.723  0.00  0.00    +0.000 NA
ATOM      2  C   UNL     1       3.806   6.000  18.244  0.00  0.00    +0.000 C 
ATOM      3  C   UNL     1       2.846   6.536  19.276  0.00  0.00    +0.000 A 
ATOM      4  C   UNL     1       2.554   7.900  19.383  0.00  0.00    +0.000 A 
ATOM      5  C   UNL     1       1.568   8.333  20.269  0.00  0.00    +0.000 A 
ATOM      6  C   UNL     1       0.861   7.408  21.036  0.00  0.00    +0.000 A 
ATOM      7  C   UNL     1       1.144   6.046  20.930  0.00  0.00    +0.000 A 
ATOM      8  C   UNL     1       2.145   5.612  20.058  0.00  0.00    +0.000 A 
ATOM      9  C   UNL     1       2.475   4.162  19.849  0.00  0.00    +0.000 C 
ATOM     10  C   UNL     1       3.999   3.960  19.656  0.00  0.00    +0.000 C 
ENDROOT
BRANCH  10  11
ATOM     11  C   UNL     1       4.227   2.463  19.372  0.00  0.00    +0.000 C 
ATOM     12  N   UNL     1       5.142   1.830  20.167  0.00  0.00    +0.000 N 
ATOM     13  O   UNL     1       3.622   1.822  18.517  0.00  0.00    +0.000 OA
ATOM     14  H   UNL     1       5.350   0.864  19.945  0.00  0.00    +0.000 HD
ATOM     15  H   UNL     1       5.785   2.342  20.756  0.00  0.00    +0.000 HD
ENDBRANCH  10  11
BRANCH   1  16
ATOM     16  C   UNL     1       5.436   4.319  17.594  0.00  0.00    +0.000 C 
BRANCH  16  17
ATOM     17  C   UNL     1       5.110   4.968  16.236  0.00  0.00    +0.000 C 
BRANCH  17  23
ATOM     18  C   UNL     1       4.805   2.989  11.203  0.00  0.00    +0.000 C 
ATOM     19  C   UNL     1       5.860   3.157  12.285  0.00  0.00    +0.000 C 
ATOM     20  C   UNL     1       6.927   4.191  11.920  0.00  0.00    +0.000 C 
ATOM     21  C   UNL     1       7.493   4.592  13.271  0.00  0.00    +0.000 C 
ATOM     22  N   UNL     1       6.355   4.506  14.167  0.00  0.00    +0.000 N 
ATOM     23  C   UNL     1       6.355   5.152  15.387  0.00  0.00    +0.000 C 
ATOM     24  O   UNL     1       7.307   5.828  15.763  0.00  0.00    +0.000 OA
ATOM     25  C   UNL     1       5.288   3.695  13.600  0.00  0.00    +0.000 C 
ENDBRANCH  17  23
ENDBRANCH  16  17
ENDBRANCH   1  16
TORSDOF 4
ENDMDL
MODEL 4
REMARK VINA RESULT:      -7.1      4.082      6.822
REMARK  Name = 
REMARK  5 active torsions:
REMARK  status: ('A' for Active; 'I' for Inactive)
REMARK    1  A    between atoms: C_1  and  C_2
REMARK    2  A    between atoms: C_6  and  C_8
REMARK    3  A    between atoms: C_8  and  C_9
REMARK    4  A    between atoms: C_9  and  N_10
REMARK    5  A    between atoms: C_19  and  C_20
REMARK                            x       y       z     vdW  Elec       q    Type
REMARK                         _______ _______ _______ _____ _____    ______ ____
ROOT
ATOM      1  N   UNL     1       3.563   6.836  18.593  0.00  0.00    +0.000 NA
ATOM      2  C   UNL     1       2.357   6.112  19.048  0.00  0.00    +0.000 C 
ATOM      3  C   UNL     1       2.633   4.864  19.849  0.00  0.00    +0.000 A 
ATOM      4  C   UNL     1       1.870   4.516  20.969  0.00  0.00    +0.000 A 
ATOM      5  C   UNL     1       2.081   3.291  21.602  0.00  0.00    +0.000 A 
ATOM      6  C   UNL     1       3.041   2.406  21.110  0.00  0.00    +0.000 A 
ATOM      7  C   UNL     1       3.801   2.746  19.990  0.00  0.00    +0.000 A 
ATOM      8  C   UNL     1       3.604   3.980  19.368  0.00  0.00    +0.000 A 
ATOM      9  C   UNL     1       4.344   4.399  18.130  0.00  0.00    +0.000 C 
ATOM     10  C   UNL     1       4.675   5.913  18.165  0.00  0.00    +0.000 C 
ENDROOT
BRANCH  10  11
ATOM     11  C   UNL     1       5.358   6.259  16.828  0.00  0.00    +0.000 C 
ATOM     12  N   UNL     1       6.442   7.089  16.902  0.00  0.00    +0.000 N 
ATOM     13  O   UNL     1       5.010   5.813  15.737  0.00  0.00    +0.000 OA
ATOM     14  H   UNL     1       6.857   7.379  16.024  0.00  0.00    +0.000 HD
ATOM     15  H   UNL     1       6.658   7.616  17.736  0.00  0.00    +0.000 HD
ENDBRANCH  10  11
BRANCH   1  16
ATOM     16  C   UNL     1       3.196   7.909  17.645  0.00  0.00    +0.000 C 
BRANCH  16  17
ATOM     17  C   UNL     1       1.762   8.437  17.845  0.00  0.00    +0.000 C 
BRANCH  17  23
ATOM     18  C   UNL     1      -0.365   9.632  22.681  0.00  0.00    +0.000 C 
ATOM     19  C   UNL     1      -0.290  10.258  21.298  0.00  0.00    +0.000 C 
ATOM     20  C   UNL     1       0.583  11.515  21.261  0.00  0.00    +0.000 C 
ATOM     21  C   UNL     1       0.963  11.626  19.794  0.00  0.00    +0.000 C 
ATOM     22  N   UNL     1       1.060  10.247  19.353  0.00  0.00    +0.000 N 
ATOM     23  C   UNL     1       1.750   9.911  18.205  0.00  0.00    +0.000 C 
ATOM     24  O   UNL     1       2.313  10.756  17.516  0.00  0.00    +0.000 OA
ATOM     25  C   UNL     1       0.370   9.344  20.262  0.00  0.00    +0.000 C 
ENDBRANCH  17  23
ENDBRANCH  16  17
ENDBRANCH   1  16
TORSDOF 4
ENDMDL
MODEL 5
REMARK VINA RESULT:      -7.1      4.056      7.643
REMARK  Name = 
REMARK  5 active torsions:
REMARK  status: ('A' for Active; 'I' for Inactive)
REMARK    1  A    between atoms: C_1  and  C_2
REMARK    2  A    between atoms: C_6  and  C_8
REMARK    3  A    between atoms: C_8  and  C_9
REMARK    4  A    between atoms: C_9  and  N_10
REMARK    5  A    between atoms: C_19  and  C_20
REMARK                            x       y       z     vdW  Elec       q    Type
REMARK                         _______ _______ _______ _____ _____    ______ ____
ROOT
ATOM      1  N   UNL     1       2.648   5.233  17.913  0.00  0.00    +0.000 NA
ATOM      2  C   UNL     1       3.945   5.888  17.640  0.00  0.00    +0.000 C 
ATOM      3  C   UNL     1       4.745   5.266  16.524  0.00  0.00    +0.000 A 
ATOM      4  C   UNL     1       5.456   6.039  15.599  0.00  0.00    +0.000 A 
ATOM      5  C   UNL     1       6.282   5.418  14.662  0.00  0.00    +0.000 A 
ATOM      6  C   UNL     1       6.411   4.029  14.655  0.00  0.00    +0.000 A 
ATOM      7  C   UNL     1       5.708   3.254  15.578  0.00  0.00    +0.000 A 
ATOM      8  C   UNL     1       4.866   3.873  16.504  0.00  0.00    +0.000 A 
ATOM      9  C   UNL     1       4.116   3.115  17.560  0.00  0.00    +0.000 C 
ATOM     10  C   UNL     1       2.713   3.731  17.797  0.00  0.00    +0.000 C 
ENDROOT
BRANCH  10  11
ATOM     11  C   UNL     1       2.057   2.939  18.945  0.00  0.00    +0.000 C 
ATOM     12  N   UNL     1       0.768   2.534  18.738  0.00  0.00    +0.000 N 
ATOM     13  O   UNL     1       2.628   2.634  19.989  0.00  0.00    +0.000 OA
ATOM     14  H   UNL     1       0.304   2.073  19.512  0.00  0.00    +0.000 HD
ATOM     15  H   UNL     1       0.204   2.904  17.986  0.00  0.00    +0.000 HD
ENDBRANCH  10  11
BRANCH   1  16
ATOM     16  C   UNL     1       2.045   5.772  19.151  0.00  0.00    +0.000 C 
BRANCH  16  17
ATOM     17  C   UNL     1       2.666   7.109  19.600  0.00  0.00    +0.000 C 
BRANCH  17  23
ATOM     18  C   UNL     1      -0.224   9.735  23.354  0.00  0.00    +0.000 C 
ATOM     19  C   UNL     1      -0.347   9.382  21.880  0.00  0.00    +0.000 C 
ATOM     20  C   UNL     1      -0.240  10.605  20.966  0.00  0.00    +0.000 C 
ATOM     21  C   UNL     1       0.168  10.001  19.633  0.00  0.00    +0.000 C 
ATOM     22  N   UNL     1       0.998   8.869  20.000  0.00  0.00    +0.000 N 
ATOM     23  C   UNL     1       1.869   8.297  19.095  0.00  0.00    +0.000 C 
ATOM     24  O   UNL     1       1.984   8.721  17.949  0.00  0.00    +0.000 OA
ATOM     25  C   UNL     1       0.782   8.475  21.385  0.00  0.00    +0.000 C 
ENDBRANCH  17  23
ENDBRANCH  16  17
ENDBRANCH   1  16
TORSDOF 4
ENDMDL
MODEL 6
REMARK VINA RESULT:      -7.0      4.379      6.666
REMARK  Name = 
REMARK  5 active torsions:
REMARK  status: ('A' for Active; 'I' for Inactive)
REMARK    1  A    between atoms: C_1  and  C_2
REMARK    2  A    between atoms: C_6  and  C_8
REMARK    3  A    between atoms: C_8  and  C_9
REMARK    4  A    between atoms: C_9  and  N_10
REMARK    5  A    between atoms: C_19  and  C_20
REMARK                            x       y       z     vdW  Elec       q    Type
REMARK                         _______ _______ _______ _____ _____    ______ ____
ROOT
ATOM      1  N   UNL     1       3.342   6.736  18.219  0.00  0.00    +0.000 NA
ATOM      2  C   UNL     1       2.073   5.978  18.210  0.00  0.00    +0.000 C 
ATOM      3  C   UNL     1       2.215   4.503  18.489  0.00  0.00    +0.000 A 
ATOM      4  C   UNL     1       1.301   3.805  19.287  0.00  0.00    +0.000 A 
ATOM      5  C   UNL     1       1.403   2.420  19.413  0.00  0.00    +0.000 A 
ATOM      6  C   UNL     1       2.404   1.727  18.733  0.00  0.00    +0.000 A 
ATOM      7  C   UNL     1       3.315   2.417  17.932  0.00  0.00    +0.000 A 
ATOM      8  C   UNL     1       3.226   3.806  17.820  0.00  0.00    +0.000 A 
ATOM      9  C   UNL     1       4.135   4.614  16.940  0.00  0.00    +0.000 C 
ATOM     10  C   UNL     1       4.485   5.972  17.600  0.00  0.00    +0.000 C 
ENDROOT
BRANCH  10  11
ATOM     11  C   UNL     1       5.349   6.757  16.593  0.00  0.00    +0.000 C 
ATOM     12  N   UNL     1       6.491   7.322  17.091  0.00  0.00    +0.000 N 
ATOM     13  O   UNL     1       5.091   6.867  15.398  0.00  0.00    +0.000 OA
ATOM     14  H   UNL     1       7.031   7.897  16.455  0.00  0.00    +0.000 HD
ATOM     15  H   UNL     1       6.656   7.411  18.084  0.00  0.00    +0.000 HD
ENDBRANCH  10  11
BRANCH   1  16
ATOM     16  C   UNL     1       3.126   8.113  17.727  0.00  0.00    +0.000 C 
BRANCH  16  17
ATOM     17  C   UNL     1       1.638   8.496  17.618  0.00  0.00    +0.000 C 
BRANCH  17  23
ATOM     18  C   UNL     1      -3.569   9.986  17.697  0.00  0.00    +0.000 C 
ATOM     19  C   UNL     1      -2.209  10.651  17.555  0.00  0.00    +0.000 C 
ATOM     20  C   UNL     1      -1.841  11.516  18.763  0.00  0.00    +0.000 C 
ATOM     21  C   UNL     1      -0.327  11.599  18.676  0.00  0.00    +0.000 C 
ATOM     22  N   UNL     1       0.064  10.314  18.126  0.00  0.00    +0.000 N 
ATOM     23  C   UNL     1       1.356   9.846  18.252  0.00  0.00    +0.000 C 
ATOM     24  O   UNL     1       2.225  10.488  18.834  0.00  0.00    +0.000 OA
ATOM     25  C   UNL     1      -1.057   9.646  17.480  0.00  0.00    +0.000 C 
ENDBRANCH  17  23
ENDBRANCH  16  17
ENDBRANCH   1  16
TORSDOF 4
ENDMDL
MODEL 7
REMARK VINA RESULT:      -7.0      3.051      4.624
REMARK  Name = 
REMARK  5 active torsions:
REMARK  status: ('A' for Active; 'I' for Inactive)
REMARK    1  A    between atoms: C_1  and  C_2
REMARK    2  A    between atoms: C_6  and  C_8
REMARK    3  A    between atoms: C_8  and  C_9
REMARK    4  A    between atoms: C_9  and  N_10
REMARK    5  A    between atoms: C_19  and  C_20
REMARK                            x       y       z     vdW  Elec       q    Type
REMARK                         _______ _______ _______ _____ _____    ______ ____
ROOT
ATOM      1  N   UNL     1       3.109   5.123  19.221  0.00  0.00    +0.000 NA
ATOM      2  C   UNL     1       2.580   6.016  18.169  0.00  0.00    +0.000 C 
ATOM      3  C   UNL     1       2.221   7.403  18.638  0.00  0.00    +0.000 A 
ATOM      4  C   UNL     1       2.491   8.542  17.870  0.00  0.00    +0.000 A 
ATOM      5  C   UNL     1       2.028   9.789  18.287  0.00  0.00    +0.000 A 
ATOM      6  C   UNL     1       1.282   9.902  19.460  0.00  0.00    +0.000 A 
ATOM      7  C   UNL     1       1.004   8.770  20.227  0.00  0.00    +0.000 A 
ATOM      8  C   UNL     1       1.484   7.523  19.821  0.00  0.00    +0.000 A 
ATOM      9  C   UNL     1       1.187   6.252  20.562  0.00  0.00    +0.000 C 
ATOM     10  C   UNL     1       2.409   5.298  20.545  0.00  0.00    +0.000 C 
ENDROOT
BRANCH  10  11
ATOM     11  C   UNL     1       1.982   4.000  21.256  0.00  0.00    +0.000 C 
ATOM     12  N   UNL     1       0.830   3.416  20.806  0.00  0.00    +0.000 N 
ATOM     13  O   UNL     1       2.623   3.460  22.155  0.00  0.00    +0.000 OA
ATOM     14  H   UNL     1       0.504   2.601  21.311  0.00  0.00    +0.000 HD
ATOM     15  H   UNL     1       0.183   3.903  20.202  0.00  0.00    +0.000 HD
ENDBRANCH  10  11
BRANCH   1  16
ATOM     16  C   UNL     1       3.225   3.739  18.716  0.00  0.00    +0.000 C 
BRANCH  16  17
ATOM     17  C   UNL     1       4.645   3.156  18.856  0.00  0.00    +0.000 C 
BRANCH  17  23
ATOM     18  C   UNL     1       5.660   4.050  13.612  0.00  0.00    +0.000 C 
ATOM     19  C   UNL     1       6.432   4.030  14.920  0.00  0.00    +0.000 C 
ATOM     20  C   UNL     1       6.909   5.419  15.351  0.00  0.00    +0.000 C 
ATOM     21  C   UNL     1       7.123   5.259  16.847  0.00  0.00    +0.000 C 
ATOM     22  N   UNL     1       6.101   4.311  17.248  0.00  0.00    +0.000 N 
ATOM     23  C   UNL     1       5.711   4.196  18.567  0.00  0.00    +0.000 C 
ATOM     24  O   UNL     1       6.204   4.889  19.452  0.00  0.00    +0.000 OA
ATOM     25  C   UNL     1       5.585   3.567  16.108  0.00  0.00    +0.000 C 
ENDBRANCH  17  23
ENDBRANCH  16  17
ENDBRANCH   1  16
TORSDOF 4
ENDMDL
MODEL 8
REMARK VINA RESULT:      -7.0      2.501      6.581
REMARK  Name = 
REMARK  5 active torsions:
REMARK  status: ('A' for Active; 'I' for Inactive)
REMARK    1  A    between atoms: C_1  and  C_2
REMARK    2  A    between atoms: C_6  and  C_8
REMARK    3  A    between atoms: C_8  and  C_9
REMARK    4  A    between atoms: C_9  and  N_10
REMARK    5  A    between atoms: C_19  and  C_20
REMARK                            x       y       z     vdW  Elec       q    Type
REMARK                         _______ _______ _______ _____ _____    ______ ____
ROOT
ATOM      1  N   UNL     1       5.739   4.252  17.476  0.00  0.00    +0.000 NA
ATOM      2  C   UNL     1       4.906   4.467  16.274  0.00  0.00    +0.000 C 
ATOM      3  C   UNL     1       5.627   4.284  14.963  0.00  0.00    +0.000 A 
ATOM      4  C   UNL     1       5.029   3.654  13.866  0.00  0.00    +0.000 A 
ATOM      5  C   UNL     1       5.688   3.621  12.637  0.00  0.00    +0.000 A 
ATOM      6  C   UNL     1       6.936   4.227  12.496  0.00  0.00    +0.000 A 
ATOM      7  C   UNL     1       7.536   4.861  13.585  0.00  0.00    +0.000 A 
ATOM      8  C   UNL     1       6.886   4.878  14.820  0.00  0.00    +0.000 A 
ATOM      9  C   UNL     1       7.440   5.582  16.026  0.00  0.00    +0.000 C 
ATOM     10  C   UNL     1       7.141   4.786  17.322  0.00  0.00    +0.000 C 
ENDROOT
BRANCH  10  11
ATOM     11  C   UNL     1       7.674   5.621  18.501  0.00  0.00    +0.000 C 
ATOM     12  N   UNL     1       7.748   6.972  18.299  0.00  0.00    +0.000 N 
ATOM     13  O   UNL     1       7.994   5.154  19.592  0.00  0.00    +0.000 OA
ATOM     14  H   UNL     1       8.161   7.523  19.042  0.00  0.00    +0.000 HD
ATOM     15  H   UNL     1       7.668   7.381  17.379  0.00  0.00    +0.000 HD
ENDBRANCH  10  11
BRANCH   1  16
ATOM     16  C   UNL     1       5.008   4.662  18.694  0.00  0.00    +0.000 C 
BRANCH  16  17
ATOM     17  C   UNL     1       3.480   4.704  18.503  0.00  0.00    +0.000 C 
BRANCH  17  23
ATOM     18  C   UNL     1       1.375   9.649  17.829  0.00  0.00    +0.000 C 
ATOM     19  C   UNL     1       2.029   8.846  18.941  0.00  0.00    +0.000 C 
ATOM     20  C   UNL     1       1.053   8.474  20.060  0.00  0.00    +0.000 C 
ATOM     21  C   UNL     1       1.720   7.277  20.714  0.00  0.00    +0.000 C 
ATOM     22  N   UNL     1       2.388   6.604  19.615  0.00  0.00    +0.000 N 
ATOM     23  C   UNL     1       2.777   5.284  19.717  0.00  0.00    +0.000 C 
ATOM     24  O   UNL     1       2.573   4.623  20.731  0.00  0.00    +0.000 OA
ATOM     25  C   UNL     1       2.553   7.486  18.469  0.00  0.00    +0.000 C 
ENDBRANCH  17  23
ENDBRANCH  16  17
ENDBRANCH   1  16
TORSDOF 4
ENDMDL
MODEL 9
REMARK VINA RESULT:      -7.0      2.325      6.744
REMARK  Name = 
REMARK  5 active torsions:
REMARK  status: ('A' for Active; 'I' for Inactive)
REMARK    1  A    between atoms: C_1  and  C_2
REMARK    2  A    between atoms: C_6  and  C_8
REMARK    3  A    between atoms: C_8  and  C_9
REMARK    4  A    between atoms: C_9  and  N_10
REMARK    5  A    between atoms: C_19  and  C_20
REMARK                            x       y       z     vdW  Elec       q    Type
REMARK                         _______ _______ _______ _____ _____    ______ ____
ROOT
ATOM      1  N   UNL     1       5.858   3.912  16.917  0.00  0.00    +0.000 NA
ATOM      2  C   UNL     1       5.044   4.122  15.701  0.00  0.00    +0.000 C 
ATOM      3  C   UNL     1       5.820   4.095  14.408  0.00  0.00    +0.000 A 
ATOM      4  C   UNL     1       5.321   3.482  13.254  0.00  0.00    +0.000 A 
ATOM      5  C   UNL     1       6.018   3.591  12.051  0.00  0.00    +0.000 A 
ATOM      6  C   UNL     1       7.203   4.324  11.993  0.00  0.00    +0.000 A 
ATOM      7  C   UNL     1       7.703   4.942  13.140  0.00  0.00    +0.000 A 
ATOM      8  C   UNL     1       7.017   4.817  14.349  0.00  0.00    +0.000 A 
ATOM      9  C   UNL     1       7.462   5.492  15.614  0.00  0.00    +0.000 C 
ATOM     10  C   UNL     1       7.203   4.589  16.848  0.00  0.00    +0.000 C 
ENDROOT
BRANCH  10  11
ATOM     11  C   UNL     1       7.615   5.395  18.095  0.00  0.00    +0.000 C 
ATOM     12  N   UNL     1       7.446   6.750  18.020  0.00  0.00    +0.000 N 
ATOM     13  O   UNL     1       8.041   4.894  19.132  0.00  0.00    +0.000 OA
ATOM     14  H   UNL     1       7.777   7.295  18.807  0.00  0.00    +0.000 HD
ATOM     15  H   UNL     1       7.270   7.220  17.144  0.00  0.00    +0.000 HD
ENDBRANCH  10  11
BRANCH   1  16
ATOM     16  C   UNL     1       5.053   4.170  18.130  0.00  0.00    +0.000 C 
BRANCH  16  17
ATOM     17  C   UNL     1       3.554   3.865  17.944  0.00  0.00    +0.000 C 
BRANCH  17  23
ATOM     18  C   UNL     1       1.604   8.802  19.019  0.00  0.00    +0.000 C 
ATOM     19  C   UNL     1       2.168   7.622  19.793  0.00  0.00    +0.000 C 
ATOM     20  C   UNL     1       1.114   6.911  20.646  0.00  0.00    +0.000 C 
ATOM     21  C   UNL     1       1.712   5.530  20.850  0.00  0.00    +0.000 C 
ATOM     22  N   UNL     1       2.434   5.275  19.617  0.00  0.00    +0.000 N 
ATOM     23  C   UNL     1       2.788   3.993  19.248  0.00  0.00    +0.000 C 
ATOM     24  O   UNL     1       2.505   3.018  19.937  0.00  0.00    +0.000 OA
ATOM     25  C   UNL     1       2.692   6.506  18.884  0.00  0.00    +0.000 C 
ENDBRANCH  17  23
ENDBRANCH  16  17
ENDBRANCH   1  16
TORSDOF 4
ENDMDL
