MODEL 1
REMARK VINA RESULT:      -7.4      0.000      0.000
REMARK  Name = 
REMARK  3 active torsions:
REMARK  status: ('A' for Active; 'I' for Inactive)
REMARK    1  A    between atoms: O_1  and  C_2
REMARK    2  A    between atoms: C_5  and  N_6
REMARK    3  A    between atoms: N_6  and  C_7
REMARK                            x       y       z     vdW  Elec       q    Type
REMARK                         _______ _______ _______ _____ _____    ______ ____
ROOT
ATOM      1  N   UNL     1       5.766   3.691  19.067  0.00  0.00    +0.000 N 
ATOM      2  H   UNL     1       6.380   2.995  19.515  0.00  0.00    +0.000 HD
ENDROOT
BRANCH   1   3
ATOM      3  C   UNL     1       6.312   4.688  18.204  0.00  0.00    +0.000 A 
ATOM      4  N   UNL     1       6.944   5.757  18.770  0.00  0.00    +0.000 NA
ATOM      5  C   UNL     1       7.533   6.723  18.034  0.00  0.00    +0.000 A 
ATOM      6  N   UNL     1       7.537   6.637  16.686  0.00  0.00    +0.000 NA
ATOM      7  C   UNL     1       6.933   5.598  16.050  0.00  0.00    +0.000 A 
ATOM      8  C   UNL     1       6.994   5.519  14.658  0.00  0.00    +0.000 A 
ATOM      9  C   UNL     1       6.397   4.450  13.992  0.00  0.00    +0.000 A 
ATOM     10  C   UNL     1       5.729   3.458  14.713  0.00  0.00    +0.000 A 
ATOM     11  C   UNL     1       5.664   3.519  16.110  0.00  0.00    +0.000 A 
ATOM     12  C   UNL     1       6.271   4.591  16.796  0.00  0.00    +0.000 A 
ENDBRANCH   1   3
BRANCH   1  16
ATOM     13  C   UNL     1       1.603   3.578  19.891  0.00  0.00    +0.000 A 
ATOM     14  C   UNL     1       2.298   4.799  19.957  0.00  0.00    +0.000 A 
ATOM     15  C   UNL     1       3.672   4.844  19.676  0.00  0.00    +0.000 A 
ATOM     16  C   UNL     1       4.365   3.665  19.352  0.00  0.00    +0.000 A 
ATOM     17  C   UNL     1       3.640   2.456  19.271  0.00  0.00    +0.000 A 
ATOM     18  C   UNL     1       2.278   2.416  19.537  0.00  0.00    +0.000 A 
BRANCH  13  19
ATOM     19  O   UNL     1       0.285   3.507  20.165  0.00  0.00    +0.000 OA
ATOM     20  H   UNL     1      -0.221   2.687  20.081  0.00  0.00    +0.000 HD
ENDBRANCH  13  19
ENDBRANCH   1  16
TORSDOF 3
ENDMDL
MODEL 2
REMARK VINA RESULT:      -7.3      0.035      1.142
REMARK  Name = 
REMARK  3 active torsions:
REMARK  status: ('A' for Active; 'I' for Inactive)
REMARK    1  A    between atoms: O_1  and  C_2
REMARK    2  A    between atoms: C_5  and  N_6
REMARK    3  A    between atoms: N_6  and  C_7
REMARK                            x       y       z     vdW  Elec       q    Type
REMARK                         _______ _______ _______ _____ _____    ______ ____
ROOT
ATOM      1  N   UNL     1       5.758   3.668  19.067  0.00  0.00    +0.000 N 
ATOM      2  H   UNL     1       6.374   2.977  19.521  0.00  0.00    +0.000 HD
ENDROOT
BRANCH   1   3
ATOM      3  C   UNL     1       6.304   4.672  18.213  0.00  0.00    +0.000 A 
ATOM      4  N   UNL     1       6.937   5.736  18.786  0.00  0.00    +0.000 NA
ATOM      5  C   UNL     1       7.527   6.708  18.058  0.00  0.00    +0.000 A 
ATOM      6  N   UNL     1       7.530   6.632  16.709  0.00  0.00    +0.000 NA
ATOM      7  C   UNL     1       6.925   5.599  16.066  0.00  0.00    +0.000 A 
ATOM      8  C   UNL     1       6.986   5.531  14.673  0.00  0.00    +0.000 A 
ATOM      9  C   UNL     1       6.388   4.468  13.998  0.00  0.00    +0.000 A 
ATOM     10  C   UNL     1       5.719   3.470  14.712  0.00  0.00    +0.000 A 
ATOM     11  C   UNL     1       5.655   3.521  16.109  0.00  0.00    +0.000 A 
ATOM     12  C   UNL     1       6.263   4.586  16.804  0.00  0.00    +0.000 A 
ENDBRANCH   1   3
BRANCH   1  16
ATOM     13  C   UNL     1       1.593   3.591  19.888  0.00  0.00    +0.000 A 
ATOM     14  C   UNL     1       2.265   2.401  19.557  0.00  0.00    +0.000 A 
ATOM     15  C   UNL     1       3.644   2.418  19.294  0.00  0.00    +0.000 A 
ATOM     16  C   UNL     1       4.354   3.630  19.337  0.00  0.00    +0.000 A 
ATOM     17  C   UNL     1       3.661   4.807  19.693  0.00  0.00    +0.000 A 
ATOM     18  C   UNL     1       2.300   4.786  19.965  0.00  0.00    +0.000 A 
BRANCH  13  19
ATOM     19  O   UNL     1       0.269   3.602  20.136  0.00  0.00    +0.000 OA
ATOM     20  H   UNL     1      -0.209   4.407  20.379  0.00  0.00    +0.000 HD
ENDBRANCH  13  19
ENDBRANCH   1  16
TORSDOF 3
ENDMDL
MODEL 3
REMARK VINA RESULT:      -7.3      4.251      6.650
REMARK  Name = 
REMARK  3 active torsions:
REMARK  status: ('A' for Active; 'I' for Inactive)
REMARK    1  A    between atoms: O_1  and  C_2
REMARK    2  A    between atoms: C_5  and  N_6
REMARK    3  A    between atoms: N_6  and  C_7
REMARK                            x       y       z     vdW  Elec       q    Type
REMARK                         _______ _______ _______ _____ _____    ______ ____
ROOT
ATOM      1  N   UNL     1       2.686   6.611  20.050  0.00  0.00    +0.000 N 
ATOM      2  H   UNL     1       3.517   6.621  20.660  0.00  0.00    +0.000 HD
ENDROOT
BRANCH   1   3
ATOM      3  C   UNL     1       2.108   7.835  19.596  0.00  0.00    +0.000 A 
ATOM      4  N   UNL     1       2.309   8.203  18.298  0.00  0.00    +0.000 NA
ATOM      5  C   UNL     1       1.761   9.318  17.768  0.00  0.00    +0.000 A 
ATOM      6  N   UNL     1       0.957  10.099  18.521  0.00  0.00    +0.000 NA
ATOM      7  C   UNL     1       0.706   9.794  19.822  0.00  0.00    +0.000 A 
ATOM      8  C   UNL     1      -0.164  10.599  20.557  0.00  0.00    +0.000 A 
ATOM      9  C   UNL     1      -0.449  10.290  21.886  0.00  0.00    +0.000 A 
ATOM     10  C   UNL     1       0.141   9.176  22.490  0.00  0.00    +0.000 A 
ATOM     11  C   UNL     1       1.010   8.355  21.763  0.00  0.00    +0.000 A 
ATOM     12  C   UNL     1       1.300   8.652  20.416  0.00  0.00    +0.000 A 
ENDBRANCH   1   3
BRANCH   1  16
ATOM     13  C   UNL     1       0.940   2.898  18.959  0.00  0.00    +0.000 A 
ATOM     14  C   UNL     1       0.893   3.330  20.297  0.00  0.00    +0.000 A 
ATOM     15  C   UNL     1       1.460   4.561  20.662  0.00  0.00    +0.000 A 
ATOM     16  C   UNL     1       2.098   5.356  19.696  0.00  0.00    +0.000 A 
ATOM     17  C   UNL     1       2.113   4.911  18.356  0.00  0.00    +0.000 A 
ATOM     18  C   UNL     1       1.540   3.699  17.995  0.00  0.00    +0.000 A 
BRANCH  13  19
ATOM     19  O   UNL     1       0.410   1.717  18.586  0.00  0.00    +0.000 OA
ATOM     20  H   UNL     1       0.725   1.226  17.815  0.00  0.00    +0.000 HD
ENDBRANCH  13  19
ENDBRANCH   1  16
TORSDOF 3
ENDMDL
MODEL 4
REMARK VINA RESULT:      -7.3      1.505      2.768
REMARK  Name = 
REMARK  3 active torsions:
REMARK  status: ('A' for Active; 'I' for Inactive)
REMARK    1  A    between atoms: O_1  and  C_2
REMARK    2  A    between atoms: C_5  and  N_6
REMARK    3  A    between atoms: N_6  and  C_7
REMARK                            x       y       z     vdW  Elec       q    Type
REMARK                         _______ _______ _______ _____ _____    ______ ____
ROOT
ATOM      1  N   UNL     1       4.718   2.760  17.202  0.00  0.00    +0.000 N 
ATOM      2  H   UNL     1       5.065   1.796  17.091  0.00  0.00    +0.000 HD
ENDROOT
BRANCH   1   3
ATOM      3  C   UNL     1       5.397   3.849  16.577  0.00  0.00    +0.000 A 
ATOM      4  N   UNL     1       5.195   4.058  15.244  0.00  0.00    +0.000 NA
ATOM      5  C   UNL     1       5.756   5.091  14.579  0.00  0.00    +0.000 A 
ATOM      6  N   UNL     1       6.526   5.981  15.241  0.00  0.00    +0.000 NA
ATOM      7  C   UNL     1       6.769   5.842  16.571  0.00  0.00    +0.000 A 
ATOM      8  C   UNL     1       7.534   6.805  17.232  0.00  0.00    +0.000 A 
ATOM      9  C   UNL     1       7.776   6.688  18.599  0.00  0.00    +0.000 A 
ATOM     10  C   UNL     1       7.260   5.604  19.314  0.00  0.00    +0.000 A 
ATOM     11  C   UNL     1       6.485   4.634  18.667  0.00  0.00    +0.000 A 
ATOM     12  C   UNL     1       6.227   4.744  17.286  0.00  0.00    +0.000 A 
ENDBRANCH   1   3
BRANCH   1  16
ATOM     13  C   UNL     1       1.319   3.423  19.658  0.00  0.00    +0.000 A 
ATOM     14  C   UNL     1       1.370   3.977  18.366  0.00  0.00    +0.000 A 
ATOM     15  C   UNL     1       2.486   3.753  17.545  0.00  0.00    +0.000 A 
ATOM     16  C   UNL     1       3.570   2.995  18.021  0.00  0.00    +0.000 A 
ATOM     17  C   UNL     1       3.485   2.432  19.313  0.00  0.00    +0.000 A 
ATOM     18  C   UNL     1       2.374   2.644  20.118  0.00  0.00    +0.000 A 
BRANCH  13  19
ATOM     19  O   UNL     1       0.262   3.631  20.467  0.00  0.00    +0.000 OA
ATOM     20  H   UNL     1       0.093   4.481  20.896  0.00  0.00    +0.000 HD
ENDBRANCH  13  19
ENDBRANCH   1  16
TORSDOF 3
ENDMDL
MODEL 5
REMARK VINA RESULT:      -7.3      1.508      2.856
REMARK  Name = 
REMARK  3 active torsions:
REMARK  status: ('A' for Active; 'I' for Inactive)
REMARK    1  A    between atoms: O_1  and  C_2
REMARK    2  A    between atoms: C_5  and  N_6
REMARK    3  A    between atoms: N_6  and  C_7
REMARK                            x       y       z     vdW  Elec       q    Type
REMARK                         _______ _______ _______ _____ _____    ______ ____
ROOT
ATOM      1  N   UNL     1       4.732   2.760  17.189  0.00  0.00    +0.000 N 
ATOM      2  H   UNL     1       5.087   1.801  17.060  0.00  0.00    +0.000 HD
ENDROOT
BRANCH   1   3
ATOM      3  C   UNL     1       5.388   3.863  16.565  0.00  0.00    +0.000 A 
ATOM      4  N   UNL     1       5.158   4.089  15.240  0.00  0.00    +0.000 NA
ATOM      5  C   UNL     1       5.696   5.136  14.578  0.00  0.00    +0.000 A 
ATOM      6  N   UNL     1       6.471   6.025  15.237  0.00  0.00    +0.000 NA
ATOM      7  C   UNL     1       6.741   5.869  16.560  0.00  0.00    +0.000 A 
ATOM      8  C   UNL     1       7.510   6.830  17.219  0.00  0.00    +0.000 A 
ATOM      9  C   UNL     1       7.780   6.698  18.580  0.00  0.00    +0.000 A 
ATOM     10  C   UNL     1       7.289   5.599  19.289  0.00  0.00    +0.000 A 
ATOM     11  C   UNL     1       6.510   4.630  18.645  0.00  0.00    +0.000 A 
ATOM     12  C   UNL     1       6.223   4.757  17.271  0.00  0.00    +0.000 A 
ENDBRANCH   1   3
BRANCH   1  16
ATOM     13  C   UNL     1       1.347   3.425  19.663  0.00  0.00    +0.000 A 
ATOM     14  C   UNL     1       2.434   2.676  20.148  0.00  0.00    +0.000 A 
ATOM     15  C   UNL     1       3.560   2.461  19.338  0.00  0.00    +0.000 A 
ATOM     16  C   UNL     1       3.595   2.973  18.030  0.00  0.00    +0.000 A 
ATOM     17  C   UNL     1       2.501   3.740  17.575  0.00  0.00    +0.000 A 
ATOM     18  C   UNL     1       1.394   3.962  18.382  0.00  0.00    +0.000 A 
BRANCH  13  19
ATOM     19  O   UNL     1       0.251   3.638  20.418  0.00  0.00    +0.000 OA
ATOM     20  H   UNL     1       0.198   3.372  21.346  0.00  0.00    +0.000 HD
ENDBRANCH  13  19
ENDBRANCH   1  16
TORSDOF 3
ENDMDL
MODEL 6
REMARK VINA RESULT:      -7.2      4.405      6.830
REMARK  Name = 
REMARK  3 active torsions:
REMARK  status: ('A' for Active; 'I' for Inactive)
REMARK    1  A    between atoms: O_1  and  C_2
REMARK    2  A    between atoms: C_5  and  N_6
REMARK    3  A    between atoms: N_6  and  C_7
REMARK                            x       y       z     vdW  Elec       q    Type
REMARK                         _______ _______ _______ _____ _____    ______ ____
ROOT
ATOM      1  N   UNL     1       2.604   6.805  20.092  0.00  0.00    +0.000 N 
ATOM      2  H   UNL     1       3.416   6.845  20.726  0.00  0.00    +0.000 HD
ENDROOT
BRANCH   1   3
ATOM      3  C   UNL     1       1.960   8.005  19.665  0.00  0.00    +0.000 A 
ATOM      4  N   UNL     1       2.062   8.361  18.352  0.00  0.00    +0.000 NA
ATOM      5  C   UNL     1       1.446   9.452  17.847  0.00  0.00    +0.000 A 
ATOM      6  N   UNL     1       0.671  10.219  18.644  0.00  0.00    +0.000 NA
ATOM      7  C   UNL     1       0.518   9.924  19.963  0.00  0.00    +0.000 A 
ATOM      8  C   UNL     1      -0.325  10.714  20.746  0.00  0.00    +0.000 A 
ATOM      9  C   UNL     1      -0.509  10.414  22.095  0.00  0.00    +0.000 A 
ATOM     10  C   UNL     1       0.153   9.327  22.670  0.00  0.00    +0.000 A 
ATOM     11  C   UNL     1       0.996   8.521  21.895  0.00  0.00    +0.000 A 
ATOM     12  C   UNL     1       1.185   8.809  20.529  0.00  0.00    +0.000 A 
ENDBRANCH   1   3
BRANCH   1  16
ATOM     13  C   UNL     1       1.132   3.003  18.907  0.00  0.00    +0.000 A 
ATOM     14  C   UNL     1       1.785   3.825  17.971  0.00  0.00    +0.000 A 
ATOM     15  C   UNL     1       2.282   5.079  18.359  0.00  0.00    +0.000 A 
ATOM     16  C   UNL     1       2.108   5.528  19.679  0.00  0.00    +0.000 A 
ATOM     17  C   UNL     1       1.470   4.675  20.605  0.00  0.00    +0.000 A 
ATOM     18  C   UNL     1       0.990   3.430  20.222  0.00  0.00    +0.000 A 
BRANCH  13  19
ATOM     19  O   UNL     1       0.639   1.799  18.557  0.00  0.00    +0.000 OA
ATOM     20  H   UNL     1      -0.267   1.679  18.240  0.00  0.00    +0.000 HD
ENDBRANCH  13  19
ENDBRANCH   1  16
TORSDOF 3
ENDMDL
MODEL 7
REMARK VINA RESULT:      -7.2      3.090      6.093
REMARK  Name = 
REMARK  3 active torsions:
REMARK  status: ('A' for Active; 'I' for Inactive)
REMARK    1  A    between atoms: O_1  and  C_2
REMARK    2  A    between atoms: C_5  and  N_6
REMARK    3  A    between atoms: N_6  and  C_7
REMARK                            x       y       z     vdW  Elec       q    Type
REMARK                         _______ _______ _______ _____ _____    ______ ____
ROOT
ATOM      1  N   UNL     1       4.697   4.600  16.816  0.00  0.00    +0.000 N 
ATOM      2  H   UNL     1       4.539   4.607  15.797  0.00  0.00    +0.000 HD
ENDROOT
BRANCH   1   3
ATOM      3  C   UNL     1       3.852   3.832  17.672  0.00  0.00    +0.000 A 
ATOM      4  N   UNL     1       3.882   2.473  17.562  0.00  0.00    +0.000 NA
ATOM      5  C   UNL     1       3.155   1.664  18.362  0.00  0.00    +0.000 A 
ATOM      6  N   UNL     1       2.383   2.194  19.336  0.00  0.00    +0.000 NA
ATOM      7  C   UNL     1       2.306   3.540  19.511  0.00  0.00    +0.000 A 
ATOM      8  C   UNL     1       1.533   4.051  20.555  0.00  0.00    +0.000 A 
ATOM      9  C   UNL     1       1.459   5.428  20.761  0.00  0.00    +0.000 A 
ATOM     10  C   UNL     1       2.152   6.302  19.920  0.00  0.00    +0.000 A 
ATOM     11  C   UNL     1       2.937   5.805  18.874  0.00  0.00    +0.000 A 
ATOM     12  C   UNL     1       3.027   4.415  18.659  0.00  0.00    +0.000 A 
ENDBRANCH   1   3
BRANCH   1  16
ATOM     13  C   UNL     1       7.818   7.002  18.400  0.00  0.00    +0.000 A 
ATOM     14  C   UNL     1       7.629   5.692  18.877  0.00  0.00    +0.000 A 
ATOM     15  C   UNL     1       6.606   4.890  18.351  0.00  0.00    +0.000 A 
ATOM     16  C   UNL     1       5.749   5.401  17.362  0.00  0.00    +0.000 A 
ATOM     17  C   UNL     1       5.972   6.710  16.884  0.00  0.00    +0.000 A 
ATOM     18  C   UNL     1       6.994   7.498  17.397  0.00  0.00    +0.000 A 
BRANCH  13  19
ATOM     19  O   UNL     1       8.789   7.795  18.896  0.00  0.00    +0.000 OA
ATOM     20  H   UNL     1       8.722   8.221  19.761  0.00  0.00    +0.000 HD
ENDBRANCH  13  19
ENDBRANCH   1  16
TORSDOF 3
ENDMDL
MODEL 8
REMARK VINA RESULT:      -7.2      3.437      5.506
REMARK  Name = 
REMARK  3 active torsions:
REMARK  status: ('A' for Active; 'I' for Inactive)
REMARK    1  A    between atoms: O_1  and  C_2
REMARK    2  A    between atoms: C_5  and  N_6
REMARK    3  A    between atoms: N_6  and  C_7
REMARK                            x       y       z     vdW  Elec       q    Type
REMARK                         _______ _______ _______ _____ _____    ______ ____
ROOT
ATOM      1  N   UNL     1       2.612   6.504  20.431  0.00  0.00    +0.000 N 
ATOM      2  H   UNL     1       2.572   6.440  21.459  0.00  0.00    +0.000 HD
ENDROOT
BRANCH   1   3
ATOM      3  C   UNL     1       3.249   5.480  19.667  0.00  0.00    +0.000 A 
ATOM      4  N   UNL     1       4.562   5.643  19.335  0.00  0.00    +0.000 NA
ATOM      5  C   UNL     1       5.261   4.707  18.659  0.00  0.00    +0.000 A 
ATOM      6  N   UNL     1       4.669   3.543  18.311  0.00  0.00    +0.000 NA
ATOM      7  C   UNL     1       3.365   3.306  18.612  0.00  0.00    +0.000 A 
ATOM      8  C   UNL     1       2.798   2.076  18.276  0.00  0.00    +0.000 A 
ATOM      9  C   UNL     1       1.468   1.808  18.594  0.00  0.00    +0.000 A 
ATOM     10  C   UNL     1       0.694   2.772  19.245  0.00  0.00    +0.000 A 
ATOM     11  C   UNL     1       1.250   4.008  19.595  0.00  0.00    +0.000 A 
ATOM     12  C   UNL     1       2.596   4.288  19.286  0.00  0.00    +0.000 A 
ENDBRANCH   1   3
BRANCH   1  16
ATOM     13  C   UNL     1       0.923   9.911  18.542  0.00  0.00    +0.000 A 
ATOM     14  C   UNL     1       1.717   9.018  17.799  0.00  0.00    +0.000 A 
ATOM     15  C   UNL     1       2.269   7.884  18.416  0.00  0.00    +0.000 A 
ATOM     16  C   UNL     1       2.053   7.650  19.784  0.00  0.00    +0.000 A 
ATOM     17  C   UNL     1       1.235   8.549  20.502  0.00  0.00    +0.000 A 
ATOM     18  C   UNL     1       0.679   9.663  19.888  0.00  0.00    +0.000 A 
BRANCH  13  19
ATOM     19  O   UNL     1       0.389  11.010  17.976  0.00  0.00    +0.000 OA
ATOM     20  H   UNL     1      -0.292  11.541  18.410  0.00  0.00    +0.000 HD
ENDBRANCH  13  19
ENDBRANCH   1  16
TORSDOF 3
ENDMDL
MODEL 9
REMARK VINA RESULT:      -7.1      1.407      2.956
REMARK  Name = 
REMARK  3 active torsions:
REMARK  status: ('A' for Active; 'I' for Inactive)
REMARK    1  A    between atoms: O_1  and  C_2
REMARK    2  A    between atoms: C_5  and  N_6
REMARK    3  A    between atoms: N_6  and  C_7
REMARK                            x       y       z     vdW  Elec       q    Type
REMARK                         _______ _______ _______ _____ _____    ______ ____
ROOT
ATOM      1  N   UNL     1       5.323   3.348  18.493  0.00  0.00    +0.000 N 
ATOM      2  H   UNL     1       6.042   2.777  18.962  0.00  0.00    +0.000 HD
ENDROOT
BRANCH   1   3
ATOM      3  C   UNL     1       5.699   4.356  17.556  0.00  0.00    +0.000 A 
ATOM      4  N   UNL     1       5.114   4.345  16.324  0.00  0.00    +0.000 NA
ATOM      5  C   UNL     1       5.370   5.287  15.391  0.00  0.00    +0.000 A 
ATOM      6  N   UNL     1       6.211   6.305  15.673  0.00  0.00    +0.000 NA
ATOM      7  C   UNL     1       6.828   6.387  16.882  0.00  0.00    +0.000 A 
ATOM      8  C   UNL     1       7.657   7.476  17.154  0.00  0.00    +0.000 A 
ATOM      9  C   UNL     1       8.282   7.586  18.395  0.00  0.00    +0.000 A 
ATOM     10  C   UNL     1       8.088   6.603  19.369  0.00  0.00    +0.000 A 
ATOM     11  C   UNL     1       7.254   5.509  19.114  0.00  0.00    +0.000 A 
ATOM     12  C   UNL     1       6.610   5.390  17.866  0.00  0.00    +0.000 A 
ENDBRANCH   1   3
BRANCH   1  16
ATOM     13  C   UNL     1       1.243   2.759  19.508  0.00  0.00    +0.000 A 
ATOM     14  C   UNL     1       1.920   1.797  18.738  0.00  0.00    +0.000 A 
ATOM     15  C   UNL     1       3.272   1.981  18.407  0.00  0.00    +0.000 A 
ATOM     16  C   UNL     1       3.948   3.140  18.824  0.00  0.00    +0.000 A 
ATOM     17  C   UNL     1       3.252   4.080  19.615  0.00  0.00    +0.000 A 
ATOM     18  C   UNL     1       1.919   3.891  19.951  0.00  0.00    +0.000 A 
BRANCH  13  19
ATOM     19  O   UNL     1      -0.056   2.609  19.831  0.00  0.00    +0.000 OA
ATOM     20  H   UNL     1      -0.656   2.042  19.328  0.00  0.00    +0.000 HD
ENDBRANCH  13  19
ENDBRANCH   1  16
TORSDOF 3
ENDMDL
