MODEL 1
REMARK VINA RESULT:      -8.5      0.000      0.000
REMARK  Name = 
REMARK  3 active torsions:
REMARK  status: ('A' for Active; 'I' for Inactive)
REMARK    1  A    between atoms: C_2  and  C_3
REMARK    2  A    between atoms: C_3  and  C_4
REMARK    3  A    between atoms: N_15  and  C_16
REMARK                            x       y       z     vdW  Elec       q    Type
REMARK                         _______ _______ _______ _____ _____    ______ ____
ROOT
ATOM      1  O   UNL     1       1.438   4.726  19.417  0.00  0.00    +0.000 OA
ATOM      2  C   UNL     1       2.597   5.127  19.477  0.00  0.00    +0.000 C 
ATOM      3  N   UNL     1       3.000   6.449  19.583  0.00  0.00    +0.000 N 
ATOM      4  H   UNL     1       3.960   6.658  19.330  0.00  0.00    +0.000 HD
ENDROOT
BRANCH   3   5
ATOM      5  C   UNL     1       2.154   7.566  19.768  0.00  0.00    +0.000 A 
ATOM      6  C   UNL     1       1.693   8.355  18.713  0.00  0.00    +0.000 A 
ATOM      7  C   UNL     1       0.896   9.478  18.959  0.00  0.00    +0.000 A 
ATOM      8  C   UNL     1       0.544   9.825  20.263  0.00  0.00    +0.000 A 
ATOM      9  C   UNL     1       0.921   8.984  21.320  0.00  0.00    +0.000 A 
ATOM     10  C   UNL     1       1.739   7.874  21.070  0.00  0.00    +0.000 A 
ATOM     11  O   UNL     1       0.565   9.164  22.634  0.00  0.00    +0.000 OA
ATOM     12  C   UNL     1      -0.758   9.682  22.797  0.00  0.00    +0.000 C 
ATOM     13  C   UNL     1      -0.776  11.200  22.715  0.00  0.00    +0.000 C 
ATOM     14  C   UNL     1       0.094  11.712  21.581  0.00  0.00    +0.000 C 
ATOM     15  O   UNL     1      -0.170  10.989  20.377  0.00  0.00    +0.000 OA
ENDBRANCH   3   5
BRANCH   2  16
ATOM     16  C   UNL     1       3.752   4.138  19.394  0.00  0.00    +0.000 C 
BRANCH  16  17
ATOM     17  C   UNL     1       4.714   4.440  18.277  0.00  0.00    +0.000 A 
ATOM     18  C   UNL     1       5.956   5.026  18.543  0.00  0.00    +0.000 A 
ATOM     19  F   UNL     1       6.288   5.311  19.811  0.00  0.00    +0.000 F 
ATOM     20  C   UNL     1       6.864   5.293  17.521  0.00  0.00    +0.000 A 
ATOM     21  F   UNL     1       8.050   5.847  17.811  0.00  0.00    +0.000 F 
ATOM     22  C   UNL     1       6.547   4.969  16.210  0.00  0.00    +0.000 A 
ATOM     23  F   UNL     1       7.427   5.209  15.228  0.00  0.00    +0.000 F 
ATOM     24  C   UNL     1       5.325   4.380  15.923  0.00  0.00    +0.000 A 
ATOM     25  F   UNL     1       5.024   4.044  14.660  0.00  0.00    +0.000 F 
ATOM     26  C   UNL     1       4.416   4.121  16.948  0.00  0.00    +0.000 A 
ATOM     27  F   UNL     1       3.249   3.531  16.652  0.00  0.00    +0.000 F 
ENDBRANCH  16  17
ENDBRANCH   2  16
TORSDOF 3
ENDMDL
MODEL 2
REMARK VINA RESULT:      -8.5      0.150      2.084
REMARK  Name = 
REMARK  3 active torsions:
REMARK  status: ('A' for Active; 'I' for Inactive)
REMARK    1  A    between atoms: C_2  and  C_3
REMARK    2  A    between atoms: C_3  and  C_4
REMARK    3  A    between atoms: N_15  and  C_16
REMARK                            x       y       z     vdW  Elec       q    Type
REMARK                         _______ _______ _______ _____ _____    ______ ____
ROOT
ATOM      1  O   UNL     1       1.528   4.621  19.689  0.00  0.00    +0.000 OA
ATOM      2  C   UNL     1       2.681   5.023  19.566  0.00  0.00    +0.000 C 
ATOM      3  N   UNL     1       3.080   6.349  19.493  0.00  0.00    +0.000 N 
ATOM      4  H   UNL     1       4.000   6.530  19.104  0.00  0.00    +0.000 HD
ENDROOT
BRANCH   3   5
ATOM      5  C   UNL     1       2.252   7.480  19.671  0.00  0.00    +0.000 A 
ATOM      6  C   UNL     1       1.839   8.294  18.616  0.00  0.00    +0.000 A 
ATOM      7  C   UNL     1       1.058   9.430  18.857  0.00  0.00    +0.000 A 
ATOM      8  C   UNL     1       0.675   9.764  20.155  0.00  0.00    +0.000 A 
ATOM      9  C   UNL     1       1.004   8.899  21.208  0.00  0.00    +0.000 A 
ATOM     10  C   UNL     1       1.805   7.776  20.965  0.00  0.00    +0.000 A 
ATOM     11  O   UNL     1       0.613   9.066  22.515  0.00  0.00    +0.000 OA
ATOM     12  C   UNL     1      -0.703   9.609  22.648  0.00  0.00    +0.000 C 
ATOM     13  C   UNL     1      -0.688  11.128  22.590  0.00  0.00    +0.000 C 
ATOM     14  C   UNL     1       0.225  11.639  21.490  0.00  0.00    +0.000 C 
ATOM     15  O   UNL     1      -0.018  10.941  20.267  0.00  0.00    +0.000 OA
ENDBRANCH   3   5
BRANCH   2  16
ATOM     16  C   UNL     1       3.827   4.029  19.438  0.00  0.00    +0.000 C 
BRANCH  16  17
ATOM     17  C   UNL     1       4.780   4.360  18.322  0.00  0.00    +0.000 A 
ATOM     18  C   UNL     1       4.459   4.054  16.995  0.00  0.00    +0.000 A 
ATOM     19  F   UNL     1       3.284   3.468  16.723  0.00  0.00    +0.000 F 
ATOM     20  C   UNL     1       5.324   4.373  15.950  0.00  0.00    +0.000 A 
ATOM     21  F   UNL     1       4.983   4.075  14.688  0.00  0.00    +0.000 F 
ATOM     22  C   UNL     1       6.526   5.013  16.215  0.00  0.00    +0.000 A 
ATOM     23  F   UNL     1       7.351   5.335  15.209  0.00  0.00    +0.000 F 
ATOM     24  C   UNL     1       6.862   5.333  17.522  0.00  0.00    +0.000 A 
ATOM     25  F   UNL     1       8.012   5.972  17.780  0.00  0.00    +0.000 F 
ATOM     26  C   UNL     1       5.997   5.006  18.565  0.00  0.00    +0.000 A 
ATOM     27  F   UNL     1       6.330   5.343  19.819  0.00  0.00    +0.000 F 
ENDBRANCH  16  17
ENDBRANCH   2  16
TORSDOF 3
ENDMDL
MODEL 3
REMARK VINA RESULT:      -8.5      1.099      2.815
REMARK  Name = 
REMARK  3 active torsions:
REMARK  status: ('A' for Active; 'I' for Inactive)
REMARK    1  A    between atoms: C_2  and  C_3
REMARK    2  A    between atoms: C_3  and  C_4
REMARK    3  A    between atoms: N_15  and  C_16
REMARK                            x       y       z     vdW  Elec       q    Type
REMARK                         _______ _______ _______ _____ _____    ______ ____
ROOT
ATOM      1  O   UNL     1       1.467   4.513  19.315  0.00  0.00    +0.000 OA
ATOM      2  C   UNL     1       2.618   4.911  19.469  0.00  0.00    +0.000 C 
ATOM      3  N   UNL     1       3.004   6.219  19.719  0.00  0.00    +0.000 N 
ATOM      4  H   UNL     1       3.974   6.454  19.534  0.00  0.00    +0.000 HD
ENDROOT
BRANCH   3   5
ATOM      5  C   UNL     1       2.140   7.310  19.965  0.00  0.00    +0.000 A 
ATOM      6  C   UNL     1       1.373   7.427  21.124  0.00  0.00    +0.000 A 
ATOM      7  C   UNL     1       0.498   8.506  21.294  0.00  0.00    +0.000 A 
ATOM      8  C   UNL     1       0.383   9.486  20.309  0.00  0.00    +0.000 A 
ATOM      9  C   UNL     1       1.221   9.428  19.186  0.00  0.00    +0.000 A 
ATOM     10  C   UNL     1       2.078   8.334  19.010  0.00  0.00    +0.000 A 
ATOM     11  O   UNL     1       1.270  10.375  18.191  0.00  0.00    +0.000 OA
ATOM     12  C   UNL     1       1.093  11.710  18.671  0.00  0.00    +0.000 C 
ATOM     13  C   UNL     1      -0.379  12.076  18.773  0.00  0.00    +0.000 C 
ATOM     14  C   UNL     1      -1.196  10.949  19.379  0.00  0.00    +0.000 C 
ATOM     15  O   UNL     1      -0.565  10.444  20.557  0.00  0.00    +0.000 OA
ENDBRANCH   3   5
BRANCH   2  16
ATOM     16  C   UNL     1       3.784   3.939  19.351  0.00  0.00    +0.000 C 
BRANCH  16  17
ATOM     17  C   UNL     1       4.747   4.296  18.252  0.00  0.00    +0.000 A 
ATOM     18  C   UNL     1       4.439   4.025  16.915  0.00  0.00    +0.000 A 
ATOM     19  F   UNL     1       3.265   3.448  16.618  0.00  0.00    +0.000 F 
ATOM     20  C   UNL     1       5.313   4.369  15.887  0.00  0.00    +0.000 A 
ATOM     21  F   UNL     1       4.983   4.104  14.614  0.00  0.00    +0.000 F 
ATOM     22  C   UNL     1       6.513   5.000  16.178  0.00  0.00    +0.000 A 
ATOM     23  F   UNL     1       7.348   5.346  15.189  0.00  0.00    +0.000 F 
ATOM     24  C   UNL     1       6.838   5.285  17.497  0.00  0.00    +0.000 A 
ATOM     25  F   UNL     1       7.987   5.916  17.781  0.00  0.00    +0.000 F 
ATOM     26  C   UNL     1       5.963   4.934  18.523  0.00  0.00    +0.000 A 
ATOM     27  F   UNL     1       6.285   5.239  19.789  0.00  0.00    +0.000 F 
ENDBRANCH  16  17
ENDBRANCH   2  16
TORSDOF 3
ENDMDL
MODEL 4
REMARK VINA RESULT:      -8.4      1.640      2.554
REMARK  Name = 
REMARK  3 active torsions:
REMARK  status: ('A' for Active; 'I' for Inactive)
REMARK    1  A    between atoms: C_2  and  C_3
REMARK    2  A    between atoms: C_3  and  C_4
REMARK    3  A    between atoms: N_15  and  C_16
REMARK                            x       y       z     vdW  Elec       q    Type
REMARK                         _______ _______ _______ _____ _____    ______ ____
ROOT
ATOM      1  O   UNL     1       1.839   5.097  18.263  0.00  0.00    +0.000 OA
ATOM      2  C   UNL     1       2.850   5.720  17.951  0.00  0.00    +0.000 C 
ATOM      3  N   UNL     1       3.021   7.093  18.034  0.00  0.00    +0.000 N 
ATOM      4  H   UNL     1       3.772   7.496  17.481  0.00  0.00    +0.000 HD
ENDROOT
BRANCH   3   5
ATOM      5  C   UNL     1       2.115   8.013  18.607  0.00  0.00    +0.000 A 
ATOM      6  C   UNL     1       1.405   8.951  17.857  0.00  0.00    +0.000 A 
ATOM      7  C   UNL     1       0.557   9.870  18.484  0.00  0.00    +0.000 A 
ATOM      8  C   UNL     1       0.403   9.861  19.869  0.00  0.00    +0.000 A 
ATOM      9  C   UNL     1       1.036   8.861  20.621  0.00  0.00    +0.000 A 
ATOM     10  C   UNL     1       1.902   7.958  19.991  0.00  0.00    +0.000 A 
ATOM     11  O   UNL     1       0.895   8.687  21.977  0.00  0.00    +0.000 OA
ATOM     12  C   UNL     1      -0.424   8.970  22.450  0.00  0.00    +0.000 C 
ATOM     13  C   UNL     1      -0.603  10.450  22.748  0.00  0.00    +0.000 C 
ATOM     14  C   UNL     1       0.005  11.319  21.662  0.00  0.00    +0.000 C 
ATOM     15  O   UNL     1      -0.391  10.861  20.368  0.00  0.00    +0.000 OA
ENDBRANCH   3   5
BRANCH   2  16
ATOM     16  C   UNL     1       4.053   4.984  17.376  0.00  0.00    +0.000 C 
BRANCH  16  17
ATOM     17  C   UNL     1       5.370   5.565  17.813  0.00  0.00    +0.000 A 
ATOM     18  C   UNL     1       5.989   6.574  17.067  0.00  0.00    +0.000 A 
ATOM     19  F   UNL     1       5.390   7.027  15.955  0.00  0.00    +0.000 F 
ATOM     20  C   UNL     1       7.198   7.134  17.471  0.00  0.00    +0.000 A 
ATOM     21  F   UNL     1       7.761   8.105  16.739  0.00  0.00    +0.000 F 
ATOM     22  C   UNL     1       7.809   6.699  18.638  0.00  0.00    +0.000 A 
ATOM     23  F   UNL     1       8.964   7.248  19.037  0.00  0.00    +0.000 F 
ATOM     24  C   UNL     1       7.209   5.705  19.398  0.00  0.00    +0.000 A 
ATOM     25  F   UNL     1       7.785   5.298  20.539  0.00  0.00    +0.000 F 
ATOM     26  C   UNL     1       6.003   5.142  18.987  0.00  0.00    +0.000 A 
ATOM     27  F   UNL     1       5.429   4.199  19.748  0.00  0.00    +0.000 F 
ENDBRANCH  16  17
ENDBRANCH   2  16
TORSDOF 3
ENDMDL
MODEL 5
REMARK VINA RESULT:      -8.4      1.080      1.889
REMARK  Name = 
REMARK  3 active torsions:
REMARK  status: ('A' for Active; 'I' for Inactive)
REMARK    1  A    between atoms: C_2  and  C_3
REMARK    2  A    between atoms: C_3  and  C_4
REMARK    3  A    between atoms: N_15  and  C_16
REMARK                            x       y       z     vdW  Elec       q    Type
REMARK                         _______ _______ _______ _____ _____    ______ ____
ROOT
ATOM      1  O   UNL     1       1.467   4.549  19.581  0.00  0.00    +0.000 OA
ATOM      2  C   UNL     1       2.613   4.989  19.613  0.00  0.00    +0.000 C 
ATOM      3  N   UNL     1       2.972   6.322  19.743  0.00  0.00    +0.000 N 
ATOM      4  H   UNL     1       3.915   6.572  19.463  0.00  0.00    +0.000 HD
ENDROOT
BRANCH   3   5
ATOM      5  C   UNL     1       2.094   7.402  19.988  0.00  0.00    +0.000 A 
ATOM      6  C   UNL     1       1.310   7.499  21.138  0.00  0.00    +0.000 A 
ATOM      7  C   UNL     1       0.423   8.568  21.306  0.00  0.00    +0.000 A 
ATOM      8  C   UNL     1       0.311   9.556  20.330  0.00  0.00    +0.000 A 
ATOM      9  C   UNL     1       1.164   9.518  19.218  0.00  0.00    +0.000 A 
ATOM     10  C   UNL     1       2.034   8.434  19.042  0.00  0.00    +0.000 A 
ATOM     11  O   UNL     1       1.216  10.474  18.232  0.00  0.00    +0.000 OA
ATOM     12  C   UNL     1       1.020  11.804  18.722  0.00  0.00    +0.000 C 
ATOM     13  C   UNL     1      -0.457  12.153  18.809  0.00  0.00    +0.000 C 
ATOM     14  C   UNL     1      -1.271  11.012  19.393  0.00  0.00    +0.000 C 
ATOM     15  O   UNL     1      -0.650  10.502  20.575  0.00  0.00    +0.000 OA
ENDBRANCH   3   5
BRANCH   2  16
ATOM     16  C   UNL     1       3.798   4.046  19.462  0.00  0.00    +0.000 C 
BRANCH  16  17
ATOM     17  C   UNL     1       4.710   4.413  18.323  0.00  0.00    +0.000 A 
ATOM     18  C   UNL     1       5.932   5.049  18.564  0.00  0.00    +0.000 A 
ATOM     19  F   UNL     1       6.291   5.322  19.827  0.00  0.00    +0.000 F 
ATOM     20  C   UNL     1       6.795   5.377  17.520  0.00  0.00    +0.000 A 
ATOM     21  F   UNL     1       7.964   5.977  17.784  0.00  0.00    +0.000 F 
ATOM     22  C   UNL     1       6.451   5.066  16.213  0.00  0.00    +0.000 A 
ATOM     23  F   UNL     1       7.287   5.366  15.209  0.00  0.00    +0.000 F 
ATOM     24  C   UNL     1       5.246   4.429  15.950  0.00  0.00    +0.000 A 
ATOM     25  F   UNL     1       4.921   4.106  14.690  0.00  0.00    +0.000 F 
ATOM     26  C   UNL     1       4.384   4.109  16.997  0.00  0.00    +0.000 A 
ATOM     27  F   UNL     1       3.235   3.473  16.724  0.00  0.00    +0.000 F 
ENDBRANCH  16  17
ENDBRANCH   2  16
TORSDOF 3
ENDMDL
MODEL 6
REMARK VINA RESULT:      -8.3      1.651      2.253
REMARK  Name = 
REMARK  3 active torsions:
REMARK  status: ('A' for Active; 'I' for Inactive)
REMARK    1  A    between atoms: C_2  and  C_3
REMARK    2  A    between atoms: C_3  and  C_4
REMARK    3  A    between atoms: N_15  and  C_16
REMARK                            x       y       z     vdW  Elec       q    Type
REMARK                         _______ _______ _______ _____ _____    ______ ____
ROOT
ATOM      1  O   UNL     1       1.719   5.174  18.272  0.00  0.00    +0.000 OA
ATOM      2  C   UNL     1       2.745   5.786  17.989  0.00  0.00    +0.000 C 
ATOM      3  N   UNL     1       2.935   7.155  18.097  0.00  0.00    +0.000 N 
ATOM      4  H   UNL     1       3.702   7.555  17.565  0.00  0.00    +0.000 HD
ENDROOT
BRANCH   3   5
ATOM      5  C   UNL     1       2.033   8.080  18.669  0.00  0.00    +0.000 A 
ATOM      6  C   UNL     1       1.313   9.007  17.915  0.00  0.00    +0.000 A 
ATOM      7  C   UNL     1       0.469   9.931  18.539  0.00  0.00    +0.000 A 
ATOM      8  C   UNL     1       0.328   9.938  19.926  0.00  0.00    +0.000 A 
ATOM      9  C   UNL     1       0.972   8.949  20.683  0.00  0.00    +0.000 A 
ATOM     10  C   UNL     1       1.834   8.040  20.056  0.00  0.00    +0.000 A 
ATOM     11  O   UNL     1       0.846   8.791  22.042  0.00  0.00    +0.000 OA
ATOM     12  C   UNL     1      -0.469   9.077  22.526  0.00  0.00    +0.000 C 
ATOM     13  C   UNL     1      -0.649  10.560  22.808  0.00  0.00    +0.000 C 
ATOM     14  C   UNL     1      -0.055  11.417  21.705  0.00  0.00    +0.000 C 
ATOM     15  O   UNL     1      -0.462  10.943  20.421  0.00  0.00    +0.000 OA
ENDBRANCH   3   5
BRANCH   2  16
ATOM     16  C   UNL     1       3.947   5.042  17.424  0.00  0.00    +0.000 C 
BRANCH  16  17
ATOM     17  C   UNL     1       5.264   5.631  17.848  0.00  0.00    +0.000 A 
ATOM     18  C   UNL     1       5.919   5.165  18.993  0.00  0.00    +0.000 A 
ATOM     19  F   UNL     1       5.364   4.177  19.710  0.00  0.00    +0.000 F 
ATOM     20  C   UNL     1       7.149   5.688  19.386  0.00  0.00    +0.000 A 
ATOM     21  F   UNL     1       7.756   5.214  20.483  0.00  0.00    +0.000 F 
ATOM     22  C   UNL     1       7.751   6.685  18.633  0.00  0.00    +0.000 A 
ATOM     23  F   UNL     1       8.942   7.178  19.000  0.00  0.00    +0.000 F 
ATOM     24  C   UNL     1       7.124   7.158  17.489  0.00  0.00    +0.000 A 
ATOM     25  F   UNL     1       7.714   8.105  16.745  0.00  0.00    +0.000 F 
ATOM     26  C   UNL     1       5.890   6.636  17.103  0.00  0.00    +0.000 A 
ATOM     27  F   UNL     1       5.311   7.091  15.983  0.00  0.00    +0.000 F 
ENDBRANCH  16  17
ENDBRANCH   2  16
TORSDOF 3
ENDMDL
MODEL 7
REMARK VINA RESULT:      -8.0      3.167      4.953
REMARK  Name = 
REMARK  3 active torsions:
REMARK  status: ('A' for Active; 'I' for Inactive)
REMARK    1  A    between atoms: C_2  and  C_3
REMARK    2  A    between atoms: C_3  and  C_4
REMARK    3  A    between atoms: N_15  and  C_16
REMARK                            x       y       z     vdW  Elec       q    Type
REMARK                         _______ _______ _______ _____ _____    ______ ____
ROOT
ATOM      1  O   UNL     1       2.513   8.508  17.195  0.00  0.00    +0.000 OA
ATOM      2  C   UNL     1       2.395   8.150  18.363  0.00  0.00    +0.000 C 
ATOM      3  N   UNL     1       1.488   8.653  19.284  0.00  0.00    +0.000 N 
ATOM      4  H   UNL     1       1.689   8.486  20.264  0.00  0.00    +0.000 HD
ENDROOT
BRANCH   3   5
ATOM      5  C   UNL     1       0.453   9.577  19.015  0.00  0.00    +0.000 A 
ATOM      6  C   UNL     1       0.293  10.768  19.724  0.00  0.00    +0.000 A 
ATOM      7  C   UNL     1      -0.779  11.623  19.447  0.00  0.00    +0.000 A 
ATOM      8  C   UNL     1      -1.703  11.302  18.453  0.00  0.00    +0.000 A 
ATOM      9  C   UNL     1      -1.495  10.157  17.671  0.00  0.00    +0.000 A 
ATOM     10  C   UNL     1      -0.433   9.292  17.967  0.00  0.00    +0.000 A 
ATOM     11  O   UNL     1      -2.278   9.778  16.607  0.00  0.00    +0.000 OA
ATOM     12  C   UNL     1      -2.762  10.882  15.838  0.00  0.00    +0.000 C 
ATOM     13  C   UNL     1      -4.047  11.447  16.421  0.00  0.00    +0.000 C 
ATOM     14  C   UNL     1      -3.974  11.562  17.933  0.00  0.00    +0.000 C 
ATOM     15  O   UNL     1      -2.750  12.179  18.334  0.00  0.00    +0.000 OA
ENDBRANCH   3   5
BRANCH   2  16
ATOM     16  C   UNL     1       3.322   7.086  18.933  0.00  0.00    +0.000 C 
BRANCH  16  17
ATOM     17  C   UNL     1       2.725   5.705  18.916  0.00  0.00    +0.000 A 
ATOM     18  C   UNL     1       2.927   4.854  17.825  0.00  0.00    +0.000 A 
ATOM     19  F   UNL     1       3.668   5.278  16.791  0.00  0.00    +0.000 F 
ATOM     20  C   UNL     1       2.396   3.566  17.804  0.00  0.00    +0.000 A 
ATOM     21  F   UNL     1       2.615   2.771  16.748  0.00  0.00    +0.000 F 
ATOM     22  C   UNL     1       1.658   3.103  18.884  0.00  0.00    +0.000 A 
ATOM     23  F   UNL     1       1.161   1.859  18.873  0.00  0.00    +0.000 F 
ATOM     24  C   UNL     1       1.451   3.927  19.981  0.00  0.00    +0.000 A 
ATOM     25  F   UNL     1       0.758   3.475  21.036  0.00  0.00    +0.000 F 
ATOM     26  C   UNL     1       1.978   5.217  19.994  0.00  0.00    +0.000 A 
ATOM     27  F   UNL     1       1.786   5.990  21.073  0.00  0.00    +0.000 F 
ENDBRANCH  16  17
ENDBRANCH   2  16
TORSDOF 3
ENDMDL
MODEL 8
REMARK VINA RESULT:      -7.9      5.759      7.003
REMARK  Name = 
REMARK  3 active torsions:
REMARK  status: ('A' for Active; 'I' for Inactive)
REMARK    1  A    between atoms: C_2  and  C_3
REMARK    2  A    between atoms: C_3  and  C_4
REMARK    3  A    between atoms: N_15  and  C_16
REMARK                            x       y       z     vdW  Elec       q    Type
REMARK                         _______ _______ _______ _____ _____    ______ ____
ROOT
ATOM      1  O   UNL     1       7.053   8.137  17.136  0.00  0.00    +0.000 OA
ATOM      2  C   UNL     1       7.795   7.635  17.976  0.00  0.00    +0.000 C 
ATOM      3  N   UNL     1       8.721   8.312  18.756  0.00  0.00    +0.000 N 
ATOM      4  H   UNL     1       9.455   7.755  19.182  0.00  0.00    +0.000 HD
ENDROOT
BRANCH   3   5
ATOM      5  C   UNL     1       8.894   9.713  18.818  0.00  0.00    +0.000 A 
ATOM      6  C   UNL     1       8.612  10.562  17.748  0.00  0.00    +0.000 A 
ATOM      7  C   UNL     1       8.848  11.938  17.850  0.00  0.00    +0.000 A 
ATOM      8  C   UNL     1       9.364  12.483  19.025  0.00  0.00    +0.000 A 
ATOM      9  C   UNL     1       9.558  11.651  20.136  0.00  0.00    +0.000 A 
ATOM     10  C   UNL     1       9.343  10.272  20.022  0.00  0.00    +0.000 A 
ATOM     11  O   UNL     1       9.976  12.077  21.374  0.00  0.00    +0.000 OA
ATOM     12  C   UNL     1       9.455  13.358  21.738  0.00  0.00    +0.000 C 
ATOM     13  C   UNL     1      10.321  14.485  21.198  0.00  0.00    +0.000 C 
ATOM     14  C   UNL     1      10.744  14.229  19.762  0.00  0.00    +0.000 C 
ATOM     15  O   UNL     1       9.626  13.827  18.969  0.00  0.00    +0.000 OA
ENDBRANCH   3   5
BRANCH   2  16
ATOM     16  C   UNL     1       7.778   6.131  18.210  0.00  0.00    +0.000 C 
BRANCH  16  17
ATOM     17  C   UNL     1       6.506   5.472  17.750  0.00  0.00    +0.000 A 
ATOM     18  C   UNL     1       6.356   5.056  16.423  0.00  0.00    +0.000 A 
ATOM     19  F   UNL     1       7.365   5.243  15.560  0.00  0.00    +0.000 F 
ATOM     20  C   UNL     1       5.191   4.428  15.990  0.00  0.00    +0.000 A 
ATOM     21  F   UNL     1       5.082   4.032  14.713  0.00  0.00    +0.000 F 
ATOM     22  C   UNL     1       4.154   4.196  16.882  0.00  0.00    +0.000 A 
ATOM     23  F   UNL     1       3.040   3.576  16.470  0.00  0.00    +0.000 F 
ATOM     24  C   UNL     1       4.283   4.593  18.205  0.00  0.00    +0.000 A 
ATOM     25  F   UNL     1       3.293   4.351  19.076  0.00  0.00    +0.000 F 
ATOM     26  C   UNL     1       5.448   5.228  18.633  0.00  0.00    +0.000 A 
ATOM     27  F   UNL     1       5.562   5.584  19.921  0.00  0.00    +0.000 F 
ENDBRANCH  16  17
ENDBRANCH   2  16
TORSDOF 3
ENDMDL
MODEL 9
REMARK VINA RESULT:      -7.9      3.151      4.757
REMARK  Name = 
REMARK  3 active torsions:
REMARK  status: ('A' for Active; 'I' for Inactive)
REMARK    1  A    between atoms: C_2  and  C_3
REMARK    2  A    between atoms: C_3  and  C_4
REMARK    3  A    between atoms: N_15  and  C_16
REMARK                            x       y       z     vdW  Elec       q    Type
REMARK                         _______ _______ _______ _____ _____    ______ ____
ROOT
ATOM      1  O   UNL     1       2.527   8.501  17.218  0.00  0.00    +0.000 OA
ATOM      2  C   UNL     1       2.415   8.148  18.389  0.00  0.00    +0.000 C 
ATOM      3  N   UNL     1       1.512   8.653  19.312  0.00  0.00    +0.000 N 
ATOM      4  H   UNL     1       1.719   8.490  20.292  0.00  0.00    +0.000 HD
ENDROOT
BRANCH   3   5
ATOM      5  C   UNL     1       0.475   9.575  19.045  0.00  0.00    +0.000 A 
ATOM      6  C   UNL     1       0.311  10.763  19.757  0.00  0.00    +0.000 A 
ATOM      7  C   UNL     1      -0.764  11.615  19.481  0.00  0.00    +0.000 A 
ATOM      8  C   UNL     1      -1.685  11.295  18.485  0.00  0.00    +0.000 A 
ATOM      9  C   UNL     1      -1.473  10.153  17.700  0.00  0.00    +0.000 A 
ATOM     10  C   UNL     1      -0.409   9.290  17.995  0.00  0.00    +0.000 A 
ATOM     11  O   UNL     1      -2.253   9.774  16.634  0.00  0.00    +0.000 OA
ATOM     12  C   UNL     1      -2.740  10.879  15.867  0.00  0.00    +0.000 C 
ATOM     13  C   UNL     1      -4.028  11.438  16.451  0.00  0.00    +0.000 C 
ATOM     14  C   UNL     1      -3.957  11.550  17.963  0.00  0.00    +0.000 C 
ATOM     15  O   UNL     1      -2.735  12.169  18.368  0.00  0.00    +0.000 OA
ENDBRANCH   3   5
BRANCH   2  16
ATOM     16  C   UNL     1       3.347   7.087  18.959  0.00  0.00    +0.000 C 
BRANCH  16  17
ATOM     17  C   UNL     1       2.769   5.699  18.910  0.00  0.00    +0.000 A 
ATOM     18  C   UNL     1       1.972   5.220  19.955  0.00  0.00    +0.000 A 
ATOM     19  F   UNL     1       1.719   6.017  21.004  0.00  0.00    +0.000 F 
ATOM     20  C   UNL     1       1.414   3.944  19.914  0.00  0.00    +0.000 A 
ATOM     21  F   UNL     1       0.647   3.518  20.927  0.00  0.00    +0.000 F 
ATOM     22  C   UNL     1       1.638   3.125  18.817  0.00  0.00    +0.000 A 
ATOM     23  F   UNL     1       1.089   1.904  18.768  0.00  0.00    +0.000 F 
ATOM     24  C   UNL     1       2.419   3.581  17.765  0.00  0.00    +0.000 A 
ATOM     25  F   UNL     1       2.619   2.801  16.693  0.00  0.00    +0.000 F 
ATOM     26  C   UNL     1       2.981   4.856  17.814  0.00  0.00    +0.000 A 
ATOM     27  F   UNL     1       3.714   5.286  16.777  0.00  0.00    +0.000 F 
ENDBRANCH  16  17
ENDBRANCH   2  16
TORSDOF 3
ENDMDL
