MODEL 1
REMARK VINA RESULT:      -6.5      0.000      0.000
REMARK  Name = 
REMARK  15 active torsions:
REMARK  status: ('A' for Active; 'I' for Inactive)
REMARK    1  A    between atoms: C_1  and  C_2
REMARK    2  A    between atoms: C_2  and  N_3
REMARK    3  A    between atoms: C_2  and  C_11
REMARK    4  A    between atoms: C_4  and  O_6
REMARK    5  A    between atoms: O_6  and  C_7
REMARK    6  A    between atoms: C_7  and  C_8
REMARK    7  A    between atoms: C_7  and  C_9
REMARK    8  A    between atoms: C_7  and  C_10
REMARK    9  A    between atoms: N_16  and  C_17
REMARK   10  A    between atoms: C_17  and  C_18
REMARK   11  A    between atoms: C_18  and  C_19
REMARK   12  A    between atoms: C_19  and  O_20
REMARK   13  A    between atoms: O_20  and  C_21
REMARK   14  A    between atoms: C_24  and  C_25
REMARK   15  A    between atoms: C_25  and  C_27
REMARK                            x       y       z     vdW  Elec       q    Type
REMARK                         _______ _______ _______ _____ _____    ______ ____
ROOT
ATOM      1  C   UNL     1       1.704  10.145  18.519  0.00  0.00    +0.000 C 
ATOM      2  O   UNL     1       2.141  10.430  17.398  0.00  0.00    +0.000 OA
ATOM      3  N   UNL     1       1.631   8.830  18.977  0.00  0.00    +0.000 N 
ATOM      4  C   UNL     1       2.180   7.743  18.163  0.00  0.00    +0.000 C 
ATOM      5  C   UNL     1       2.971   6.754  19.047  0.00  0.00    +0.000 C 
ATOM      6  N   UNL     1       2.223   6.230  20.217  0.00  0.00    +0.000 NA
ATOM      7  C   UNL     1       1.704   7.375  20.995  0.00  0.00    +0.000 C 
ATOM      8  C   UNL     1       0.883   8.376  20.163  0.00  0.00    +0.000 C 
ENDROOT
BRANCH   1  10
ATOM      9  C   UNL     1       1.803  12.600  18.967  0.00  0.00    +0.000 C 
ATOM     10  C   UNL     1       1.349  11.251  19.523  0.00  0.00    +0.000 C 
BRANCH  10  11
ATOM     11  N   UNL     1      -0.053  11.296  19.892  0.00  0.00    +0.000 N 
ATOM     12  C   UNL     1      -0.391  11.646  21.167  0.00  0.00    +0.000 C 
ATOM     13  O   UNL     1       0.439  11.923  22.024  0.00  0.00    +0.000 OA
ATOM     14  H   UNL     1      -0.774  11.085  19.213  0.00  0.00    +0.000 HD
BRANCH  12  15
ATOM     15  O   UNL     1      -1.731  11.630  21.346  0.00  0.00    +0.000 OA
BRANCH  15  16
ATOM     16  C   UNL     1      -2.485  12.824  20.993  0.00  0.00    +0.000 C 
ATOM     17  C   UNL     1      -3.449  12.564  19.826  0.00  0.00    +0.000 C 
ATOM     18  C   UNL     1      -3.318  13.169  22.237  0.00  0.00    +0.000 C 
ATOM     19  C   UNL     1      -1.545  14.004  20.707  0.00  0.00    +0.000 C 
ENDBRANCH  15  16
ENDBRANCH  12  15
ENDBRANCH  10  11
ENDBRANCH   1  10
BRANCH   6  20
ATOM     20  C   UNL     1       1.133   5.307  19.854  0.00  0.00    +0.000 C 
BRANCH  20  21
ATOM     21  C   UNL     1       1.048   4.064  20.740  0.00  0.00    +0.000 C 
BRANCH  21  22
ATOM     22  C   UNL     1       2.307   3.216  20.641  0.00  0.00    +0.000 C 
BRANCH  22  23
ATOM     23  O   UNL     1       2.457   2.788  19.287  0.00  0.00    +0.000 OA
BRANCH  23  24
ATOM     24  C   UNL     1       3.539   3.300  18.627  0.00  0.00    +0.000 A 
ATOM     25  C   UNL     1       4.620   3.647  19.436  0.00  0.00    +0.000 A 
ATOM     26  C   UNL     1       5.784   4.177  18.870  0.00  0.00    +0.000 A 
ATOM     27  C   UNL     1       5.891   4.345  17.482  0.00  0.00    +0.000 A 
ATOM     28  C   UNL     1       4.809   3.977  16.673  0.00  0.00    +0.000 A 
ATOM     29  C   UNL     1       3.640   3.462  17.245  0.00  0.00    +0.000 A 
BRANCH  27  30
ATOM     30  C   UNL     1       7.163   4.911  16.933  0.00  0.00    +0.000 C 
ATOM     31  O   UNL     1       8.098   4.166  16.654  0.00  0.00    +0.000 OA
BRANCH  30  32
ATOM     32  C   UNL     1       7.267   6.388  16.701  0.00  0.00    +0.000 C 
ATOM     33  C   UNL     1       6.298   7.356  17.337  0.00  0.00    +0.000 C 
ATOM     34  C   UNL     1       7.714   7.289  17.831  0.00  0.00    +0.000 C 
ENDBRANCH  30  32
ENDBRANCH  27  30
ENDBRANCH  23  24
ENDBRANCH  22  23
ENDBRANCH  21  22
ENDBRANCH  20  21
ENDBRANCH   6  20
TORSDOF 11
ENDMDL
MODEL 2
REMARK VINA RESULT:      -6.2      3.018      9.443
REMARK  Name = 
REMARK  15 active torsions:
REMARK  status: ('A' for Active; 'I' for Inactive)
REMARK    1  A    between atoms: C_1  and  C_2
REMARK    2  A    between atoms: C_2  and  N_3
REMARK    3  A    between atoms: C_2  and  C_11
REMARK    4  A    between atoms: C_4  and  O_6
REMARK    5  A    between atoms: O_6  and  C_7
REMARK    6  A    between atoms: C_7  and  C_8
REMARK    7  A    between atoms: C_7  and  C_9
REMARK    8  A    between atoms: C_7  and  C_10
REMARK    9  A    between atoms: N_16  and  C_17
REMARK   10  A    between atoms: C_17  and  C_18
REMARK   11  A    between atoms: C_18  and  C_19
REMARK   12  A    between atoms: C_19  and  O_20
REMARK   13  A    between atoms: O_20  and  C_21
REMARK   14  A    between atoms: C_24  and  C_25
REMARK   15  A    between atoms: C_25  and  C_27
REMARK                            x       y       z     vdW  Elec       q    Type
REMARK                         _______ _______ _______ _____ _____    ______ ____
ROOT
ATOM      1  C   UNL     1       5.672   5.915  16.680  0.00  0.00    +0.000 C 
ATOM      2  O   UNL     1       5.458   7.003  16.133  0.00  0.00    +0.000 OA
ATOM      3  N   UNL     1       4.755   5.328  17.552  0.00  0.00    +0.000 N 
ATOM      4  C   UNL     1       3.447   5.951  17.761  0.00  0.00    +0.000 C 
ATOM      5  C   UNL     1       2.333   4.881  17.761  0.00  0.00    +0.000 C 
ATOM      6  N   UNL     1       2.554   3.754  18.702  0.00  0.00    +0.000 NA
ATOM      7  C   UNL     1       3.885   3.169  18.432  0.00  0.00    +0.000 C 
ATOM      8  C   UNL     1       5.033   4.194  18.451  0.00  0.00    +0.000 C 
ENDROOT
BRANCH   1  10
ATOM      9  C   UNL     1       7.600   4.615  17.591  0.00  0.00    +0.000 C 
ATOM     10  C   UNL     1       6.909   5.084  16.311  0.00  0.00    +0.000 C 
BRANCH  10  11
ATOM     11  N   UNL     1       6.635   3.960  15.438  0.00  0.00    +0.000 N 
ATOM     12  C   UNL     1       6.702   4.140  14.086  0.00  0.00    +0.000 C 
ATOM     13  O   UNL     1       6.982   5.214  13.571  0.00  0.00    +0.000 OA
ATOM     14  H   UNL     1       6.410   3.049  15.820  0.00  0.00    +0.000 HD
BRANCH  12  15
ATOM     15  O   UNL     1       6.411   3.000  13.420  0.00  0.00    +0.000 OA
BRANCH  15  16
ATOM     16  C   UNL     1       6.040   3.101  12.016  0.00  0.00    +0.000 C 
ATOM     17  C   UNL     1       7.067   3.914  11.214  0.00  0.00    +0.000 C 
ATOM     18  C   UNL     1       6.047   1.660  11.483  0.00  0.00    +0.000 C 
ATOM     19  C   UNL     1       4.619   3.659  11.861  0.00  0.00    +0.000 C 
ENDBRANCH  15  16
ENDBRANCH  12  15
ENDBRANCH  10  11
ENDBRANCH   1  10
BRANCH   6  20
ATOM     20  C   UNL     1       2.428   4.137  20.120  0.00  0.00    +0.000 C 
BRANCH  20  21
ATOM     21  C   UNL     1       1.133   4.879  20.451  0.00  0.00    +0.000 C 
BRANCH  21  22
ATOM     22  C   UNL     1       1.405   6.197  21.162  0.00  0.00    +0.000 C 
BRANCH  22  23
ATOM     23  O   UNL     1       2.083   7.066  20.253  0.00  0.00    +0.000 OA
BRANCH  23  24
ATOM     24  C   UNL     1       1.482   8.275  20.040  0.00  0.00    +0.000 A 
ATOM     25  C   UNL     1       1.679   8.823  18.774  0.00  0.00    +0.000 A 
ATOM     26  C   UNL     1       1.109  10.056  18.441  0.00  0.00    +0.000 A 
ATOM     27  C   UNL     1       0.311  10.746  19.366  0.00  0.00    +0.000 A 
ATOM     28  C   UNL     1       0.100  10.181  20.629  0.00  0.00    +0.000 A 
ATOM     29  C   UNL     1       0.687   8.955  20.963  0.00  0.00    +0.000 A 
BRANCH  27  30
ATOM     30  C   UNL     1      -0.279  12.058  18.951  0.00  0.00    +0.000 C 
ATOM     31  O   UNL     1      -1.177  12.092  18.115  0.00  0.00    +0.000 OA
BRANCH  30  32
ATOM     32  C   UNL     1       0.218  13.318  19.592  0.00  0.00    +0.000 C 
ATOM     33  C   UNL     1       1.676  13.506  19.936  0.00  0.00    +0.000 C 
ATOM     34  C   UNL     1       1.079  14.271  18.791  0.00  0.00    +0.000 C 
ENDBRANCH  30  32
ENDBRANCH  27  30
ENDBRANCH  23  24
ENDBRANCH  22  23
ENDBRANCH  21  22
ENDBRANCH  20  21
ENDBRANCH   6  20
TORSDOF 11
ENDMDL
MODEL 3
REMARK VINA RESULT:      -6.2      3.308     11.192
REMARK  Name = 
REMARK  15 active torsions:
REMARK  status: ('A' for Active; 'I' for Inactive)
REMARK    1  A    between atoms: C_1  and  C_2
REMARK    2  A    between atoms: C_2  and  N_3
REMARK    3  A    between atoms: C_2  and  C_11
REMARK    4  A    between atoms: C_4  and  O_6
REMARK    5  A    between atoms: O_6  and  C_7
REMARK    6  A    between atoms: C_7  and  C_8
REMARK    7  A    between atoms: C_7  and  C_9
REMARK    8  A    between atoms: C_7  and  C_10
REMARK    9  A    between atoms: N_16  and  C_17
REMARK   10  A    between atoms: C_17  and  C_18
REMARK   11  A    between atoms: C_18  and  C_19
REMARK   12  A    between atoms: C_19  and  O_20
REMARK   13  A    between atoms: O_20  and  C_21
REMARK   14  A    between atoms: C_24  and  C_25
REMARK   15  A    between atoms: C_25  and  C_27
REMARK                            x       y       z     vdW  Elec       q    Type
REMARK                         _______ _______ _______ _____ _____    ______ ____
ROOT
ATOM      1  C   UNL     1       4.562   4.192  17.340  0.00  0.00    +0.000 C 
ATOM      2  O   UNL     1       4.244   3.038  17.647  0.00  0.00    +0.000 OA
ATOM      3  N   UNL     1       3.775   5.295  17.672  0.00  0.00    +0.000 N 
ATOM      4  C   UNL     1       2.581   5.114  18.500  0.00  0.00    +0.000 C 
ATOM      5  C   UNL     1       2.493   6.225  19.569  0.00  0.00    +0.000 C 
ATOM      6  N   UNL     1       2.580   7.608  19.038  0.00  0.00    +0.000 NA
ATOM      7  C   UNL     1       3.807   7.722  18.220  0.00  0.00    +0.000 C 
ATOM      8  C   UNL     1       3.926   6.652  17.120  0.00  0.00    +0.000 C 
ENDROOT
BRANCH   1  10
ATOM      9  C   UNL     1       7.001   4.500  17.782  0.00  0.00    +0.000 C 
ATOM     10  C   UNL     1       5.926   4.481  16.696  0.00  0.00    +0.000 C 
BRANCH  10  11
ATOM     11  N   UNL     1       6.291   3.567  15.632  0.00  0.00    +0.000 N 
ATOM     12  C   UNL     1       5.898   3.846  14.355  0.00  0.00    +0.000 C 
ATOM     13  O   UNL     1       5.245   4.840  14.062  0.00  0.00    +0.000 OA
ATOM     14  H   UNL     1       6.840   2.738  15.827  0.00  0.00    +0.000 HD
BRANCH  12  15
ATOM     15  O   UNL     1       6.310   2.892  13.490  0.00  0.00    +0.000 OA
BRANCH  15  16
ATOM     16  C   UNL     1       6.264   3.190  12.066  0.00  0.00    +0.000 C 
ATOM     17  C   UNL     1       7.184   4.364  11.700  0.00  0.00    +0.000 C 
ATOM     18  C   UNL     1       6.791   1.929  11.364  0.00  0.00    +0.000 C 
ATOM     19  C   UNL     1       4.820   3.426  11.600  0.00  0.00    +0.000 C 
ENDBRANCH  15  16
ENDBRANCH  12  15
ENDBRANCH  10  11
ENDBRANCH   1  10
BRANCH   6  20
ATOM     20  C   UNL     1       1.395   8.017  18.262  0.00  0.00    +0.000 C 
BRANCH  20  21
ATOM     21  C   UNL     1       1.356   9.508  17.925  0.00  0.00    +0.000 C 
BRANCH  21  22
ATOM     22  C   UNL     1       0.089  10.170  18.445  0.00  0.00    +0.000 C 
BRANCH  22  23
ATOM     23  O   UNL     1      -0.968   9.903  17.523  0.00  0.00    +0.000 OA
BRANCH  23  24
ATOM     24  C   UNL     1      -2.172  10.472  17.833  0.00  0.00    +0.000 A 
ATOM     25  C   UNL     1      -2.149  11.377  18.892  0.00  0.00    +0.000 A 
ATOM     26  C   UNL     1      -3.322  12.024  19.295  0.00  0.00    +0.000 A 
ATOM     27  C   UNL     1      -4.532  11.790  18.625  0.00  0.00    +0.000 A 
ATOM     28  C   UNL     1      -4.545  10.895  17.550  0.00  0.00    +0.000 A 
ATOM     29  C   UNL     1      -3.372  10.237  17.161  0.00  0.00    +0.000 A 
BRANCH  27  30
ATOM     30  C   UNL     1      -5.753  12.516  19.097  0.00  0.00    +0.000 C 
ATOM     31  O   UNL     1      -5.697  13.716  19.349  0.00  0.00    +0.000 OA
BRANCH  30  32
ATOM     32  C   UNL     1      -7.045  11.767  19.225  0.00  0.00    +0.000 C 
ATOM     33  C   UNL     1      -7.088  10.352  19.751  0.00  0.00    +0.000 C 
ATOM     34  C   UNL     1      -7.604  11.477  20.600  0.00  0.00    +0.000 C 
ENDBRANCH  30  32
ENDBRANCH  27  30
ENDBRANCH  23  24
ENDBRANCH  22  23
ENDBRANCH  21  22
ENDBRANCH  20  21
ENDBRANCH   6  20
TORSDOF 11
ENDMDL
MODEL 4
REMARK VINA RESULT:      -6.0      5.936      8.248
REMARK  Name = 
REMARK  15 active torsions:
REMARK  status: ('A' for Active; 'I' for Inactive)
REMARK    1  A    between atoms: C_1  and  C_2
REMARK    2  A    between atoms: C_2  and  N_3
REMARK    3  A    between atoms: C_2  and  C_11
REMARK    4  A    between atoms: C_4  and  O_6
REMARK    5  A    between atoms: O_6  and  C_7
REMARK    6  A    between atoms: C_7  and  C_8
REMARK    7  A    between atoms: C_7  and  C_9
REMARK    8  A    between atoms: C_7  and  C_10
REMARK    9  A    between atoms: N_16  and  C_17
REMARK   10  A    between atoms: C_17  and  C_18
REMARK   11  A    between atoms: C_18  and  C_19
REMARK   12  A    between atoms: C_19  and  O_20
REMARK   13  A    between atoms: O_20  and  C_21
REMARK   14  A    between atoms: C_24  and  C_25
REMARK   15  A    between atoms: C_25  and  C_27
REMARK                            x       y       z     vdW  Elec       q    Type
REMARK                         _______ _______ _______ _____ _____    ______ ____
ROOT
ATOM      1  C   UNL     1      11.047  14.476  17.339  0.00  0.00    +0.000 C 
ATOM      2  O   UNL     1      12.074  14.441  16.653  0.00  0.00    +0.000 OA
ATOM      3  N   UNL     1      10.388  13.318  17.752  0.00  0.00    +0.000 N 
ATOM      4  C   UNL     1      10.970  12.006  17.462  0.00  0.00    +0.000 C 
ATOM      5  C   UNL     1      10.862  11.083  18.695  0.00  0.00    +0.000 C 
ATOM      6  N   UNL     1       9.494  10.957  19.259  0.00  0.00    +0.000 NA
ATOM      7  C   UNL     1       8.971  12.313  19.534  0.00  0.00    +0.000 C 
ATOM      8  C   UNL     1       9.031  13.262  18.324  0.00  0.00    +0.000 C 
ENDROOT
BRANCH   1  10
ATOM      9  C   UNL     1      11.383  16.951  17.356  0.00  0.00    +0.000 C 
ATOM     10  C   UNL     1      10.523  15.808  17.895  0.00  0.00    +0.000 C 
BRANCH  10  11
ATOM     11  N   UNL     1       9.120  16.056  17.628  0.00  0.00    +0.000 N 
ATOM     12  C   UNL     1       8.383  16.746  18.547  0.00  0.00    +0.000 C 
ATOM     13  O   UNL     1       8.853  17.167  19.596  0.00  0.00    +0.000 OA
ATOM     14  H   UNL     1       8.691  15.736  16.768  0.00  0.00    +0.000 HD
BRANCH  12  15
ATOM     15  O   UNL     1       7.098  16.882  18.150  0.00  0.00    +0.000 OA
BRANCH  15  16
ATOM     16  C   UNL     1       6.048  16.635  19.127  0.00  0.00    +0.000 C 
ATOM     17  C   UNL     1       4.658  16.601  18.473  0.00  0.00    +0.000 C 
ATOM     18  C   UNL     1       6.340  15.242  19.705  0.00  0.00    +0.000 C 
ATOM     19  C   UNL     1       6.115  17.650  20.277  0.00  0.00    +0.000 C 
ENDBRANCH  15  16
ENDBRANCH  12  15
ENDBRANCH  10  11
ENDBRANCH   1  10
BRANCH   6  20
ATOM     20  C   UNL     1       8.568  10.203  18.395  0.00  0.00    +0.000 C 
BRANCH  20  21
ATOM     21  C   UNL     1       8.741   8.686  18.471  0.00  0.00    +0.000 C 
BRANCH  21  22
ATOM     22  C   UNL     1       7.611   7.954  17.761  0.00  0.00    +0.000 C 
BRANCH  22  23
ATOM     23  O   UNL     1       7.934   6.564  17.716  0.00  0.00    +0.000 OA
BRANCH  23  24
ATOM     24  C   UNL     1       6.872   5.712  17.827  0.00  0.00    +0.000 A 
ATOM     25  C   UNL     1       6.384   5.207  16.623  0.00  0.00    +0.000 A 
ATOM     26  C   UNL     1       5.301   4.322  16.614  0.00  0.00    +0.000 A 
ATOM     27  C   UNL     1       4.706   3.911  17.816  0.00  0.00    +0.000 A 
ATOM     28  C   UNL     1       5.212   4.406  19.023  0.00  0.00    +0.000 A 
ATOM     29  C   UNL     1       6.285   5.305  19.026  0.00  0.00    +0.000 A 
BRANCH  27  30
ATOM     30  C   UNL     1       3.554   2.957  17.745  0.00  0.00    +0.000 C 
ATOM     31  O   UNL     1       3.757   1.746  17.739  0.00  0.00    +0.000 OA
BRANCH  30  32
ATOM     32  C   UNL     1       2.158   3.499  17.715  0.00  0.00    +0.000 C 
ATOM     33  C   UNL     1       1.495   4.042  18.959  0.00  0.00    +0.000 C 
ATOM     34  C   UNL     1       1.932   4.986  17.877  0.00  0.00    +0.000 C 
ENDBRANCH  30  32
ENDBRANCH  27  30
ENDBRANCH  23  24
ENDBRANCH  22  23
ENDBRANCH  21  22
ENDBRANCH  20  21
ENDBRANCH   6  20
TORSDOF 11
ENDMDL
MODEL 5
REMARK VINA RESULT:      -6.0      2.849      5.473
REMARK  Name = 
REMARK  15 active torsions:
REMARK  status: ('A' for Active; 'I' for Inactive)
REMARK    1  A    between atoms: C_1  and  C_2
REMARK    2  A    between atoms: C_2  and  N_3
REMARK    3  A    between atoms: C_2  and  C_11
REMARK    4  A    between atoms: C_4  and  O_6
REMARK    5  A    between atoms: O_6  and  C_7
REMARK    6  A    between atoms: C_7  and  C_8
REMARK    7  A    between atoms: C_7  and  C_9
REMARK    8  A    between atoms: C_7  and  C_10
REMARK    9  A    between atoms: N_16  and  C_17
REMARK   10  A    between atoms: C_17  and  C_18
REMARK   11  A    between atoms: C_18  and  C_19
REMARK   12  A    between atoms: C_19  and  O_20
REMARK   13  A    between atoms: O_20  and  C_21
REMARK   14  A    between atoms: C_24  and  C_25
REMARK   15  A    between atoms: C_25  and  C_27
REMARK                            x       y       z     vdW  Elec       q    Type
REMARK                         _______ _______ _______ _____ _____    ______ ____
ROOT
ATOM      1  C   UNL     1      -0.797  14.211  22.584  0.00  0.00    +0.000 C 
ATOM      2  O   UNL     1      -0.172  15.234  22.283  0.00  0.00    +0.000 OA
ATOM      3  N   UNL     1      -0.595  12.996  21.930  0.00  0.00    +0.000 N 
ATOM      4  C   UNL     1       0.460  12.878  20.921  0.00  0.00    +0.000 C 
ATOM      5  C   UNL     1       1.233  11.554  21.101  0.00  0.00    +0.000 C 
ATOM      6  N   UNL     1       0.383  10.338  21.140  0.00  0.00    +0.000 NA
ATOM      7  C   UNL     1      -0.652  10.521  22.180  0.00  0.00    +0.000 C 
ATOM      8  C   UNL     1      -1.471  11.815  22.027  0.00  0.00    +0.000 C 
ENDROOT
BRANCH   1  10
ATOM      9  C   UNL     1      -1.178  15.133  24.874  0.00  0.00    +0.000 C 
ATOM     10  C   UNL     1      -1.734  14.197  23.801  0.00  0.00    +0.000 C 
BRANCH  10  11
ATOM     11  N   UNL     1      -3.112  14.529  23.498  0.00  0.00    +0.000 N 
ATOM     12  C   UNL     1      -4.109  13.757  24.021  0.00  0.00    +0.000 C 
ATOM     13  O   UNL     1      -3.895  12.788  24.738  0.00  0.00    +0.000 OA
ATOM     14  H   UNL     1      -3.337  15.328  22.918  0.00  0.00    +0.000 HD
BRANCH  12  15
ATOM     15  O   UNL     1      -5.328  14.195  23.635  0.00  0.00    +0.000 OA
BRANCH  15  16
ATOM     16  C   UNL     1      -6.004  13.487  22.557  0.00  0.00    +0.000 C 
ATOM     17  C   UNL     1      -7.124  12.579  23.087  0.00  0.00    +0.000 C 
ATOM     18  C   UNL     1      -6.642  14.576  21.683  0.00  0.00    +0.000 C 
ATOM     19  C   UNL     1      -4.999  12.711  21.694  0.00  0.00    +0.000 C 
ENDBRANCH  15  16
ENDBRANCH  12  15
ENDBRANCH  10  11
ENDBRANCH   1  10
BRANCH   6  20
ATOM     20  C   UNL     1      -0.232  10.007  19.842  0.00  0.00    +0.000 C 
BRANCH  20  21
ATOM     21  C   UNL     1       0.645  10.339  18.635  0.00  0.00    +0.000 C 
BRANCH  21  22
ATOM     22  C   UNL     1       1.261   9.088  18.026  0.00  0.00    +0.000 C 
BRANCH  22  23
ATOM     23  O   UNL     1       2.364   8.688  18.841  0.00  0.00    +0.000 OA
BRANCH  23  24
ATOM     24  C   UNL     1       2.353   7.380  19.239  0.00  0.00    +0.000 A 
ATOM     25  C   UNL     1       3.074   6.505  18.429  0.00  0.00    +0.000 A 
ATOM     26  C   UNL     1       3.137   5.143  18.741  0.00  0.00    +0.000 A 
ATOM     27  C   UNL     1       2.497   4.642  19.885  0.00  0.00    +0.000 A 
ATOM     28  C   UNL     1       1.791   5.530  20.705  0.00  0.00    +0.000 A 
ATOM     29  C   UNL     1       1.717   6.889  20.380  0.00  0.00    +0.000 A 
BRANCH  27  30
ATOM     30  C   UNL     1       2.605   3.177  20.172  0.00  0.00    +0.000 C 
ATOM     31  O   UNL     1       2.924   2.791  21.293  0.00  0.00    +0.000 OA
BRANCH  30  32
ATOM     32  C   UNL     1       2.288   2.194  19.086  0.00  0.00    +0.000 C 
ATOM     33  C   UNL     1       2.302   2.596  17.630  0.00  0.00    +0.000 C 
ATOM     34  C   UNL     1       3.393   1.717  18.169  0.00  0.00    +0.000 C 
ENDBRANCH  30  32
ENDBRANCH  27  30
ENDBRANCH  23  24
ENDBRANCH  22  23
ENDBRANCH  21  22
ENDBRANCH  20  21
ENDBRANCH   6  20
TORSDOF 11
ENDMDL
MODEL 6
REMARK VINA RESULT:      -6.0      2.833      9.302
REMARK  Name = 
REMARK  15 active torsions:
REMARK  status: ('A' for Active; 'I' for Inactive)
REMARK    1  A    between atoms: C_1  and  C_2
REMARK    2  A    between atoms: C_2  and  N_3
REMARK    3  A    between atoms: C_2  and  C_11
REMARK    4  A    between atoms: C_4  and  O_6
REMARK    5  A    between atoms: O_6  and  C_7
REMARK    6  A    between atoms: C_7  and  C_8
REMARK    7  A    between atoms: C_7  and  C_9
REMARK    8  A    between atoms: C_7  and  C_10
REMARK    9  A    between atoms: N_16  and  C_17
REMARK   10  A    between atoms: C_17  and  C_18
REMARK   11  A    between atoms: C_18  and  C_19
REMARK   12  A    between atoms: C_19  and  O_20
REMARK   13  A    between atoms: O_20  and  C_21
REMARK   14  A    between atoms: C_24  and  C_25
REMARK   15  A    between atoms: C_25  and  C_27
REMARK                            x       y       z     vdW  Elec       q    Type
REMARK                         _______ _______ _______ _____ _____    ______ ____
ROOT
ATOM      1  C   UNL     1       2.366   7.578  19.092  0.00  0.00    +0.000 C 
ATOM      2  O   UNL     1       2.782   7.939  17.985  0.00  0.00    +0.000 OA
ATOM      3  N   UNL     1       1.591   8.408  19.902  0.00  0.00    +0.000 N 
ATOM      4  C   UNL     1       1.157   9.715  19.402  0.00  0.00    +0.000 C 
ATOM      5  C   UNL     1      -0.323   9.966  19.764  0.00  0.00    +0.000 C 
ATOM      6  N   UNL     1      -0.648   9.801  21.203  0.00  0.00    +0.000 NA
ATOM      7  C   UNL     1      -0.190   8.463  21.638  0.00  0.00    +0.000 C 
ATOM      8  C   UNL     1       1.289   8.177  21.325  0.00  0.00    +0.000 C 
ENDROOT
BRANCH   1  10
ATOM      9  C   UNL     1       1.870   5.181  18.598  0.00  0.00    +0.000 C 
ATOM     10  C   UNL     1       2.567   6.133  19.570  0.00  0.00    +0.000 C 
BRANCH  10  11
ATOM     11  N   UNL     1       3.953   5.751  19.752  0.00  0.00    +0.000 N 
ATOM     12  C   UNL     1       4.603   5.110  18.737  0.00  0.00    +0.000 C 
ATOM     13  O   UNL     1       4.066   4.837  17.671  0.00  0.00    +0.000 OA
ATOM     14  H   UNL     1       4.441   5.966  20.614  0.00  0.00    +0.000 HD
BRANCH  12  15
ATOM     15  O   UNL     1       5.879   4.817  19.072  0.00  0.00    +0.000 OA
BRANCH  15  16
ATOM     16  C   UNL     1       6.950   5.458  18.323  0.00  0.00    +0.000 C 
ATOM     17  C   UNL     1       6.484   6.769  17.672  0.00  0.00    +0.000 C 
ATOM     18  C   UNL     1       8.034   5.794  19.357  0.00  0.00    +0.000 C 
ATOM     19  C   UNL     1       7.556   4.492  17.294  0.00  0.00    +0.000 C 
ENDBRANCH  15  16
ENDBRANCH  12  15
ENDBRANCH  10  11
ENDBRANCH   1  10
BRANCH   6  20
ATOM     20  C   UNL     1      -0.077  10.855  22.061  0.00  0.00    +0.000 C 
BRANCH  20  21
ATOM     21  C   UNL     1      -1.073  11.945  22.454  0.00  0.00    +0.000 C 
BRANCH  21  22
ATOM     22  C   UNL     1      -0.725  13.282  21.818  0.00  0.00    +0.000 C 
BRANCH  22  23
ATOM     23  O   UNL     1       0.596  13.642  22.222  0.00  0.00    +0.000 OA
BRANCH  23  24
ATOM     24  C   UNL     1       1.368  14.223  21.254  0.00  0.00    +0.000 A 
ATOM     25  C   UNL     1       1.917  15.458  21.591  0.00  0.00    +0.000 A 
ATOM     26  C   UNL     1       2.727  16.144  20.681  0.00  0.00    +0.000 A 
ATOM     27  C   UNL     1       3.018  15.588  19.426  0.00  0.00    +0.000 A 
ATOM     28  C   UNL     1       2.480  14.338  19.101  0.00  0.00    +0.000 A 
ATOM     29  C   UNL     1       1.656  13.663  20.009  0.00  0.00    +0.000 A 
BRANCH  27  30
ATOM     30  C   UNL     1       3.896  16.365  18.495  0.00  0.00    +0.000 C 
ATOM     31  O   UNL     1       3.402  17.166  17.707  0.00  0.00    +0.000 OA
BRANCH  30  32
ATOM     32  C   UNL     1       5.381  16.175  18.562  0.00  0.00    +0.000 C 
ATOM     33  C   UNL     1       5.999  15.066  19.381  0.00  0.00    +0.000 C 
ATOM     34  C   UNL     1       6.010  14.978  17.882  0.00  0.00    +0.000 C 
ENDBRANCH  30  32
ENDBRANCH  27  30
ENDBRANCH  23  24
ENDBRANCH  22  23
ENDBRANCH  21  22
ENDBRANCH  20  21
ENDBRANCH   6  20
TORSDOF 11
ENDMDL
MODEL 7
REMARK VINA RESULT:      -5.9      1.327      1.853
REMARK  Name = 
REMARK  15 active torsions:
REMARK  status: ('A' for Active; 'I' for Inactive)
REMARK    1  A    between atoms: C_1  and  C_2
REMARK    2  A    between atoms: C_2  and  N_3
REMARK    3  A    between atoms: C_2  and  C_11
REMARK    4  A    between atoms: C_4  and  O_6
REMARK    5  A    between atoms: O_6  and  C_7
REMARK    6  A    between atoms: C_7  and  C_8
REMARK    7  A    between atoms: C_7  and  C_9
REMARK    8  A    between atoms: C_7  and  C_10
REMARK    9  A    between atoms: N_16  and  C_17
REMARK   10  A    between atoms: C_17  and  C_18
REMARK   11  A    between atoms: C_18  and  C_19
REMARK   12  A    between atoms: C_19  and  O_20
REMARK   13  A    between atoms: O_20  and  C_21
REMARK   14  A    between atoms: C_24  and  C_25
REMARK   15  A    between atoms: C_25  and  C_27
REMARK                            x       y       z     vdW  Elec       q    Type
REMARK                         _______ _______ _______ _____ _____    ______ ____
ROOT
ATOM      1  C   UNL     1       0.822  10.967  19.391  0.00  0.00    +0.000 C 
ATOM      2  O   UNL     1       0.823  11.389  18.229  0.00  0.00    +0.000 OA
ATOM      3  N   UNL     1       1.003   9.617  19.693  0.00  0.00    +0.000 N 
ATOM      4  C   UNL     1       1.309   8.666  18.622  0.00  0.00    +0.000 C 
ATOM      5  C   UNL     1       2.423   7.693  19.066  0.00  0.00    +0.000 C 
ATOM      6  N   UNL     1       2.165   6.998  20.352  0.00  0.00    +0.000 NA
ATOM      7  C   UNL     1       1.871   8.013  21.386  0.00  0.00    +0.000 C 
ATOM      8  C   UNL     1       0.746   8.990  21.001  0.00  0.00    +0.000 C 
ENDROOT
BRANCH   1  10
ATOM      9  C   UNL     1       1.866  12.989  20.422  0.00  0.00    +0.000 C 
ATOM     10  C   UNL     1       0.763  11.941  20.577  0.00  0.00    +0.000 C 
BRANCH  10  11
ATOM     11  N   UNL     1      -0.525  12.580  20.761  0.00  0.00    +0.000 N 
ATOM     12  C   UNL     1      -0.795  13.194  21.951  0.00  0.00    +0.000 C 
ATOM     13  O   UNL     1       0.003  13.229  22.878  0.00  0.00    +0.000 OA
ATOM     14  H   UNL     1      -1.213  12.585  20.017  0.00  0.00    +0.000 HD
BRANCH  12  15
ATOM     15  O   UNL     1      -2.037  13.729  21.961  0.00  0.00    +0.000 OA
BRANCH  15  16
ATOM     16  C   UNL     1      -2.976  13.266  22.972  0.00  0.00    +0.000 C 
ATOM     17  C   UNL     1      -3.007  14.200  24.190  0.00  0.00    +0.000 C 
ATOM     18  C   UNL     1      -4.357  13.305  22.301  0.00  0.00    +0.000 C 
ATOM     19  C   UNL     1      -2.682  11.813  23.372  0.00  0.00    +0.000 C 
ENDBRANCH  15  16
ENDBRANCH  12  15
ENDBRANCH  10  11
ENDBRANCH   1  10
BRANCH   6  20
ATOM     20  C   UNL     1       1.082   6.000  20.276  0.00  0.00    +0.000 C 
BRANCH  20  21
ATOM     21  C   UNL     1       1.466   4.621  20.812  0.00  0.00    +0.000 C 
BRANCH  21  22
ATOM     22  C   UNL     1       0.798   3.504  20.024  0.00  0.00    +0.000 C 
BRANCH  22  23
ATOM     23  O   UNL     1       1.787   2.523  19.708  0.00  0.00    +0.000 OA
BRANCH  23  24
ATOM     24  C   UNL     1       2.839   2.972  18.960  0.00  0.00    +0.000 A 
ATOM     25  C   UNL     1       2.526   3.336  17.651  0.00  0.00    +0.000 A 
ATOM     26  C   UNL     1       3.522   3.814  16.793  0.00  0.00    +0.000 A 
ATOM     27  C   UNL     1       4.844   3.955  17.243  0.00  0.00    +0.000 A 
ATOM     28  C   UNL     1       5.148   3.606  18.564  0.00  0.00    +0.000 A 
ATOM     29  C   UNL     1       4.151   3.113  19.414  0.00  0.00    +0.000 A 
BRANCH  27  30
ATOM     30  C   UNL     1       5.866   4.477  16.282  0.00  0.00    +0.000 C 
ATOM     31  O   UNL     1       6.443   3.708  15.519  0.00  0.00    +0.000 OA
BRANCH  30  32
ATOM     32  C   UNL     1       6.149   5.948  16.244  0.00  0.00    +0.000 C 
ATOM     33  C   UNL     1       5.680   6.870  17.344  0.00  0.00    +0.000 C 
ATOM     34  C   UNL     1       7.140   6.541  17.223  0.00  0.00    +0.000 C 
ENDBRANCH  30  32
ENDBRANCH  27  30
ENDBRANCH  23  24
ENDBRANCH  22  23
ENDBRANCH  21  22
ENDBRANCH  20  21
ENDBRANCH   6  20
TORSDOF 11
ENDMDL
MODEL 8
REMARK VINA RESULT:      -5.9      3.405      9.247
REMARK  Name = 
REMARK  15 active torsions:
REMARK  status: ('A' for Active; 'I' for Inactive)
REMARK    1  A    between atoms: C_1  and  C_2
REMARK    2  A    between atoms: C_2  and  N_3
REMARK    3  A    between atoms: C_2  and  C_11
REMARK    4  A    between atoms: C_4  and  O_6
REMARK    5  A    between atoms: O_6  and  C_7
REMARK    6  A    between atoms: C_7  and  C_8
REMARK    7  A    between atoms: C_7  and  C_9
REMARK    8  A    between atoms: C_7  and  C_10
REMARK    9  A    between atoms: N_16  and  C_17
REMARK   10  A    between atoms: C_17  and  C_18
REMARK   11  A    between atoms: C_18  and  C_19
REMARK   12  A    between atoms: C_19  and  O_20
REMARK   13  A    between atoms: O_20  and  C_21
REMARK   14  A    between atoms: C_24  and  C_25
REMARK   15  A    between atoms: C_25  and  C_27
REMARK                            x       y       z     vdW  Elec       q    Type
REMARK                         _______ _______ _______ _____ _____    ______ ____
ROOT
ATOM      1  C   UNL     1       2.312   7.647  18.854  0.00  0.00    +0.000 C 
ATOM      2  O   UNL     1       2.466   7.791  17.636  0.00  0.00    +0.000 OA
ATOM      3  N   UNL     1       1.629   8.580  19.634  0.00  0.00    +0.000 N 
ATOM      4  C   UNL     1       0.974   9.723  18.995  0.00  0.00    +0.000 C 
ATOM      5  C   UNL     1      -0.425   9.955  19.606  0.00  0.00    +0.000 C 
ATOM      6  N   UNL     1      -0.445  10.076  21.085  0.00  0.00    +0.000 NA
ATOM      7  C   UNL     1       0.223   8.890  21.664  0.00  0.00    +0.000 C 
ATOM      8  C   UNL     1       1.635   8.634  21.106  0.00  0.00    +0.000 C 
ENDROOT
BRANCH   1  10
ATOM      9  C   UNL     1       1.544   5.725  20.253  0.00  0.00    +0.000 C 
ATOM     10  C   UNL     1       2.749   6.348  19.548  0.00  0.00    +0.000 C 
BRANCH  10  11
ATOM     11  N   UNL     1       3.381   5.384  18.670  0.00  0.00    +0.000 N 
ATOM     12  C   UNL     1       4.711   5.118  18.828  0.00  0.00    +0.000 C 
ATOM     13  O   UNL     1       5.402   5.659  19.681  0.00  0.00    +0.000 OA
ATOM     14  H   UNL     1       2.846   4.904  17.957  0.00  0.00    +0.000 HD
BRANCH  12  15
ATOM     15  O   UNL     1       5.143   4.207  17.927  0.00  0.00    +0.000 OA
BRANCH  15  16
ATOM     16  C   UNL     1       5.989   4.669  16.836  0.00  0.00    +0.000 C 
ATOM     17  C   UNL     1       5.661   6.115  16.434  0.00  0.00    +0.000 C 
ATOM     18  C   UNL     1       7.424   4.637  17.384  0.00  0.00    +0.000 C 
ATOM     19  C   UNL     1       5.915   3.711  15.639  0.00  0.00    +0.000 C 
ENDBRANCH  15  16
ENDBRANCH  12  15
ENDBRANCH  10  11
ENDBRANCH   1  10
BRANCH   6  20
ATOM     20  C   UNL     1       0.172  11.319  21.583  0.00  0.00    +0.000 C 
BRANCH  20  21
ATOM     21  C   UNL     1      -0.384  12.590  20.941  0.00  0.00    +0.000 C 
BRANCH  21  22
ATOM     22  C   UNL     1       0.515  13.791  21.199  0.00  0.00    +0.000 C 
BRANCH  22  23
ATOM     23  O   UNL     1       1.822  13.313  21.520  0.00  0.00    +0.000 OA
BRANCH  23  24
ATOM     24  C   UNL     1       2.855  14.011  20.959  0.00  0.00    +0.000 A 
ATOM     25  C   UNL     1       2.636  14.455  19.657  0.00  0.00    +0.000 A 
ATOM     26  C   UNL     1       3.622  15.184  18.984  0.00  0.00    +0.000 A 
ATOM     27  C   UNL     1       4.834  15.498  19.616  0.00  0.00    +0.000 A 
ATOM     28  C   UNL     1       5.040  15.065  20.931  0.00  0.00    +0.000 A 
ATOM     29  C   UNL     1       4.057  14.322  21.595  0.00  0.00    +0.000 A 
BRANCH  27  30
ATOM     30  C   UNL     1       5.849  16.285  18.849  0.00  0.00    +0.000 C 
ATOM     31  O   UNL     1       5.749  17.506  18.769  0.00  0.00    +0.000 OA
BRANCH  30  32
ATOM     32  C   UNL     1       7.000  15.569  18.210  0.00  0.00    +0.000 C 
ATOM     33  C   UNL     1       8.341  16.239  18.022  0.00  0.00    +0.000 C 
ATOM     34  C   UNL     1       8.187  15.163  19.057  0.00  0.00    +0.000 C 
ENDBRANCH  30  32
ENDBRANCH  27  30
ENDBRANCH  23  24
ENDBRANCH  22  23
ENDBRANCH  21  22
ENDBRANCH  20  21
ENDBRANCH   6  20
TORSDOF 11
ENDMDL
MODEL 9
REMARK VINA RESULT:      -5.8      5.968      8.064
REMARK  Name = 
REMARK  15 active torsions:
REMARK  status: ('A' for Active; 'I' for Inactive)
REMARK    1  A    between atoms: C_1  and  C_2
REMARK    2  A    between atoms: C_2  and  N_3
REMARK    3  A    between atoms: C_2  and  C_11
REMARK    4  A    between atoms: C_4  and  O_6
REMARK    5  A    between atoms: O_6  and  C_7
REMARK    6  A    between atoms: C_7  and  C_8
REMARK    7  A    between atoms: C_7  and  C_9
REMARK    8  A    between atoms: C_7  and  C_10
REMARK    9  A    between atoms: N_16  and  C_17
REMARK   10  A    between atoms: C_17  and  C_18
REMARK   11  A    between atoms: C_18  and  C_19
REMARK   12  A    between atoms: C_19  and  O_20
REMARK   13  A    between atoms: O_20  and  C_21
REMARK   14  A    between atoms: C_24  and  C_25
REMARK   15  A    between atoms: C_25  and  C_27
REMARK                            x       y       z     vdW  Elec       q    Type
REMARK                         _______ _______ _______ _____ _____    ______ ____
ROOT
ATOM      1  C   UNL     1       9.288  14.134  20.151  0.00  0.00    +0.000 C 
ATOM      2  O   UNL     1       9.333  15.127  19.416  0.00  0.00    +0.000 OA
ATOM      3  N   UNL     1       9.068  12.850  19.654  0.00  0.00    +0.000 N 
ATOM      4  C   UNL     1       8.988  12.632  18.208  0.00  0.00    +0.000 C 
ATOM      5  C   UNL     1       9.780  11.368  17.807  0.00  0.00    +0.000 C 
ATOM      6  N   UNL     1       9.416  10.142  18.561  0.00  0.00    +0.000 NA
ATOM      7  C   UNL     1       9.525  10.429  20.008  0.00  0.00    +0.000 C 
ATOM      8  C   UNL     1       8.728  11.665  20.461  0.00  0.00    +0.000 C 
ENDROOT
BRANCH   1  10
ATOM      9  C   UNL     1      10.703  15.312  21.839  0.00  0.00    +0.000 C 
ATOM     10  C   UNL     1       9.618  14.252  21.646  0.00  0.00    +0.000 C 
BRANCH  10  11
ATOM     11  N   UNL     1       8.473  14.534  22.490  0.00  0.00    +0.000 N 
ATOM     12  C   UNL     1       8.213  13.710  23.548  0.00  0.00    +0.000 C 
ATOM     13  O   UNL     1       8.903  12.737  23.819  0.00  0.00    +0.000 OA
ATOM     14  H   UNL     1       7.881  15.335  22.309  0.00  0.00    +0.000 HD
BRANCH  12  15
ATOM     15  O   UNL     1       7.110  14.106  24.223  0.00  0.00    +0.000 OA
BRANCH  15  16
ATOM     16  C   UNL     1       7.290  14.927  25.411  0.00  0.00    +0.000 C 
ATOM     17  C   UNL     1       6.462  14.404  26.594  0.00  0.00    +0.000 C 
ATOM     18  C   UNL     1       8.778  14.805  25.776  0.00  0.00    +0.000 C 
ATOM     19  C   UNL     1       6.993  16.403  25.112  0.00  0.00    +0.000 C 
ENDBRANCH  15  16
ENDBRANCH  12  15
ENDBRANCH  10  11
ENDBRANCH   1  10
BRANCH   6  20
ATOM     20  C   UNL     1       8.077   9.622  18.229  0.00  0.00    +0.000 C 
BRANCH  20  21
ATOM     21  C   UNL     1       8.091   8.252  17.552  0.00  0.00    +0.000 C 
BRANCH  21  22
ATOM     22  C   UNL     1       8.103   7.121  18.570  0.00  0.00    +0.000 C 
BRANCH  22  23
ATOM     23  O   UNL     1       7.754   5.909  17.900  0.00  0.00    +0.000 OA
BRANCH  23  24
ATOM     24  C   UNL     1       6.461   5.499  18.067  0.00  0.00    +0.000 A 
ATOM     25  C   UNL     1       5.860   4.945  16.937  0.00  0.00    +0.000 A 
ATOM     26  C   UNL     1       4.540   4.488  16.991  0.00  0.00    +0.000 A 
ATOM     27  C   UNL     1       3.809   4.556  18.187  0.00  0.00    +0.000 A 
ATOM     28  C   UNL     1       4.424   5.095  19.323  0.00  0.00    +0.000 A 
ATOM     29  C   UNL     1       5.740   5.568  19.260  0.00  0.00    +0.000 A 
BRANCH  27  30
ATOM     30  C   UNL     1       2.403   4.045  18.187  0.00  0.00    +0.000 C 
ATOM     31  O   UNL     1       1.879   3.683  17.136  0.00  0.00    +0.000 OA
BRANCH  30  32
ATOM     32  C   UNL     1       1.659   3.951  19.484  0.00  0.00    +0.000 C 
ATOM     33  C   UNL     1       0.602   2.896  19.712  0.00  0.00    +0.000 C 
ATOM     34  C   UNL     1       1.925   2.786  20.412  0.00  0.00    +0.000 C 
ENDBRANCH  30  32
ENDBRANCH  27  30
ENDBRANCH  23  24
ENDBRANCH  22  23
ENDBRANCH  21  22
ENDBRANCH  20  21
ENDBRANCH   6  20
TORSDOF 11
ENDMDL
