MODEL 1
REMARK VINA RESULT:      -8.1      0.000      0.000
REMARK  Name = 
REMARK  4 active torsions:
REMARK  status: ('A' for Active; 'I' for Inactive)
REMARK    1  A    between atoms: C_2  and  C_3
REMARK    2  A    between atoms: C_3  and  N_4
REMARK    3  A    between atoms: N_11  and  C_12
REMARK    4  A    between atoms: C_16  and  N_17
REMARK                            x       y       z     vdW  Elec       q    Type
REMARK                         _______ _______ _______ _____ _____    ______ ____
ROOT
ATOM      1  O   UNL     1       6.577   4.705  17.695  0.00  0.00    +0.000 OA
ATOM      2  C   UNL     1       6.441   5.384  16.679  0.00  0.00    +0.000 C 
ATOM      3  N   UNL     1       5.344   6.183  16.372  0.00  0.00    +0.000 N 
ATOM      4  H   UNL     1       5.242   6.455  15.401  0.00  0.00    +0.000 HD
ENDROOT
BRANCH   3   5
ATOM      5  C   UNL     1       4.238   6.446  17.217  0.00  0.00    +0.000 A 
ATOM      6  C   UNL     1       3.683   7.718  17.361  0.00  0.00    +0.000 A 
ATOM      7  C   UNL     1       2.636   7.932  18.253  0.00  0.00    +0.000 A 
ATOM      8  C   UNL     1       2.141   6.879  19.020  0.00  0.00    +0.000 A 
ATOM      9  C   UNL     1       2.657   5.586  18.889  0.00  0.00    +0.000 A 
ATOM     10  C   UNL     1       3.686   5.377  17.948  0.00  0.00    +0.000 A 
BRANCH   9  11
ATOM     11  N   UNL     1       2.166   4.522  19.697  0.00  0.00    +0.000 N 
ATOM     12  C   UNL     1       2.251   4.520  21.136  0.00  0.00    +0.000 C 
ATOM     13  C   UNL     1       1.919   3.092  21.523  0.00  0.00    +0.000 C 
ATOM     14  C   UNL     1       0.949   2.650  20.446  0.00  0.00    +0.000 C 
ATOM     15  C   UNL     1       1.386   3.447  19.241  0.00  0.00    +0.000 C 
ATOM     16  O   UNL     1       1.013   3.185  18.106  0.00  0.00    +0.000 OA
ENDBRANCH   9  11
ENDBRANCH   3   5
BRANCH   2  17
ATOM     17  C   UNL     1       7.538   5.409  15.607  0.00  0.00    +0.000 C 
BRANCH  17  18
ATOM     18  N   UNL     1       7.096   4.813  14.350  0.00  0.00    +0.000 N 
ATOM     19  C   UNL     1       6.004   3.964  14.331  0.00  0.00    +0.000 A 
ATOM     20  C   UNL     1       5.593   3.383  13.196  0.00  0.00    +0.000 A 
ATOM     21  C   UNL     1       6.295   3.641  11.966  0.00  0.00    +0.000 A 
ATOM     22  C   UNL     1       7.335   4.482  11.940  0.00  0.00    +0.000 A 
ATOM     23  C   UNL     1       7.790   5.153  13.192  0.00  0.00    +0.000 A 
ATOM     24  O   UNL     1       8.737   5.933  13.161  0.00  0.00    +0.000 OA
ENDBRANCH  17  18
ENDBRANCH   2  17
TORSDOF 4
ENDMDL
MODEL 2
REMARK VINA RESULT:      -7.9      3.820      6.064
REMARK  Name = 
REMARK  4 active torsions:
REMARK  status: ('A' for Active; 'I' for Inactive)
REMARK    1  A    between atoms: C_2  and  C_3
REMARK    2  A    between atoms: C_3  and  N_4
REMARK    3  A    between atoms: N_11  and  C_12
REMARK    4  A    between atoms: C_16  and  N_17
REMARK                            x       y       z     vdW  Elec       q    Type
REMARK                         _______ _______ _______ _____ _____    ______ ____
ROOT
ATOM      1  O   UNL     1       2.050   4.896  18.608  0.00  0.00    +0.000 OA
ATOM      2  C   UNL     1       2.908   5.653  18.158  0.00  0.00    +0.000 C 
ATOM      3  N   UNL     1       2.982   7.025  18.374  0.00  0.00    +0.000 N 
ATOM      4  H   UNL     1       3.559   7.553  17.729  0.00  0.00    +0.000 HD
ENDROOT
BRANCH   3   5
ATOM      5  C   UNL     1       2.151   7.781  19.238  0.00  0.00    +0.000 A 
ATOM      6  C   UNL     1       1.891   7.406  20.555  0.00  0.00    +0.000 A 
ATOM      7  C   UNL     1       1.017   8.153  21.340  0.00  0.00    +0.000 A 
ATOM      8  C   UNL     1       0.386   9.278  20.812  0.00  0.00    +0.000 A 
ATOM      9  C   UNL     1       0.638   9.699  19.503  0.00  0.00    +0.000 A 
ATOM     10  C   UNL     1       1.560   8.957  18.736  0.00  0.00    +0.000 A 
BRANCH   9  11
ATOM     11  N   UNL     1      -0.033  10.830  18.961  0.00  0.00    +0.000 N 
ATOM     12  C   UNL     1      -1.455  10.869  18.729  0.00  0.00    +0.000 C 
ATOM     13  C   UNL     1      -1.655  12.099  17.865  0.00  0.00    +0.000 C 
ATOM     14  C   UNL     1      -0.558  13.037  18.325  0.00  0.00    +0.000 C 
ATOM     15  C   UNL     1       0.541  12.096  18.756  0.00  0.00    +0.000 C 
ATOM     16  O   UNL     1       1.689  12.469  18.953  0.00  0.00    +0.000 OA
ENDBRANCH   9  11
ENDBRANCH   3   5
BRANCH   2  17
ATOM     17  C   UNL     1       4.037   5.110  17.271  0.00  0.00    +0.000 C 
BRANCH  17  18
ATOM     18  N   UNL     1       5.352   5.575  17.703  0.00  0.00    +0.000 N 
ATOM     19  C   UNL     1       5.895   5.114  18.888  0.00  0.00    +0.000 A 
ATOM     20  C   UNL     1       7.088   5.543  19.320  0.00  0.00    +0.000 A 
ATOM     21  C   UNL     1       7.827   6.503  18.543  0.00  0.00    +0.000 A 
ATOM     22  C   UNL     1       7.348   6.946  17.376  0.00  0.00    +0.000 A 
ATOM     23  C   UNL     1       6.031   6.461  16.871  0.00  0.00    +0.000 A 
ATOM     24  O   UNL     1       5.601   6.861  15.793  0.00  0.00    +0.000 OA
ENDBRANCH  17  18
ENDBRANCH   2  17
TORSDOF 4
ENDMDL
MODEL 3
REMARK VINA RESULT:      -7.9      3.593      5.871
REMARK  Name = 
REMARK  4 active torsions:
REMARK  status: ('A' for Active; 'I' for Inactive)
REMARK    1  A    between atoms: C_2  and  C_3
REMARK    2  A    between atoms: C_3  and  N_4
REMARK    3  A    between atoms: N_11  and  C_12
REMARK    4  A    between atoms: C_16  and  N_17
REMARK                            x       y       z     vdW  Elec       q    Type
REMARK                         _______ _______ _______ _____ _____    ______ ____
ROOT
ATOM      1  O   UNL     1       1.856   5.029  18.173  0.00  0.00    +0.000 OA
ATOM      2  C   UNL     1       2.853   5.710  17.940  0.00  0.00    +0.000 C 
ATOM      3  N   UNL     1       3.060   7.022  18.353  0.00  0.00    +0.000 N 
ATOM      4  H   UNL     1       3.780   7.541  17.864  0.00  0.00    +0.000 HD
ENDROOT
BRANCH   3   5
ATOM      5  C   UNL     1       2.216   7.773  19.207  0.00  0.00    +0.000 A 
ATOM      6  C   UNL     1       1.955   7.405  20.527  0.00  0.00    +0.000 A 
ATOM      7  C   UNL     1       1.067   8.147  21.302  0.00  0.00    +0.000 A 
ATOM      8  C   UNL     1       0.422   9.258  20.762  0.00  0.00    +0.000 A 
ATOM      9  C   UNL     1       0.675   9.671  19.450  0.00  0.00    +0.000 A 
ATOM     10  C   UNL     1       1.610   8.936  18.694  0.00  0.00    +0.000 A 
BRANCH   9  11
ATOM     11  N   UNL     1      -0.010  10.788  18.896  0.00  0.00    +0.000 N 
ATOM     12  C   UNL     1       0.583  12.097  18.772  0.00  0.00    +0.000 C 
ATOM     13  C   UNL     1      -0.588  13.005  18.451  0.00  0.00    +0.000 C 
ATOM     14  C   UNL     1      -1.526  12.109  17.666  0.00  0.00    +0.000 C 
ATOM     15  C   UNL     1      -1.250  10.738  18.237  0.00  0.00    +0.000 C 
ATOM     16  O   UNL     1      -1.988   9.783  18.043  0.00  0.00    +0.000 OA
ENDBRANCH   9  11
ENDBRANCH   3   5
BRANCH   2  17
ATOM     17  C   UNL     1       4.020   5.130  17.129  0.00  0.00    +0.000 C 
BRANCH  17  18
ATOM     18  N   UNL     1       5.316   5.585  17.623  0.00  0.00    +0.000 N 
ATOM     19  C   UNL     1       5.798   5.121  18.834  0.00  0.00    +0.000 A 
ATOM     20  C   UNL     1       6.972   5.541  19.323  0.00  0.00    +0.000 A 
ATOM     21  C   UNL     1       7.756   6.494  18.581  0.00  0.00    +0.000 A 
ATOM     22  C   UNL     1       7.338   6.939  17.391  0.00  0.00    +0.000 A 
ATOM     23  C   UNL     1       6.042   6.463  16.824  0.00  0.00    +0.000 A 
ATOM     24  O   UNL     1       5.669   6.865  15.726  0.00  0.00    +0.000 OA
ENDBRANCH  17  18
ENDBRANCH   2  17
TORSDOF 4
ENDMDL
MODEL 4
REMARK VINA RESULT:      -7.8      3.812      6.219
REMARK  Name = 
REMARK  4 active torsions:
REMARK  status: ('A' for Active; 'I' for Inactive)
REMARK    1  A    between atoms: C_2  and  C_3
REMARK    2  A    between atoms: C_3  and  N_4
REMARK    3  A    between atoms: N_11  and  C_12
REMARK    4  A    between atoms: C_16  and  N_17
REMARK                            x       y       z     vdW  Elec       q    Type
REMARK                         _______ _______ _______ _____ _____    ______ ____
ROOT
ATOM      1  O   UNL     1       2.360   4.910  18.617  0.00  0.00    +0.000 OA
ATOM      2  C   UNL     1       3.145   5.727  18.141  0.00  0.00    +0.000 C 
ATOM      3  N   UNL     1       3.100   7.105  18.328  0.00  0.00    +0.000 N 
ATOM      4  H   UNL     1       3.623   7.668  17.666  0.00  0.00    +0.000 HD
ENDROOT
BRANCH   3   5
ATOM      5  C   UNL     1       2.216   7.805  19.185  0.00  0.00    +0.000 A 
ATOM      6  C   UNL     1       1.922   7.378  20.480  0.00  0.00    +0.000 A 
ATOM      7  C   UNL     1       0.997   8.070  21.256  0.00  0.00    +0.000 A 
ATOM      8  C   UNL     1       0.347   9.191  20.743  0.00  0.00    +0.000 A 
ATOM      9  C   UNL     1       0.632   9.663  19.457  0.00  0.00    +0.000 A 
ATOM     10  C   UNL     1       1.604   8.977  18.701  0.00  0.00    +0.000 A 
BRANCH   9  11
ATOM     11  N   UNL     1      -0.057  10.790  18.928  0.00  0.00    +0.000 N 
ATOM     12  C   UNL     1      -1.470  10.789  18.641  0.00  0.00    +0.000 C 
ATOM     13  C   UNL     1      -1.680  12.042  17.813  0.00  0.00    +0.000 C 
ATOM     14  C   UNL     1      -0.635  13.000  18.349  0.00  0.00    +0.000 C 
ATOM     15  C   UNL     1       0.479  12.081  18.791  0.00  0.00    +0.000 C 
ATOM     16  O   UNL     1       1.605  12.485  19.046  0.00  0.00    +0.000 OA
ENDBRANCH   9  11
ENDBRANCH   3   5
BRANCH   2  17
ATOM     17  C   UNL     1       4.308   5.266  17.253  0.00  0.00    +0.000 C 
BRANCH  17  18
ATOM     18  N   UNL     1       5.592   5.796  17.703  0.00  0.00    +0.000 N 
ATOM     19  C   UNL     1       6.124   6.924  17.106  0.00  0.00    +0.000 A 
ATOM     20  C   UNL     1       7.311   7.416  17.482  0.00  0.00    +0.000 A 
ATOM     21  C   UNL     1       8.056   6.766  18.528  0.00  0.00    +0.000 A 
ATOM     22  C   UNL     1       7.558   5.692  19.151  0.00  0.00    +0.000 A 
ATOM     23  C   UNL     1       6.227   5.146  18.758  0.00  0.00    +0.000 A 
ATOM     24  O   UNL     1       5.768   4.168  19.341  0.00  0.00    +0.000 OA
ENDBRANCH  17  18
ENDBRANCH   2  17
TORSDOF 4
ENDMDL
MODEL 5
REMARK VINA RESULT:      -7.7      3.373      5.044
REMARK  Name = 
REMARK  4 active torsions:
REMARK  status: ('A' for Active; 'I' for Inactive)
REMARK    1  A    between atoms: C_2  and  C_3
REMARK    2  A    between atoms: C_3  and  N_4
REMARK    3  A    between atoms: N_11  and  C_12
REMARK    4  A    between atoms: C_16  and  N_17
REMARK                            x       y       z     vdW  Elec       q    Type
REMARK                         _______ _______ _______ _____ _____    ______ ____
ROOT
ATOM      1  O   UNL     1       1.670   4.970  17.852  0.00  0.00    +0.000 OA
ATOM      2  C   UNL     1       2.774   5.218  18.332  0.00  0.00    +0.000 C 
ATOM      3  N   UNL     1       3.232   6.473  18.721  0.00  0.00    +0.000 N 
ATOM      4  H   UNL     1       4.234   6.573  18.831  0.00  0.00    +0.000 HD
ENDROOT
BRANCH   3   5
ATOM      5  C   UNL     1       2.475   7.670  18.740  0.00  0.00    +0.000 A 
ATOM      6  C   UNL     1       2.412   8.541  17.653  0.00  0.00    +0.000 A 
ATOM      7  C   UNL     1       1.702   9.736  17.749  0.00  0.00    +0.000 A 
ATOM      8  C   UNL     1       1.058  10.077  18.937  0.00  0.00    +0.000 A 
ATOM      9  C   UNL     1       1.080   9.219  20.041  0.00  0.00    +0.000 A 
ATOM     10  C   UNL     1       1.765   7.993  19.912  0.00  0.00    +0.000 A 
BRANCH   9  11
ATOM     11  N   UNL     1       0.445   9.587  21.260  0.00  0.00    +0.000 N 
ATOM     12  C   UNL     1      -0.943   9.965  21.345  0.00  0.00    +0.000 C 
ATOM     13  C   UNL     1      -1.077  10.572  22.728  0.00  0.00    +0.000 C 
ATOM     14  C   UNL     1      -0.061   9.806  23.550  0.00  0.00    +0.000 C 
ATOM     15  C   UNL     1       1.007   9.457  22.541  0.00  0.00    +0.000 C 
ATOM     16  O   UNL     1       2.117   9.059  22.866  0.00  0.00    +0.000 OA
ENDBRANCH   9  11
ENDBRANCH   3   5
BRANCH   2  17
ATOM     17  C   UNL     1       3.796   4.096  18.556  0.00  0.00    +0.000 C 
BRANCH  17  18
ATOM     18  N   UNL     1       4.954   4.218  17.676  0.00  0.00    +0.000 N 
ATOM     19  C   UNL     1       4.815   4.014  16.315  0.00  0.00    +0.000 A 
ATOM     20  C   UNL     1       5.866   4.095  15.488  0.00  0.00    +0.000 A 
ATOM     21  C   UNL     1       7.170   4.399  16.016  0.00  0.00    +0.000 A 
ATOM     22  C   UNL     1       7.337   4.635  17.322  0.00  0.00    +0.000 A 
ATOM     23  C   UNL     1       6.172   4.570  18.252  0.00  0.00    +0.000 A 
ATOM     24  O   UNL     1       6.327   4.799  19.448  0.00  0.00    +0.000 OA
ENDBRANCH  17  18
ENDBRANCH   2  17
TORSDOF 4
ENDMDL
MODEL 6
REMARK VINA RESULT:      -7.6      0.940      1.258
REMARK  Name = 
REMARK  4 active torsions:
REMARK  status: ('A' for Active; 'I' for Inactive)
REMARK    1  A    between atoms: C_2  and  C_3
REMARK    2  A    between atoms: C_3  and  N_4
REMARK    3  A    between atoms: N_11  and  C_12
REMARK    4  A    between atoms: C_16  and  N_17
REMARK                            x       y       z     vdW  Elec       q    Type
REMARK                         _______ _______ _______ _____ _____    ______ ____
ROOT
ATOM      1  O   UNL     1       6.194   4.232  17.313  0.00  0.00    +0.000 OA
ATOM      2  C   UNL     1       6.256   5.143  16.490  0.00  0.00    +0.000 C 
ATOM      3  N   UNL     1       5.320   6.159  16.326  0.00  0.00    +0.000 N 
ATOM      4  H   UNL     1       5.353   6.665  15.447  0.00  0.00    +0.000 HD
ENDROOT
BRANCH   3   5
ATOM      5  C   UNL     1       4.187   6.394  17.143  0.00  0.00    +0.000 A 
ATOM      6  C   UNL     1       3.711   7.674  17.425  0.00  0.00    +0.000 A 
ATOM      7  C   UNL     1       2.630   7.848  18.285  0.00  0.00    +0.000 A 
ATOM      8  C   UNL     1       2.021   6.746  18.881  0.00  0.00    +0.000 A 
ATOM      9  C   UNL     1       2.456   5.445  18.606  0.00  0.00    +0.000 A 
ATOM     10  C   UNL     1       3.522   5.283  17.698  0.00  0.00    +0.000 A 
BRANCH   9  11
ATOM     11  N   UNL     1       1.850   4.326  19.242  0.00  0.00    +0.000 N 
ATOM     12  C   UNL     1       1.280   3.218  18.516  0.00  0.00    +0.000 C 
ATOM     13  C   UNL     1       0.485   2.461  19.562  0.00  0.00    +0.000 C 
ATOM     14  C   UNL     1       1.267   2.695  20.839  0.00  0.00    +0.000 C 
ATOM     15  C   UNL     1       1.885   4.055  20.620  0.00  0.00    +0.000 C 
ATOM     16  O   UNL     1       2.384   4.707  21.526  0.00  0.00    +0.000 OA
ENDBRANCH   9  11
ENDBRANCH   3   5
BRANCH   2  17
ATOM     17  C   UNL     1       7.444   5.241  15.525  0.00  0.00    +0.000 C 
BRANCH  17  18
ATOM     18  N   UNL     1       7.117   4.740  14.193  0.00  0.00    +0.000 N 
ATOM     19  C   UNL     1       6.061   3.862  14.022  0.00  0.00    +0.000 A 
ATOM     20  C   UNL     1       5.756   3.368  12.816  0.00  0.00    +0.000 A 
ATOM     21  C   UNL     1       6.535   3.750  11.668  0.00  0.00    +0.000 A 
ATOM     22  C   UNL     1       7.542   4.622  11.789  0.00  0.00    +0.000 A 
ATOM     23  C   UNL     1       7.880   5.198  13.123  0.00  0.00    +0.000 A 
ATOM     24  O   UNL     1       8.798   6.007  13.227  0.00  0.00    +0.000 OA
ENDBRANCH  17  18
ENDBRANCH   2  17
TORSDOF 4
ENDMDL
MODEL 7
REMARK VINA RESULT:      -7.6      1.986      3.249
REMARK  Name = 
REMARK  4 active torsions:
REMARK  status: ('A' for Active; 'I' for Inactive)
REMARK    1  A    between atoms: C_2  and  C_3
REMARK    2  A    between atoms: C_3  and  N_4
REMARK    3  A    between atoms: N_11  and  C_12
REMARK    4  A    between atoms: C_16  and  N_17
REMARK                            x       y       z     vdW  Elec       q    Type
REMARK                         _______ _______ _______ _____ _____    ______ ____
ROOT
ATOM      1  O   UNL     1       4.989   6.517  15.931  0.00  0.00    +0.000 OA
ATOM      2  C   UNL     1       5.755   5.703  16.444  0.00  0.00    +0.000 C 
ATOM      3  N   UNL     1       5.562   5.056  17.660  0.00  0.00    +0.000 N 
ATOM      4  H   UNL     1       6.383   4.639  18.084  0.00  0.00    +0.000 HD
ENDROOT
BRANCH   3   5
ATOM      5  C   UNL     1       4.404   5.129  18.472  0.00  0.00    +0.000 A 
ATOM      6  C   UNL     1       3.832   4.009  19.076  0.00  0.00    +0.000 A 
ATOM      7  C   UNL     1       2.657   4.131  19.813  0.00  0.00    +0.000 A 
ATOM      8  C   UNL     1       2.036   5.371  19.946  0.00  0.00    +0.000 A 
ATOM      9  C   UNL     1       2.592   6.521  19.375  0.00  0.00    +0.000 A 
ATOM     10  C   UNL     1       3.805   6.388  18.669  0.00  0.00    +0.000 A 
BRANCH   9  11
ATOM     11  N   UNL     1       1.936   7.778  19.489  0.00  0.00    +0.000 N 
ATOM     12  C   UNL     1       1.445   8.302  20.739  0.00  0.00    +0.000 C 
ATOM     13  C   UNL     1       0.561   9.465  20.331  0.00  0.00    +0.000 C 
ATOM     14  C   UNL     1       1.218   9.982  19.067  0.00  0.00    +0.000 C 
ATOM     15  C   UNL     1       1.844   8.744  18.473  0.00  0.00    +0.000 C 
ATOM     16  O   UNL     1       2.250   8.698  17.320  0.00  0.00    +0.000 OA
ENDBRANCH   9  11
ENDBRANCH   3   5
BRANCH   2  17
ATOM     17  C   UNL     1       7.061   5.311  15.740  0.00  0.00    +0.000 C 
BRANCH  17  18
ATOM     18  N   UNL     1       6.827   4.755  14.410  0.00  0.00    +0.000 N 
ATOM     19  C   UNL     1       5.755   3.910  14.191  0.00  0.00    +0.000 A 
ATOM     20  C   UNL     1       5.532   3.366  12.988  0.00  0.00    +0.000 A 
ATOM     21  C   UNL     1       6.420   3.661  11.894  0.00  0.00    +0.000 A 
ATOM     22  C   UNL     1       7.448   4.500  12.060  0.00  0.00    +0.000 A 
ATOM     23  C   UNL     1       7.696   5.130  13.389  0.00  0.00    +0.000 A 
ATOM     24  O   UNL     1       8.633   5.909  13.534  0.00  0.00    +0.000 OA
ENDBRANCH  17  18
ENDBRANCH   2  17
TORSDOF 4
ENDMDL
MODEL 8
REMARK VINA RESULT:      -7.6      3.646      6.098
REMARK  Name = 
REMARK  4 active torsions:
REMARK  status: ('A' for Active; 'I' for Inactive)
REMARK    1  A    between atoms: C_2  and  C_3
REMARK    2  A    between atoms: C_3  and  N_4
REMARK    3  A    between atoms: N_11  and  C_12
REMARK    4  A    between atoms: C_16  and  N_17
REMARK                            x       y       z     vdW  Elec       q    Type
REMARK                         _______ _______ _______ _____ _____    ______ ____
ROOT
ATOM      1  O   UNL     1       2.530   4.880  19.162  0.00  0.00    +0.000 OA
ATOM      2  C   UNL     1       3.154   5.679  18.467  0.00  0.00    +0.000 C 
ATOM      3  N   UNL     1       2.970   7.058  18.444  0.00  0.00    +0.000 N 
ATOM      4  H   UNL     1       3.344   7.550  17.641  0.00  0.00    +0.000 HD
ENDROOT
BRANCH   3   5
ATOM      5  C   UNL     1       2.114   7.802  19.293  0.00  0.00    +0.000 A 
ATOM      6  C   UNL     1       1.836   7.423  20.606  0.00  0.00    +0.000 A 
ATOM      7  C   UNL     1       0.938   8.158  21.376  0.00  0.00    +0.000 A 
ATOM      8  C   UNL     1       0.300   9.273  20.837  0.00  0.00    +0.000 A 
ATOM      9  C   UNL     1       0.569   9.698  19.532  0.00  0.00    +0.000 A 
ATOM     10  C   UNL     1       1.515   8.969  18.782  0.00  0.00    +0.000 A 
BRANCH   9  11
ATOM     11  N   UNL     1      -0.108  10.819  18.978  0.00  0.00    +0.000 N 
ATOM     12  C   UNL     1       0.507  12.113  18.816  0.00  0.00    +0.000 C 
ATOM     13  C   UNL     1      -0.655  13.039  18.512  0.00  0.00    +0.000 C 
ATOM     14  C   UNL     1      -1.632  12.150  17.770  0.00  0.00    +0.000 C 
ATOM     15  C   UNL     1      -1.368  10.784  18.356  0.00  0.00    +0.000 C 
ATOM     16  O   UNL     1      -2.129   9.840  18.199  0.00  0.00    +0.000 OA
ENDBRANCH   9  11
ENDBRANCH   3   5
BRANCH   2  17
ATOM     17  C   UNL     1       4.253   5.191  17.514  0.00  0.00    +0.000 C 
BRANCH  17  18
ATOM     18  N   UNL     1       5.554   5.776  17.825  0.00  0.00    +0.000 N 
ATOM     19  C   UNL     1       5.995   6.892  17.138  0.00  0.00    +0.000 A 
ATOM     20  C   UNL     1       7.195   7.433  17.385  0.00  0.00    +0.000 A 
ATOM     21  C   UNL     1       8.050   6.849  18.384  0.00  0.00    +0.000 A 
ATOM     22  C   UNL     1       7.644   5.789  19.092  0.00  0.00    +0.000 A 
ATOM     23  C   UNL     1       6.301   5.189  18.843  0.00  0.00    +0.000 A 
ATOM     24  O   UNL     1       5.928   4.224  19.503  0.00  0.00    +0.000 OA
ENDBRANCH  17  18
ENDBRANCH   2  17
TORSDOF 4
ENDMDL
MODEL 9
REMARK VINA RESULT:      -7.6      4.373      7.749
REMARK  Name = 
REMARK  4 active torsions:
REMARK  status: ('A' for Active; 'I' for Inactive)
REMARK    1  A    between atoms: C_2  and  C_3
REMARK    2  A    between atoms: C_3  and  N_4
REMARK    3  A    between atoms: N_11  and  C_12
REMARK    4  A    between atoms: C_16  and  N_17
REMARK                            x       y       z     vdW  Elec       q    Type
REMARK                         _______ _______ _______ _____ _____    ______ ____
ROOT
ATOM      1  O   UNL     1       0.689   9.267  20.003  0.00  0.00    +0.000 OA
ATOM      2  C   UNL     1       0.960   9.846  18.953  0.00  0.00    +0.000 C 
ATOM      3  N   UNL     1       1.882   9.420  18.002  0.00  0.00    +0.000 N 
ATOM      4  H   UNL     1       2.204  10.118  17.341  0.00  0.00    +0.000 HD
ENDROOT
BRANCH   3   5
ATOM      5  C   UNL     1       2.590   8.193  18.014  0.00  0.00    +0.000 A 
ATOM      6  C   UNL     1       3.752   7.984  17.271  0.00  0.00    +0.000 A 
ATOM      7  C   UNL     1       4.373   6.738  17.272  0.00  0.00    +0.000 A 
ATOM      8  C   UNL     1       3.833   5.684  18.007  0.00  0.00    +0.000 A 
ATOM      9  C   UNL     1       2.682   5.861  18.782  0.00  0.00    +0.000 A 
ATOM     10  C   UNL     1       2.091   7.141  18.806  0.00  0.00    +0.000 A 
BRANCH   9  11
ATOM     11  N   UNL     1       2.120   4.773  19.505  0.00  0.00    +0.000 N 
ATOM     12  C   UNL     1       2.079   4.719  20.946  0.00  0.00    +0.000 C 
ATOM     13  C   UNL     1       1.708   3.280  21.251  0.00  0.00    +0.000 C 
ATOM     14  C   UNL     1       0.834   2.883  20.079  0.00  0.00    +0.000 C 
ATOM     15  C   UNL     1       1.378   3.719  18.945  0.00  0.00    +0.000 C 
ATOM     16  O   UNL     1       1.104   3.500  17.774  0.00  0.00    +0.000 OA
ENDBRANCH   9  11
ENDBRANCH   3   5
BRANCH   2  17
ATOM     17  C   UNL     1       0.261  11.160  18.584  0.00  0.00    +0.000 C 
BRANCH  17  18
ATOM     18  N   UNL     1      -1.154  10.967  18.280  0.00  0.00    +0.000 N 
ATOM     19  C   UNL     1      -1.542  10.004  17.366  0.00  0.00    +0.000 A 
ATOM     20  C   UNL     1      -2.830   9.823  17.049  0.00  0.00    +0.000 A 
ATOM     21  C   UNL     1      -3.840  10.642  17.667  0.00  0.00    +0.000 A 
ATOM     22  C   UNL     1      -3.506  11.561  18.580  0.00  0.00    +0.000 A 
ATOM     23  C   UNL     1      -2.077  11.758  18.959  0.00  0.00    +0.000 A 
ATOM     24  O   UNL     1      -1.776  12.593  19.807  0.00  0.00    +0.000 OA
ENDBRANCH  17  18
ENDBRANCH   2  17
TORSDOF 4
ENDMDL
