MODEL 1
REMARK VINA RESULT:      -7.6      0.000      0.000
REMARK  Name = 
REMARK  2 active torsions:
REMARK  status: ('A' for Active; 'I' for Inactive)
REMARK    1  A    between atoms: C_1  and  N_2
REMARK    2  A    between atoms: C_7  and  C_9
REMARK                            x       y       z     vdW  Elec       q    Type
REMARK                         _______ _______ _______ _____ _____    ______ ____
ROOT
ATOM      1  C   UNL     1       2.468   3.589  21.606  0.00  0.00    +0.000 C 
ATOM      2  N   UNL     1       1.654   4.056  20.495  0.00  0.00    +0.000 N 
ATOM      3  C   UNL     1       0.766   3.146  19.788  0.00  0.00    +0.000 C 
ATOM      4  C   UNL     1       1.421   2.440  18.609  0.00  0.00    +0.000 C 
ATOM      5  C   UNL     1       1.816   3.412  17.508  0.00  0.00    +0.000 C 
ATOM      6  N   UNL     1       2.920   4.283  17.896  0.00  0.00    +0.000 N 
ATOM      7  C   UNL     1       4.234   3.956  17.523  0.00  0.00    +0.000 C 
ATOM      8  O   UNL     1       4.461   3.002  16.776  0.00  0.00    +0.000 OA
ATOM      9  C   UNL     1       2.552   5.428  18.645  0.00  0.00    +0.000 A 
ATOM     10  C   UNL     1       2.767   6.697  18.092  0.00  0.00    +0.000 A 
ATOM     11  C   UNL     1       2.404   7.824  18.813  0.00  0.00    +0.000 A 
ATOM     12  F   UNL     1       2.567   9.037  18.266  0.00  0.00    +0.000 F 
ATOM     13  C   UNL     1       1.860   7.712  20.083  0.00  0.00    +0.000 A 
ATOM     14  C   UNL     1       1.652   6.452  20.640  0.00  0.00    +0.000 A 
ATOM     15  C   UNL     1       1.955   5.286  19.923  0.00  0.00    +0.000 A 
ENDROOT
BRANCH   7  16
ATOM     16  C   UNL     1       5.375   4.759  18.009  0.00  0.00    +0.000 A 
ATOM     17  C   UNL     1       5.825   4.747  19.374  0.00  0.00    +0.000 A 
ATOM     18  N   UNL     1       6.889   5.500  19.657  0.00  0.00    +0.000 NA
ATOM     19  S   UNL     1       7.268   6.247  18.210  0.00  0.00    +0.000 S 
ATOM     20  N   UNL     1       6.062   5.622  17.237  0.00  0.00    +0.000 NA
ENDBRANCH   7  16
TORSDOF 1
ENDMDL
MODEL 2
REMARK VINA RESULT:      -7.6      1.014      1.228
REMARK  Name = 
REMARK  2 active torsions:
REMARK  status: ('A' for Active; 'I' for Inactive)
REMARK    1  A    between atoms: C_1  and  N_2
REMARK    2  A    between atoms: C_7  and  C_9
REMARK                            x       y       z     vdW  Elec       q    Type
REMARK                         _______ _______ _______ _____ _____    ______ ____
ROOT
ATOM      1  C   UNL     1       3.120   2.816  21.001  0.00  0.00    +0.000 C 
ATOM      2  N   UNL     1       2.277   3.349  19.942  0.00  0.00    +0.000 N 
ATOM      3  C   UNL     1       1.527   2.460  19.069  0.00  0.00    +0.000 C 
ATOM      4  C   UNL     1       2.290   2.032  17.824  0.00  0.00    +0.000 C 
ATOM      5  C   UNL     1       2.584   3.205  16.901  0.00  0.00    +0.000 C 
ATOM      6  N   UNL     1       3.561   4.131  17.462  0.00  0.00    +0.000 N 
ATOM      7  C   UNL     1       4.913   4.028  17.098  0.00  0.00    +0.000 C 
ATOM      8  O   UNL     1       5.274   3.237  16.223  0.00  0.00    +0.000 OA
ATOM      9  C   UNL     1       3.036   5.092  18.361  0.00  0.00    +0.000 A 
ATOM     10  C   UNL     1       3.101   6.448  18.017  0.00  0.00    +0.000 A 
ATOM     11  C   UNL     1       2.583   7.397  18.886  0.00  0.00    +0.000 A 
ATOM     12  F   UNL     1       2.604   8.691  18.538  0.00  0.00    +0.000 F 
ATOM     13  C   UNL     1       2.030   7.023  20.100  0.00  0.00    +0.000 A 
ATOM     14  C   UNL     1       1.971   5.675  20.450  0.00  0.00    +0.000 A 
ATOM     15  C   UNL     1       2.434   4.681  19.577  0.00  0.00    +0.000 A 
ENDROOT
BRANCH   7  16
ATOM     16  C   UNL     1       5.934   4.877  17.747  0.00  0.00    +0.000 A 
ATOM     17  C   UNL     1       6.547   6.005  17.102  0.00  0.00    +0.000 A 
ATOM     18  N   UNL     1       7.429   6.697  17.826  0.00  0.00    +0.000 NA
ATOM     19  S   UNL     1       7.505   5.881  19.283  0.00  0.00    +0.000 S 
ATOM     20  N   UNL     1       6.428   4.640  18.976  0.00  0.00    +0.000 NA
ENDBRANCH   7  16
TORSDOF 1
ENDMDL
MODEL 3
REMARK VINA RESULT:      -7.3      1.119      1.191
REMARK  Name = 
REMARK  2 active torsions:
REMARK  status: ('A' for Active; 'I' for Inactive)
REMARK    1  A    between atoms: C_1  and  N_2
REMARK    2  A    between atoms: C_7  and  C_9
REMARK                            x       y       z     vdW  Elec       q    Type
REMARK                         _______ _______ _______ _____ _____    ______ ____
ROOT
ATOM      1  C   UNL     1       3.841   2.850  20.748  0.00  0.00    +0.000 C 
ATOM      2  N   UNL     1       2.819   3.297  19.815  0.00  0.00    +0.000 N 
ATOM      3  C   UNL     1       2.087   2.342  18.998  0.00  0.00    +0.000 C 
ATOM      4  C   UNL     1       2.745   2.050  17.657  0.00  0.00    +0.000 C 
ATOM      5  C   UNL     1       2.779   3.275  16.756  0.00  0.00    +0.000 C 
ATOM      6  N   UNL     1       3.692   4.304  17.240  0.00  0.00    +0.000 N 
ATOM      7  C   UNL     1       4.994   4.386  16.720  0.00  0.00    +0.000 C 
ATOM      8  O   UNL     1       5.345   3.672  15.778  0.00  0.00    +0.000 OA
ATOM      9  C   UNL     1       3.161   5.166  18.231  0.00  0.00    +0.000 A 
ATOM     10  C   UNL     1       3.015   6.527  17.939  0.00  0.00    +0.000 A 
ATOM     11  C   UNL     1       2.489   7.377  18.899  0.00  0.00    +0.000 A 
ATOM     12  F   UNL     1       2.306   8.672  18.605  0.00  0.00    +0.000 F 
ATOM     13  C   UNL     1       2.135   6.903  20.153  0.00  0.00    +0.000 A 
ATOM     14  C   UNL     1       2.286   5.551  20.451  0.00  0.00    +0.000 A 
ATOM     15  C   UNL     1       2.763   4.647  19.491  0.00  0.00    +0.000 A 
ENDROOT
BRANCH   7  16
ATOM     16  C   UNL     1       5.969   5.343  17.282  0.00  0.00    +0.000 A 
ATOM     17  C   UNL     1       6.615   5.155  18.552  0.00  0.00    +0.000 A 
ATOM     18  N   UNL     1       7.497   6.088  18.914  0.00  0.00    +0.000 NA
ATOM     19  S   UNL     1       7.456   7.207  17.672  0.00  0.00    +0.000 S 
ATOM     20  N   UNL     1       6.300   6.506  16.691  0.00  0.00    +0.000 NA
ENDBRANCH   7  16
TORSDOF 1
ENDMDL
MODEL 4
REMARK VINA RESULT:      -7.3      2.460      4.631
REMARK  Name = 
REMARK  2 active torsions:
REMARK  status: ('A' for Active; 'I' for Inactive)
REMARK    1  A    between atoms: C_1  and  N_2
REMARK    2  A    between atoms: C_7  and  C_9
REMARK                            x       y       z     vdW  Elec       q    Type
REMARK                         _______ _______ _______ _____ _____    ______ ____
ROOT
ATOM      1  C   UNL     1       5.186   5.124  15.401  0.00  0.00    +0.000 C 
ATOM      2  N   UNL     1       5.527   5.912  16.575  0.00  0.00    +0.000 N 
ATOM      3  C   UNL     1       6.897   5.968  17.062  0.00  0.00    +0.000 C 
ATOM      4  C   UNL     1       7.234   4.883  18.074  0.00  0.00    +0.000 C 
ATOM      5  C   UNL     1       6.437   5.032  19.361  0.00  0.00    +0.000 C 
ATOM      6  N   UNL     1       5.018   4.743  19.179  0.00  0.00    +0.000 N 
ATOM      7  C   UNL     1       4.518   3.469  19.492  0.00  0.00    +0.000 C 
ATOM      8  O   UNL     1       5.236   2.620  20.025  0.00  0.00    +0.000 OA
ATOM      9  C   UNL     1       4.241   5.819  18.685  0.00  0.00    +0.000 A 
ATOM     10  C   UNL     1       3.233   6.357  19.495  0.00  0.00    +0.000 A 
ATOM     11  C   UNL     1       2.472   7.415  19.024  0.00  0.00    +0.000 A 
ATOM     12  F   UNL     1       1.538   7.959  19.816  0.00  0.00    +0.000 F 
ATOM     13  C   UNL     1       2.675   7.927  17.752  0.00  0.00    +0.000 A 
ATOM     14  C   UNL     1       3.671   7.390  16.939  0.00  0.00    +0.000 A 
ATOM     15  C   UNL     1       4.499   6.355  17.397  0.00  0.00    +0.000 A 
ENDROOT
BRANCH   7  16
ATOM     16  C   UNL     1       3.111   3.122  19.202  0.00  0.00    +0.000 A 
ATOM     17  C   UNL     1       2.621   2.859  17.877  0.00  0.00    +0.000 A 
ATOM     18  N   UNL     1       1.333   2.526  17.774  0.00  0.00    +0.000 NA
ATOM     19  S   UNL     1       0.756   2.603  19.341  0.00  0.00    +0.000 S 
ATOM     20  N   UNL     1       2.145   3.079  20.138  0.00  0.00    +0.000 NA
ENDBRANCH   7  16
TORSDOF 1
ENDMDL
MODEL 5
REMARK VINA RESULT:      -5.7      2.821      5.118
REMARK  Name = 
REMARK  2 active torsions:
REMARK  status: ('A' for Active; 'I' for Inactive)
REMARK    1  A    between atoms: C_1  and  N_2
REMARK    2  A    between atoms: C_7  and  C_9
REMARK                            x       y       z     vdW  Elec       q    Type
REMARK                         _______ _______ _______ _____ _____    ______ ____
ROOT
ATOM      1  C   UNL     1       5.083   7.083  15.036  0.00  0.00    +0.000 C 
ATOM      2  N   UNL     1       6.024   6.029  15.381  0.00  0.00    +0.000 N 
ATOM      3  C   UNL     1       6.299   4.944  14.452  0.00  0.00    +0.000 C 
ATOM      4  C   UNL     1       5.374   3.747  14.613  0.00  0.00    +0.000 C 
ATOM      5  C   UNL     1       5.552   3.061  15.958  0.00  0.00    +0.000 C 
ATOM      6  N   UNL     1       5.072   3.873  17.071  0.00  0.00    +0.000 N 
ATOM      7  C   UNL     1       3.784   3.660  17.589  0.00  0.00    +0.000 C 
ATOM      8  O   UNL     1       3.090   2.722  17.192  0.00  0.00    +0.000 OA
ATOM      9  C   UNL     1       5.987   4.843  17.551  0.00  0.00    +0.000 A 
ATOM     10  C   UNL     1       6.475   4.727  18.858  0.00  0.00    +0.000 A 
ATOM     11  C   UNL     1       7.376   5.666  19.334  0.00  0.00    +0.000 A 
ATOM     12  F   UNL     1       7.878   5.531  20.570  0.00  0.00    +0.000 F 
ATOM     13  C   UNL     1       7.777   6.733  18.545  0.00  0.00    +0.000 A 
ATOM     14  C   UNL     1       7.288   6.856  17.246  0.00  0.00    +0.000 A 
ATOM     15  C   UNL     1       6.417   5.899  16.707  0.00  0.00    +0.000 A 
ENDROOT
BRANCH   7  16
ATOM     16  C   UNL     1       3.237   4.551  18.633  0.00  0.00    +0.000 A 
ATOM     17  C   UNL     1       2.955   4.117  19.973  0.00  0.00    +0.000 A 
ATOM     18  N   UNL     1       2.493   5.043  20.814  0.00  0.00    +0.000 NA
ATOM     19  S   UNL     1       2.375   6.428  19.886  0.00  0.00    +0.000 S 
ATOM     20  N   UNL     1       2.894   5.834  18.413  0.00  0.00    +0.000 NA
ENDBRANCH   7  16
TORSDOF 1
ENDMDL
MODEL 6
REMARK VINA RESULT:      -5.6      2.728      4.379
REMARK  Name = 
REMARK  2 active torsions:
REMARK  status: ('A' for Active; 'I' for Inactive)
REMARK    1  A    between atoms: C_1  and  N_2
REMARK    2  A    between atoms: C_7  and  C_9
REMARK                            x       y       z     vdW  Elec       q    Type
REMARK                         _______ _______ _______ _____ _____    ______ ____
ROOT
ATOM      1  C   UNL     1       2.645   2.919  16.486  0.00  0.00    +0.000 C 
ATOM      2  N   UNL     1       3.612   2.728  17.556  0.00  0.00    +0.000 N 
ATOM      3  C   UNL     1       3.467   1.636  18.505  0.00  0.00    +0.000 C 
ATOM      4  C   UNL     1       2.641   1.993  19.732  0.00  0.00    +0.000 C 
ATOM      5  C   UNL     1       3.311   3.061  20.583  0.00  0.00    +0.000 C 
ATOM      6  N   UNL     1       3.332   4.366  19.932  0.00  0.00    +0.000 N 
ATOM      7  C   UNL     1       2.344   5.317  20.238  0.00  0.00    +0.000 C 
ATOM      8  O   UNL     1       1.521   5.108  21.132  0.00  0.00    +0.000 OA
ATOM      9  C   UNL     1       4.392   4.567  19.014  0.00  0.00    +0.000 A 
ATOM     10  C   UNL     1       5.349   5.552  19.288  0.00  0.00    +0.000 A 
ATOM     11  C   UNL     1       6.394   5.751  18.399  0.00  0.00    +0.000 A 
ATOM     12  F   UNL     1       7.336   6.662  18.683  0.00  0.00    +0.000 F 
ATOM     13  C   UNL     1       6.487   5.011  17.231  0.00  0.00    +0.000 A 
ATOM     14  C   UNL     1       5.532   4.036  16.950  0.00  0.00    +0.000 A 
ATOM     15  C   UNL     1       4.489   3.765  17.848  0.00  0.00    +0.000 A 
ENDROOT
BRANCH   7  16
ATOM     16  C   UNL     1       2.278   6.596  19.502  0.00  0.00    +0.000 A 
ATOM     17  C   UNL     1       1.916   7.843  20.117  0.00  0.00    +0.000 A 
ATOM     18  N   UNL     1       1.931   8.921  19.332  0.00  0.00    +0.000 NA
ATOM     19  S   UNL     1       2.351   8.333  17.824  0.00  0.00    +0.000 S 
ATOM     20  N   UNL     1       2.491   6.706  18.177  0.00  0.00    +0.000 NA
ENDBRANCH   7  16
TORSDOF 1
ENDMDL
MODEL 7
REMARK VINA RESULT:      -5.6      7.279      9.330
REMARK  Name = 
REMARK  2 active torsions:
REMARK  status: ('A' for Active; 'I' for Inactive)
REMARK    1  A    between atoms: C_1  and  N_2
REMARK    2  A    between atoms: C_7  and  C_9
REMARK                            x       y       z     vdW  Elec       q    Type
REMARK                         _______ _______ _______ _____ _____    ______ ____
ROOT
ATOM      1  C   UNL     1      -2.625  13.534  22.643  0.00  0.00    +0.000 C 
ATOM      2  N   UNL     1      -1.210  13.203  22.569  0.00  0.00    +0.000 N 
ATOM      3  C   UNL     1      -0.199  14.249  22.583  0.00  0.00    +0.000 C 
ATOM      4  C   UNL     1       0.167  14.769  21.200  0.00  0.00    +0.000 C 
ATOM      5  C   UNL     1       0.830  13.701  20.344  0.00  0.00    +0.000 C 
ATOM      6  N   UNL     1      -0.093  12.640  19.953  0.00  0.00    +0.000 N 
ATOM      7  C   UNL     1      -0.719  12.684  18.698  0.00  0.00    +0.000 C 
ATOM      8  O   UNL     1      -0.419  13.548  17.870  0.00  0.00    +0.000 OA
ATOM      9  C   UNL     1      -0.279  11.617  20.916  0.00  0.00    +0.000 A 
ATOM     10  C   UNL     1       0.129  10.314  20.607  0.00  0.00    +0.000 A 
ATOM     11  C   UNL     1      -0.042   9.307  21.545  0.00  0.00    +0.000 A 
ATOM     12  F   UNL     1       0.389   8.069  21.269  0.00  0.00    +0.000 F 
ATOM     13  C   UNL     1      -0.638   9.568  22.769  0.00  0.00    +0.000 A 
ATOM     14  C   UNL     1      -1.053  10.862  23.077  0.00  0.00    +0.000 A 
ATOM     15  C   UNL     1      -0.850  11.919  22.179  0.00  0.00    +0.000 A 
ENDROOT
BRANCH   7  16
ATOM     16  C   UNL     1      -1.746  11.686  18.334  0.00  0.00    +0.000 A 
ATOM     17  C   UNL     1      -3.130  11.809  18.698  0.00  0.00    +0.000 A 
ATOM     18  N   UNL     1      -3.946  10.843  18.271  0.00  0.00    +0.000 NA
ATOM     19  S   UNL     1      -2.943   9.775  17.466  0.00  0.00    +0.000 S 
ATOM     20  N   UNL     1      -1.473  10.539  17.683  0.00  0.00    +0.000 NA
ENDBRANCH   7  16
TORSDOF 1
ENDMDL
MODEL 8
REMARK VINA RESULT:      -5.5      7.158      9.170
REMARK  Name = 
REMARK  2 active torsions:
REMARK  status: ('A' for Active; 'I' for Inactive)
REMARK    1  A    between atoms: C_1  and  N_2
REMARK    2  A    between atoms: C_7  and  C_9
REMARK                            x       y       z     vdW  Elec       q    Type
REMARK                         _______ _______ _______ _____ _____    ______ ____
ROOT
ATOM      1  C   UNL     1      -3.097  12.735  22.878  0.00  0.00    +0.000 C 
ATOM      2  N   UNL     1      -1.644  12.703  22.943  0.00  0.00    +0.000 N 
ATOM      3  C   UNL     1      -0.883  13.914  23.205  0.00  0.00    +0.000 C 
ATOM      4  C   UNL     1      -0.502  14.684  21.949  0.00  0.00    +0.000 C 
ATOM      5  C   UNL     1       0.453  13.899  21.063  0.00  0.00    +0.000 C 
ATOM      6  N   UNL     1      -0.182  12.743  20.439  0.00  0.00    +0.000 N 
ATOM      7  C   UNL     1      -0.677  12.839  19.129  0.00  0.00    +0.000 C 
ATOM      8  O   UNL     1      -0.487  13.852  18.452  0.00  0.00    +0.000 OA
ATOM      9  C   UNL     1      -0.241  11.579  21.244  0.00  0.00    +0.000 A 
ATOM     10  C   UNL     1       0.461  10.437  20.838  0.00  0.00    +0.000 A 
ATOM     11  C   UNL     1       0.415   9.295  21.623  0.00  0.00    +0.000 A 
ATOM     12  F   UNL     1       1.124   8.217  21.260  0.00  0.00    +0.000 F 
ATOM     13  C   UNL     1      -0.339   9.259  22.785  0.00  0.00    +0.000 A 
ATOM     14  C   UNL     1      -1.046  10.390  23.188  0.00  0.00    +0.000 A 
ATOM     15  C   UNL     1      -0.984  11.582  22.453  0.00  0.00    +0.000 A 
ENDROOT
BRANCH   7  16
ATOM     16  C   UNL     1      -1.429  11.718  18.526  0.00  0.00    +0.000 A 
ATOM     17  C   UNL     1      -0.819  10.710  17.705  0.00  0.00    +0.000 A 
ATOM     18  N   UNL     1      -1.620   9.742  17.256  0.00  0.00    +0.000 NA
ATOM     19  S   UNL     1      -3.134  10.152  17.835  0.00  0.00    +0.000 S 
ATOM     20  N   UNL     1      -2.763  11.570  18.637  0.00  0.00    +0.000 NA
ENDBRANCH   7  16
TORSDOF 1
ENDMDL
MODEL 9
REMARK VINA RESULT:      -5.2      9.614     11.307
REMARK  Name = 
REMARK  2 active torsions:
REMARK  status: ('A' for Active; 'I' for Inactive)
REMARK    1  A    between atoms: C_1  and  N_2
REMARK    2  A    between atoms: C_7  and  C_9
REMARK                            x       y       z     vdW  Elec       q    Type
REMARK                         _______ _______ _______ _____ _____    ______ ____
ROOT
ATOM      1  C   UNL     1       7.931  12.834  17.309  0.00  0.00    +0.000 C 
ATOM      2  N   UNL     1       9.225  12.507  17.886  0.00  0.00    +0.000 N 
ATOM      3  C   UNL     1       9.663  11.125  18.000  0.00  0.00    +0.000 C 
ATOM      4  C   UNL     1       9.258  10.458  19.307  0.00  0.00    +0.000 C 
ATOM      5  C   UNL     1       9.930  11.100  20.510  0.00  0.00    +0.000 C 
ATOM      6  N   UNL     1       9.436  12.446  20.778  0.00  0.00    +0.000 N 
ATOM      7  C   UNL     1       8.433  12.646  21.740  0.00  0.00    +0.000 C 
ATOM      8  O   UNL     1       8.039  11.714  22.445  0.00  0.00    +0.000 OA
ATOM      9  C   UNL     1      10.039  13.475  20.012  0.00  0.00    +0.000 A 
ATOM     10  C   UNL     1      10.790  14.457  20.668  0.00  0.00    +0.000 A 
ATOM     11  C   UNL     1      11.391  15.463  19.927  0.00  0.00    +0.000 A 
ATOM     12  F   UNL     1      12.147  16.378  20.549  0.00  0.00    +0.000 F 
ATOM     13  C   UNL     1      11.232  15.526  18.552  0.00  0.00    +0.000 A 
ATOM     14  C   UNL     1      10.478  14.555  17.895  0.00  0.00    +0.000 A 
ATOM     15  C   UNL     1       9.899  13.491  18.600  0.00  0.00    +0.000 A 
ENDROOT
BRANCH   7  16
ATOM     16  C   UNL     1       7.836  13.983  21.938  0.00  0.00    +0.000 A 
ATOM     17  C   UNL     1       8.078  14.790  23.101  0.00  0.00    +0.000 A 
ATOM     18  N   UNL     1       7.494  15.990  23.125  0.00  0.00    +0.000 NA
ATOM     19  S   UNL     1       6.613  16.054  21.705  0.00  0.00    +0.000 S 
ATOM     20  N   UNL     1       6.964  14.544  21.080  0.00  0.00    +0.000 NA
ENDBRANCH   7  16
TORSDOF 1
ENDMDL
