MODEL 1
REMARK VINA RESULT:      -6.7      0.000      0.000
REMARK  Name = 
REMARK  17 active torsions:
REMARK  status: ('A' for Active; 'I' for Inactive)
REMARK    1  A    between atoms: C_1  and  C_2
REMARK    2  A    between atoms: C_2  and  C_3
REMARK    3  A    between atoms: C_3  and  C_4
REMARK    4  A    between atoms: C_4  and  C_5
REMARK    5  A    between atoms: C_5  and  C_6
REMARK    6  A    between atoms: C_6  and  O_7
REMARK    7  A    between atoms: C_6  and  C_8
REMARK    8  A    between atoms: C_9  and  C_10
REMARK    9  A    between atoms: C_10  and  N_11
REMARK   10  A    between atoms: N_11  and  C_12
REMARK   11  A    between atoms: C_12  and  C_13
REMARK   12  A    between atoms: C_13  and  C_14
REMARK   13  A    between atoms: C_14  and  C_15
REMARK   14  A    between atoms: C_15  and  C_16
REMARK   15  A    between atoms: C_16  and  C_17
REMARK   16  A    between atoms: C_17  and  C_18
REMARK   17  A    between atoms: C_18  and  O_20
REMARK                            x       y       z     vdW  Elec       q    Type
REMARK                         _______ _______ _______ _____ _____    ______ ____
ROOT
ATOM      1  N   UNL     1       4.972   5.001  17.715  0.00  0.00    +0.000 N 
ATOM      2  C   UNL     1       5.727   4.348  18.676  0.00  0.00    +0.000 C 
ATOM      3  N   UNL     1       7.050   4.605  18.714  0.00  0.00    +0.000 N 
ATOM      4  O   UNL     1       5.261   3.563  19.498  0.00  0.00    +0.000 OA
ATOM      5  H   UNL     1       7.540   5.207  18.077  0.00  0.00    +0.000 HD
ATOM      6  H   UNL     1       7.586   4.097  19.404  0.00  0.00    +0.000 HD
ENDROOT
BRANCH   1   7
ATOM      7  C   UNL     1       5.501   6.061  16.860  0.00  0.00    +0.000 C 
BRANCH   7   9
ATOM      8  C   UNL     1       6.306   4.480  14.923  0.00  0.00    +0.000 C 
ATOM      9  C   UNL     1       6.287   5.604  15.660  0.00  0.00    +0.000 C 
BRANCH   8  10
ATOM     10  C   UNL     1       7.231   4.416  13.726  0.00  0.00    +0.000 C 
BRANCH  10  11
ATOM     11  O   UNL     1       8.002   5.617  13.687  0.00  0.00    +0.000 OA
ATOM     12  H   UNL     1       7.922   5.978  12.789  0.00  0.00    +0.000 HD
ENDBRANCH  10  11
BRANCH  10  13
ATOM     13  C   UNL     1       6.480   4.254  12.415  0.00  0.00    +0.000 C 
BRANCH  13  14
ATOM     14  C   UNL     1       5.237   3.375  12.576  0.00  0.00    +0.000 C 
BRANCH  14  15
ATOM     15  C   UNL     1       4.798   2.901  11.199  0.00  0.00    +0.000 C 
BRANCH  15  17
ATOM     16  C   UNL     1       3.156   3.998   9.690  0.00  0.00    +0.000 C 
ATOM     17  C   UNL     1       3.320   3.159  10.945  0.00  0.00    +0.000 C 
ENDBRANCH  15  17
ENDBRANCH  14  15
ENDBRANCH  13  14
ENDBRANCH  10  13
ENDBRANCH   8  10
ENDBRANCH   7   9
ENDBRANCH   1   7
BRANCH   1  18
ATOM     18  C   UNL     1       3.528   4.733  17.820  0.00  0.00    +0.000 C 
BRANCH  18  19
ATOM     19  C   UNL     1       2.532   5.860  18.107  0.00  0.00    +0.000 C 
BRANCH  19  20
ATOM     20  C   UNL     1       2.176   6.130  19.568  0.00  0.00    +0.000 C 
BRANCH  20  21
ATOM     21  C   UNL     1       2.464   4.940  20.481  0.00  0.00    +0.000 C 
BRANCH  21  22
ATOM     22  C   UNL     1       1.235   4.057  20.703  0.00  0.00    +0.000 C 
BRANCH  22  23
ATOM     23  C   UNL     1       1.493   2.565  20.477  0.00  0.00    +0.000 C 
BRANCH  23  24
ATOM     24  C   UNL     1       1.421   2.237  19.002  0.00  0.00    +0.000 C 
ATOM     25  O   UNL     1       0.574   2.638  18.231  0.00  0.00    +0.000 OA
BRANCH  24  26
ATOM     26  O   UNL     1       2.439   1.434  18.600  0.00  0.00    +0.000 OA
ATOM     27  H   UNL     1       3.322   1.819  18.762  0.00  0.00    +0.000 HD
ENDBRANCH  24  26
ENDBRANCH  23  24
ENDBRANCH  22  23
ENDBRANCH  21  22
ENDBRANCH  20  21
ENDBRANCH  19  20
ENDBRANCH  18  19
ENDBRANCH   1  18
TORSDOF 16
ENDMDL
MODEL 2
REMARK VINA RESULT:      -6.6      1.451      1.733
REMARK  Name = 
REMARK  17 active torsions:
REMARK  status: ('A' for Active; 'I' for Inactive)
REMARK    1  A    between atoms: C_1  and  C_2
REMARK    2  A    between atoms: C_2  and  C_3
REMARK    3  A    between atoms: C_3  and  C_4
REMARK    4  A    between atoms: C_4  and  C_5
REMARK    5  A    between atoms: C_5  and  C_6
REMARK    6  A    between atoms: C_6  and  O_7
REMARK    7  A    between atoms: C_6  and  C_8
REMARK    8  A    between atoms: C_9  and  C_10
REMARK    9  A    between atoms: C_10  and  N_11
REMARK   10  A    between atoms: N_11  and  C_12
REMARK   11  A    between atoms: C_12  and  C_13
REMARK   12  A    between atoms: C_13  and  C_14
REMARK   13  A    between atoms: C_14  and  C_15
REMARK   14  A    between atoms: C_15  and  C_16
REMARK   15  A    between atoms: C_16  and  C_17
REMARK   16  A    between atoms: C_17  and  C_18
REMARK   17  A    between atoms: C_18  and  O_20
REMARK                            x       y       z     vdW  Elec       q    Type
REMARK                         _______ _______ _______ _____ _____    ______ ____
ROOT
ATOM      1  N   UNL     1       4.163   3.531  18.522  0.00  0.00    +0.000 N 
ATOM      2  C   UNL     1       4.534   2.379  19.196  0.00  0.00    +0.000 C 
ATOM      3  N   UNL     1       4.347   1.199  18.570  0.00  0.00    +0.000 N 
ATOM      4  O   UNL     1       5.031   2.371  20.320  0.00  0.00    +0.000 OA
ATOM      5  H   UNL     1       3.928   1.085  17.665  0.00  0.00    +0.000 HD
ATOM      6  H   UNL     1       4.599   0.371  19.091  0.00  0.00    +0.000 HD
ENDROOT
BRANCH   1   7
ATOM      7  C   UNL     1       3.738   3.543  17.124  0.00  0.00    +0.000 C 
BRANCH   7   9
ATOM      8  C   UNL     1       6.006   4.448  16.155  0.00  0.00    +0.000 C 
ATOM      9  C   UNL     1       4.821   3.816  16.113  0.00  0.00    +0.000 C 
BRANCH   8  10
ATOM     10  C   UNL     1       6.859   4.471  14.904  0.00  0.00    +0.000 C 
BRANCH  10  11
ATOM     11  O   UNL     1       7.709   5.617  14.959  0.00  0.00    +0.000 OA
ATOM     12  H   UNL     1       7.544   6.133  14.152  0.00  0.00    +0.000 HD
ENDBRANCH  10  11
BRANCH  10  13
ATOM     13  C   UNL     1       6.028   4.517  13.633  0.00  0.00    +0.000 C 
BRANCH  13  14
ATOM     14  C   UNL     1       6.786   3.940  12.435  0.00  0.00    +0.000 C 
BRANCH  14  15
ATOM     15  C   UNL     1       5.972   2.794  11.854  0.00  0.00    +0.000 C 
BRANCH  15  17
ATOM     16  C   UNL     1       3.945   3.657  10.703  0.00  0.00    +0.000 C 
ATOM     17  C   UNL     1       4.474   3.030  11.981  0.00  0.00    +0.000 C 
ENDBRANCH  15  17
ENDBRANCH  14  15
ENDBRANCH  13  14
ENDBRANCH  10  13
ENDBRANCH   8  10
ENDBRANCH   7   9
ENDBRANCH   1   7
BRANCH   1  18
ATOM     18  C   UNL     1       4.499   4.769  19.244  0.00  0.00    +0.000 C 
BRANCH  18  19
ATOM     19  C   UNL     1       3.764   6.080  18.955  0.00  0.00    +0.000 C 
BRANCH  19  20
ATOM     20  C   UNL     1       2.467   6.342  19.721  0.00  0.00    +0.000 C 
BRANCH  20  21
ATOM     21  C   UNL     1       2.187   5.294  20.795  0.00  0.00    +0.000 C 
BRANCH  21  22
ATOM     22  C   UNL     1       0.869   4.554  20.567  0.00  0.00    +0.000 C 
BRANCH  22  23
ATOM     23  C   UNL     1       1.013   3.031  20.507  0.00  0.00    +0.000 C 
BRANCH  23  24
ATOM     24  C   UNL     1       0.907   2.550  19.076  0.00  0.00    +0.000 C 
ATOM     25  O   UNL     1       0.479   3.198  18.144  0.00  0.00    +0.000 OA
BRANCH  24  26
ATOM     26  O   UNL     1       1.367   1.282  18.922  0.00  0.00    +0.000 OA
ATOM     27  H   UNL     1       2.038   1.197  18.218  0.00  0.00    +0.000 HD
ENDBRANCH  24  26
ENDBRANCH  23  24
ENDBRANCH  22  23
ENDBRANCH  21  22
ENDBRANCH  20  21
ENDBRANCH  19  20
ENDBRANCH  18  19
ENDBRANCH   1  18
TORSDOF 16
ENDMDL
MODEL 3
REMARK VINA RESULT:      -6.4      1.667      2.008
REMARK  Name = 
REMARK  17 active torsions:
REMARK  status: ('A' for Active; 'I' for Inactive)
REMARK    1  A    between atoms: C_1  and  C_2
REMARK    2  A    between atoms: C_2  and  C_3
REMARK    3  A    between atoms: C_3  and  C_4
REMARK    4  A    between atoms: C_4  and  C_5
REMARK    5  A    between atoms: C_5  and  C_6
REMARK    6  A    between atoms: C_6  and  O_7
REMARK    7  A    between atoms: C_6  and  C_8
REMARK    8  A    between atoms: C_9  and  C_10
REMARK    9  A    between atoms: C_10  and  N_11
REMARK   10  A    between atoms: N_11  and  C_12
REMARK   11  A    between atoms: C_12  and  C_13
REMARK   12  A    between atoms: C_13  and  C_14
REMARK   13  A    between atoms: C_14  and  C_15
REMARK   14  A    between atoms: C_15  and  C_16
REMARK   15  A    between atoms: C_16  and  C_17
REMARK   16  A    between atoms: C_17  and  C_18
REMARK   17  A    between atoms: C_18  and  O_20
REMARK                            x       y       z     vdW  Elec       q    Type
REMARK                         _______ _______ _______ _____ _____    ______ ____
ROOT
ATOM      1  N   UNL     1       5.426   5.771  17.757  0.00  0.00    +0.000 N 
ATOM      2  C   UNL     1       6.404   5.611  18.725  0.00  0.00    +0.000 C 
ATOM      3  N   UNL     1       7.668   5.950  18.399  0.00  0.00    +0.000 N 
ATOM      4  O   UNL     1       6.186   5.192  19.859  0.00  0.00    +0.000 OA
ATOM      5  H   UNL     1       7.965   6.278  17.498  0.00  0.00    +0.000 HD
ATOM      6  H   UNL     1       8.370   5.799  19.111  0.00  0.00    +0.000 HD
ENDROOT
BRANCH   1   7
ATOM      7  C   UNL     1       5.662   6.433  16.476  0.00  0.00    +0.000 C 
BRANCH   7   9
ATOM      8  C   UNL     1       6.908   4.836  14.803  0.00  0.00    +0.000 C 
ATOM      9  C   UNL     1       5.861   5.521  15.294  0.00  0.00    +0.000 C 
BRANCH   8  10
ATOM     10  C   UNL     1       6.694   3.963  13.584  0.00  0.00    +0.000 C 
BRANCH  10  11
ATOM     11  O   UNL     1       7.285   4.610  12.458  0.00  0.00    +0.000 OA
ATOM     12  H   UNL     1       8.079   5.070  12.777  0.00  0.00    +0.000 HD
ENDBRANCH  10  11
BRANCH  10  13
ATOM     13  C   UNL     1       5.223   3.703  13.305  0.00  0.00    +0.000 C 
BRANCH  13  14
ATOM     14  C   UNL     1       4.847   4.053  11.863  0.00  0.00    +0.000 C 
BRANCH  14  15
ATOM     15  C   UNL     1       4.287   2.807  11.193  0.00  0.00    +0.000 C 
BRANCH  15  17
ATOM     16  C   UNL     1       3.054   4.317   9.651  0.00  0.00    +0.000 C 
ATOM     17  C   UNL     1       2.952   3.071  10.512  0.00  0.00    +0.000 C 
ENDBRANCH  15  17
ENDBRANCH  14  15
ENDBRANCH  13  14
ENDBRANCH  10  13
ENDBRANCH   8  10
ENDBRANCH   7   9
ENDBRANCH   1   7
BRANCH   1  18
ATOM     18  C   UNL     1       4.068   5.471  18.239  0.00  0.00    +0.000 C 
BRANCH  18  19
ATOM     19  C   UNL     1       3.065   4.712  17.366  0.00  0.00    +0.000 C 
BRANCH  19  20
ATOM     20  C   UNL     1       1.754   4.276  18.017  0.00  0.00    +0.000 C 
BRANCH  20  21
ATOM     21  C   UNL     1       1.617   2.758  18.123  0.00  0.00    +0.000 C 
BRANCH  21  22
ATOM     22  C   UNL     1       1.312   2.292  19.547  0.00  0.00    +0.000 C 
BRANCH  22  23
ATOM     23  C   UNL     1       0.914   3.422  20.499  0.00  0.00    +0.000 C 
BRANCH  23  24
ATOM     24  C   UNL     1       2.034   3.702  21.478  0.00  0.00    +0.000 C 
ATOM     25  O   UNL     1       2.502   2.903  22.261  0.00  0.00    +0.000 OA
BRANCH  24  26
ATOM     26  O   UNL     1       2.494   4.976  21.386  0.00  0.00    +0.000 OA
ATOM     27  H   UNL     1       3.290   5.140  21.927  0.00  0.00    +0.000 HD
ENDBRANCH  24  26
ENDBRANCH  23  24
ENDBRANCH  22  23
ENDBRANCH  21  22
ENDBRANCH  20  21
ENDBRANCH  19  20
ENDBRANCH  18  19
ENDBRANCH   1  18
TORSDOF 16
ENDMDL
MODEL 4
REMARK VINA RESULT:      -6.3      4.663      8.780
REMARK  Name = 
REMARK  17 active torsions:
REMARK  status: ('A' for Active; 'I' for Inactive)
REMARK    1  A    between atoms: C_1  and  C_2
REMARK    2  A    between atoms: C_2  and  C_3
REMARK    3  A    between atoms: C_3  and  C_4
REMARK    4  A    between atoms: C_4  and  C_5
REMARK    5  A    between atoms: C_5  and  C_6
REMARK    6  A    between atoms: C_6  and  O_7
REMARK    7  A    between atoms: C_6  and  C_8
REMARK    8  A    between atoms: C_9  and  C_10
REMARK    9  A    between atoms: C_10  and  N_11
REMARK   10  A    between atoms: N_11  and  C_12
REMARK   11  A    between atoms: C_12  and  C_13
REMARK   12  A    between atoms: C_13  and  C_14
REMARK   13  A    between atoms: C_14  and  C_15
REMARK   14  A    between atoms: C_15  and  C_16
REMARK   15  A    between atoms: C_16  and  C_17
REMARK   16  A    between atoms: C_17  and  C_18
REMARK   17  A    between atoms: C_18  and  O_20
REMARK                            x       y       z     vdW  Elec       q    Type
REMARK                         _______ _______ _______ _____ _____    ______ ____
ROOT
ATOM      1  N   UNL     1       7.088   5.988  17.577  0.00  0.00    +0.000 N 
ATOM      2  C   UNL     1       7.084   5.293  16.378  0.00  0.00    +0.000 C 
ATOM      3  N   UNL     1       6.666   4.011  16.399  0.00  0.00    +0.000 N 
ATOM      4  O   UNL     1       7.424   5.778  15.302  0.00  0.00    +0.000 OA
ATOM      5  H   UNL     1       6.390   3.506  17.222  0.00  0.00    +0.000 HD
ATOM      6  H   UNL     1       6.698   3.515  15.518  0.00  0.00    +0.000 HD
ENDROOT
BRANCH   1   7
ATOM      7  C   UNL     1       6.517   5.460  18.814  0.00  0.00    +0.000 C 
BRANCH   7   9
ATOM      8  C   UNL     1       3.962   5.656  18.235  0.00  0.00    +0.000 C 
ATOM      9  C   UNL     1       5.049   5.724  19.023  0.00  0.00    +0.000 C 
BRANCH   8  10
ATOM     10  C   UNL     1       2.609   5.961  18.842  0.00  0.00    +0.000 C 
BRANCH  10  11
ATOM     11  O   UNL     1       2.814   6.637  20.082  0.00  0.00    +0.000 OA
ATOM     12  H   UNL     1       2.717   7.588  19.908  0.00  0.00    +0.000 HD
ENDBRANCH  10  11
BRANCH  10  13
ATOM     13  C   UNL     1       1.780   4.709  19.079  0.00  0.00    +0.000 C 
BRANCH  13  14
ATOM     14  C   UNL     1       1.970   4.161  20.496  0.00  0.00    +0.000 C 
BRANCH  14  15
ATOM     15  C   UNL     1       2.272   2.673  20.402  0.00  0.00    +0.000 C 
BRANCH  15  17
ATOM     16  C   UNL     1       3.628   1.678  18.572  0.00  0.00    +0.000 C 
ATOM     17  C   UNL     1       3.684   2.403  19.905  0.00  0.00    +0.000 C 
ENDBRANCH  15  17
ENDBRANCH  14  15
ENDBRANCH  13  14
ENDBRANCH  10  13
ENDBRANCH   8  10
ENDBRANCH   7   9
ENDBRANCH   1   7
BRANCH   1  18
ATOM     18  C   UNL     1       7.461   7.405  17.434  0.00  0.00    +0.000 C 
BRANCH  18  19
ATOM     19  C   UNL     1       8.211   8.143  18.545  0.00  0.00    +0.000 C 
BRANCH  19  20
ATOM     20  C   UNL     1       8.583   9.603  18.292  0.00  0.00    +0.000 C 
BRANCH  20  21
ATOM     21  C   UNL     1       9.333  10.239  19.460  0.00  0.00    +0.000 C 
BRANCH  21  22
ATOM     22  C   UNL     1      10.461  11.165  19.003  0.00  0.00    +0.000 C 
BRANCH  22  23
ATOM     23  C   UNL     1      10.256  11.750  17.604  0.00  0.00    +0.000 C 
BRANCH  23  24
ATOM     24  C   UNL     1      11.051  13.028  17.448  0.00  0.00    +0.000 C 
ATOM     25  O   UNL     1      10.631  14.148  17.645  0.00  0.00    +0.000 OA
BRANCH  24  26
ATOM     26  O   UNL     1      12.333  12.796  17.067  0.00  0.00    +0.000 OA
ATOM     27  H   UNL     1      12.993  13.203  17.659  0.00  0.00    +0.000 HD
ENDBRANCH  24  26
ENDBRANCH  23  24
ENDBRANCH  22  23
ENDBRANCH  21  22
ENDBRANCH  20  21
ENDBRANCH  19  20
ENDBRANCH  18  19
ENDBRANCH   1  18
TORSDOF 16
ENDMDL
MODEL 5
REMARK VINA RESULT:      -6.3      3.718      6.894
REMARK  Name = 
REMARK  17 active torsions:
REMARK  status: ('A' for Active; 'I' for Inactive)
REMARK    1  A    between atoms: C_1  and  C_2
REMARK    2  A    between atoms: C_2  and  C_3
REMARK    3  A    between atoms: C_3  and  C_4
REMARK    4  A    between atoms: C_4  and  C_5
REMARK    5  A    between atoms: C_5  and  C_6
REMARK    6  A    between atoms: C_6  and  O_7
REMARK    7  A    between atoms: C_6  and  C_8
REMARK    8  A    between atoms: C_9  and  C_10
REMARK    9  A    between atoms: C_10  and  N_11
REMARK   10  A    between atoms: N_11  and  C_12
REMARK   11  A    between atoms: C_12  and  C_13
REMARK   12  A    between atoms: C_13  and  C_14
REMARK   13  A    between atoms: C_14  and  C_15
REMARK   14  A    between atoms: C_15  and  C_16
REMARK   15  A    between atoms: C_16  and  C_17
REMARK   16  A    between atoms: C_17  and  C_18
REMARK   17  A    between atoms: C_18  and  O_20
REMARK                            x       y       z     vdW  Elec       q    Type
REMARK                         _______ _______ _______ _____ _____    ______ ____
ROOT
ATOM      1  N   UNL     1       5.735   5.789  17.556  0.00  0.00    +0.000 N 
ATOM      2  C   UNL     1       6.560   5.522  16.475  0.00  0.00    +0.000 C 
ATOM      3  N   UNL     1       7.616   4.707  16.680  0.00  0.00    +0.000 N 
ATOM      4  O   UNL     1       6.380   5.971  15.346  0.00  0.00    +0.000 OA
ATOM      5  H   UNL     1       7.873   4.305  17.563  0.00  0.00    +0.000 HD
ATOM      6  H   UNL     1       8.220   4.548  15.885  0.00  0.00    +0.000 HD
ENDROOT
BRANCH   1   7
ATOM      7  C   UNL     1       5.855   5.114  18.846  0.00  0.00    +0.000 C 
BRANCH   7   9
ATOM      8  C   UNL     1       4.222   3.157  18.206  0.00  0.00    +0.000 C 
ATOM      9  C   UNL     1       5.000   3.887  19.025  0.00  0.00    +0.000 C 
BRANCH   8  10
ATOM     10  C   UNL     1       3.540   1.926  18.764  0.00  0.00    +0.000 C 
BRANCH  10  11
ATOM     11  O   UNL     1       4.110   0.775  18.141  0.00  0.00    +0.000 OA
ATOM     12  H   UNL     1       4.592   0.287  18.829  0.00  0.00    +0.000 HD
ENDBRANCH  10  11
BRANCH  10  13
ATOM     13  C   UNL     1       2.039   1.936  18.532  0.00  0.00    +0.000 C 
BRANCH  13  14
ATOM     14  C   UNL     1       1.485   3.360  18.444  0.00  0.00    +0.000 C 
BRANCH  14  15
ATOM     15  C   UNL     1       0.777   3.686  19.751  0.00  0.00    +0.000 C 
BRANCH  15  17
ATOM     16  C   UNL     1       2.158   3.505  21.809  0.00  0.00    +0.000 C 
ATOM     17  C   UNL     1       1.674   4.443  20.718  0.00  0.00    +0.000 C 
ENDBRANCH  15  17
ENDBRANCH  14  15
ENDBRANCH  13  14
ENDBRANCH  10  13
ENDBRANCH   8  10
ENDBRANCH   7   9
ENDBRANCH   1   7
BRANCH   1  18
ATOM     18  C   UNL     1       4.558   6.602  17.209  0.00  0.00    +0.000 C 
BRANCH  18  19
ATOM     19  C   UNL     1       3.570   7.065  18.283  0.00  0.00    +0.000 C 
BRANCH  19  20
ATOM     20  C   UNL     1       2.215   7.591  17.811  0.00  0.00    +0.000 C 
BRANCH  20  21
ATOM     21  C   UNL     1       2.141   9.116  17.792  0.00  0.00    +0.000 C 
BRANCH  21  22
ATOM     22  C   UNL     1       0.839   9.651  18.389  0.00  0.00    +0.000 C 
BRANCH  22  23
ATOM     23  C   UNL     1       0.895  11.129  18.780  0.00  0.00    +0.000 C 
BRANCH  23  24
ATOM     24  C   UNL     1      -0.476  11.757  18.655  0.00  0.00    +0.000 C 
ATOM     25  O   UNL     1      -1.478  11.380  19.224  0.00  0.00    +0.000 OA
BRANCH  24  26
ATOM     26  O   UNL     1      -0.478  12.833  17.828  0.00  0.00    +0.000 OA
ATOM     27  H   UNL     1      -1.005  13.582  18.167  0.00  0.00    +0.000 HD
ENDBRANCH  24  26
ENDBRANCH  23  24
ENDBRANCH  22  23
ENDBRANCH  21  22
ENDBRANCH  20  21
ENDBRANCH  19  20
ENDBRANCH  18  19
ENDBRANCH   1  18
TORSDOF 16
ENDMDL
MODEL 6
REMARK VINA RESULT:      -6.3      3.228      4.176
REMARK  Name = 
REMARK  17 active torsions:
REMARK  status: ('A' for Active; 'I' for Inactive)
REMARK    1  A    between atoms: C_1  and  C_2
REMARK    2  A    between atoms: C_2  and  C_3
REMARK    3  A    between atoms: C_3  and  C_4
REMARK    4  A    between atoms: C_4  and  C_5
REMARK    5  A    between atoms: C_5  and  C_6
REMARK    6  A    between atoms: C_6  and  O_7
REMARK    7  A    between atoms: C_6  and  C_8
REMARK    8  A    between atoms: C_9  and  C_10
REMARK    9  A    between atoms: C_10  and  N_11
REMARK   10  A    between atoms: N_11  and  C_12
REMARK   11  A    between atoms: C_12  and  C_13
REMARK   12  A    between atoms: C_13  and  C_14
REMARK   13  A    between atoms: C_14  and  C_15
REMARK   14  A    between atoms: C_15  and  C_16
REMARK   15  A    between atoms: C_16  and  C_17
REMARK   16  A    between atoms: C_17  and  C_18
REMARK   17  A    between atoms: C_18  and  O_20
REMARK                            x       y       z     vdW  Elec       q    Type
REMARK                         _______ _______ _______ _____ _____    ______ ____
ROOT
ATOM      1  N   UNL     1       4.040   4.076  18.971  0.00  0.00    +0.000 N 
ATOM      2  C   UNL     1       3.916   2.858  19.619  0.00  0.00    +0.000 C 
ATOM      3  N   UNL     1       5.043   2.149  19.841  0.00  0.00    +0.000 N 
ATOM      4  O   UNL     1       2.849   2.394  20.013  0.00  0.00    +0.000 OA
ATOM      5  H   UNL     1       5.962   2.418  19.543  0.00  0.00    +0.000 HD
ATOM      6  H   UNL     1       4.926   1.252  20.291  0.00  0.00    +0.000 HD
ENDROOT
BRANCH   1   7
ATOM      7  C   UNL     1       5.326   4.698  18.666  0.00  0.00    +0.000 C 
BRANCH   7   9
ATOM      8  C   UNL     1       5.524   4.823  16.050  0.00  0.00    +0.000 C 
ATOM      9  C   UNL     1       5.872   4.432  17.288  0.00  0.00    +0.000 C 
BRANCH   8  10
ATOM     10  C   UNL     1       6.376   4.371  14.882  0.00  0.00    +0.000 C 
BRANCH  10  11
ATOM     11  O   UNL     1       7.372   5.365  14.641  0.00  0.00    +0.000 OA
ATOM     12  H   UNL     1       7.740   5.615  15.504  0.00  0.00    +0.000 HD
ENDBRANCH  10  11
BRANCH  10  13
ATOM     13  C   UNL     1       5.563   4.151  13.617  0.00  0.00    +0.000 C 
BRANCH  13  14
ATOM     14  C   UNL     1       6.363   3.399  12.550  0.00  0.00    +0.000 C 
BRANCH  14  15
ATOM     15  C   UNL     1       5.387   2.788  11.555  0.00  0.00    +0.000 C 
BRANCH  15  17
ATOM     16  C   UNL     1       3.383   3.543  10.296  0.00  0.00    +0.000 C 
ATOM     17  C   UNL     1       3.993   3.384  11.677  0.00  0.00    +0.000 C 
ENDBRANCH  15  17
ENDBRANCH  14  15
ENDBRANCH  13  14
ENDBRANCH  10  13
ENDBRANCH   8  10
ENDBRANCH   7   9
ENDBRANCH   1   7
BRANCH   1  18
ATOM     18  C   UNL     1       2.773   4.818  18.867  0.00  0.00    +0.000 C 
BRANCH  18  19
ATOM     19  C   UNL     1       2.327   5.783  19.969  0.00  0.00    +0.000 C 
BRANCH  19  20
ATOM     20  C   UNL     1       2.186   7.258  19.595  0.00  0.00    +0.000 C 
BRANCH  20  21
ATOM     21  C   UNL     1       2.561   7.544  18.143  0.00  0.00    +0.000 C 
BRANCH  21  22
ATOM     22  C   UNL     1       2.245   8.980  17.724  0.00  0.00    +0.000 C 
BRANCH  22  23
ATOM     23  C   UNL     1       0.890   9.488  18.222  0.00  0.00    +0.000 C 
BRANCH  23  24
ATOM     24  C   UNL     1       1.071  10.746  19.044  0.00  0.00    +0.000 C 
ATOM     25  O   UNL     1       1.266  11.857  18.599  0.00  0.00    +0.000 OA
BRANCH  24  26
ATOM     26  O   UNL     1       0.977  10.510  20.378  0.00  0.00    +0.000 OA
ATOM     27  H   UNL     1       1.741  10.844  20.885  0.00  0.00    +0.000 HD
ENDBRANCH  24  26
ENDBRANCH  23  24
ENDBRANCH  22  23
ENDBRANCH  21  22
ENDBRANCH  20  21
ENDBRANCH  19  20
ENDBRANCH  18  19
ENDBRANCH   1  18
TORSDOF 16
ENDMDL
MODEL 7
REMARK VINA RESULT:      -6.2      3.835      8.279
REMARK  Name = 
REMARK  17 active torsions:
REMARK  status: ('A' for Active; 'I' for Inactive)
REMARK    1  A    between atoms: C_1  and  C_2
REMARK    2  A    between atoms: C_2  and  C_3
REMARK    3  A    between atoms: C_3  and  C_4
REMARK    4  A    between atoms: C_4  and  C_5
REMARK    5  A    between atoms: C_5  and  C_6
REMARK    6  A    between atoms: C_6  and  O_7
REMARK    7  A    between atoms: C_6  and  C_8
REMARK    8  A    between atoms: C_9  and  C_10
REMARK    9  A    between atoms: C_10  and  N_11
REMARK   10  A    between atoms: N_11  and  C_12
REMARK   11  A    between atoms: C_12  and  C_13
REMARK   12  A    between atoms: C_13  and  C_14
REMARK   13  A    between atoms: C_14  and  C_15
REMARK   14  A    between atoms: C_15  and  C_16
REMARK   15  A    between atoms: C_16  and  C_17
REMARK   16  A    between atoms: C_17  and  C_18
REMARK   17  A    between atoms: C_18  and  O_20
REMARK                            x       y       z     vdW  Elec       q    Type
REMARK                         _______ _______ _______ _____ _____    ______ ____
ROOT
ATOM      1  N   UNL     1       5.828   4.892  16.271  0.00  0.00    +0.000 N 
ATOM      2  C   UNL     1       6.606   4.829  15.127  0.00  0.00    +0.000 C 
ATOM      3  N   UNL     1       6.050   4.292  14.021  0.00  0.00    +0.000 N 
ATOM      4  O   UNL     1       7.761   5.243  15.057  0.00  0.00    +0.000 OA
ATOM      5  H   UNL     1       5.127   3.901  13.970  0.00  0.00    +0.000 HD
ATOM      6  H   UNL     1       6.645   4.231  13.206  0.00  0.00    +0.000 HD
ENDROOT
BRANCH   1   7
ATOM      7  C   UNL     1       4.405   4.562  16.296  0.00  0.00    +0.000 C 
BRANCH   7   9
ATOM      8  C   UNL     1       3.073   5.907  18.117  0.00  0.00    +0.000 C 
ATOM      9  C   UNL     1       3.691   4.834  17.594  0.00  0.00    +0.000 C 
BRANCH   8  10
ATOM     10  C   UNL     1       2.412   5.770  19.473  0.00  0.00    +0.000 C 
BRANCH  10  11
ATOM     11  O   UNL     1       2.607   6.987  20.193  0.00  0.00    +0.000 OA
ATOM     12  H   UNL     1       1.738   7.262  20.529  0.00  0.00    +0.000 HD
ENDBRANCH  10  11
BRANCH  10  13
ATOM     13  C   UNL     1       2.969   4.610  20.280  0.00  0.00    +0.000 C 
BRANCH  13  14
ATOM     14  C   UNL     1       1.945   4.065  21.278  0.00  0.00    +0.000 C 
BRANCH  14  15
ATOM     15  C   UNL     1       1.747   2.581  21.008  0.00  0.00    +0.000 C 
BRANCH  15  17
ATOM     16  C   UNL     1       0.698   2.341  18.768  0.00  0.00    +0.000 C 
ATOM     17  C   UNL     1       1.994   2.223  19.551  0.00  0.00    +0.000 C 
ENDBRANCH  15  17
ENDBRANCH  14  15
ENDBRANCH  13  14
ENDBRANCH  10  13
ENDBRANCH   8  10
ENDBRANCH   7   9
ENDBRANCH   1   7
BRANCH   1  18
ATOM     18  C   UNL     1       6.486   5.585  17.391  0.00  0.00    +0.000 C 
BRANCH  18  19
ATOM     19  C   UNL     1       6.656   7.107  17.392  0.00  0.00    +0.000 C 
BRANCH  19  20
ATOM     20  C   UNL     1       7.952   7.669  17.974  0.00  0.00    +0.000 C 
BRANCH  20  21
ATOM     21  C   UNL     1       8.078   9.180  17.798  0.00  0.00    +0.000 C 
BRANCH  21  22
ATOM     22  C   UNL     1       9.082   9.804  18.769  0.00  0.00    +0.000 C 
BRANCH  22  23
ATOM     23  C   UNL     1       9.012  11.331  18.839  0.00  0.00    +0.000 C 
BRANCH  23  24
ATOM     24  C   UNL     1      10.001  11.947  17.874  0.00  0.00    +0.000 C 
ATOM     25  O   UNL     1      11.117  11.531  17.647  0.00  0.00    +0.000 OA
BRANCH  24  26
ATOM     26  O   UNL     1       9.500  13.043  17.249  0.00  0.00    +0.000 OA
ATOM     27  H   UNL     1       9.822  13.884  17.625  0.00  0.00    +0.000 HD
ENDBRANCH  24  26
ENDBRANCH  23  24
ENDBRANCH  22  23
ENDBRANCH  21  22
ENDBRANCH  20  21
ENDBRANCH  19  20
ENDBRANCH  18  19
ENDBRANCH   1  18
TORSDOF 16
ENDMDL
MODEL 8
REMARK VINA RESULT:      -6.1      2.462      7.110
REMARK  Name = 
REMARK  17 active torsions:
REMARK  status: ('A' for Active; 'I' for Inactive)
REMARK    1  A    between atoms: C_1  and  C_2
REMARK    2  A    between atoms: C_2  and  C_3
REMARK    3  A    between atoms: C_3  and  C_4
REMARK    4  A    between atoms: C_4  and  C_5
REMARK    5  A    between atoms: C_5  and  C_6
REMARK    6  A    between atoms: C_6  and  O_7
REMARK    7  A    between atoms: C_6  and  C_8
REMARK    8  A    between atoms: C_9  and  C_10
REMARK    9  A    between atoms: C_10  and  N_11
REMARK   10  A    between atoms: N_11  and  C_12
REMARK   11  A    between atoms: C_12  and  C_13
REMARK   12  A    between atoms: C_13  and  C_14
REMARK   13  A    between atoms: C_14  and  C_15
REMARK   14  A    between atoms: C_15  and  C_16
REMARK   15  A    between atoms: C_16  and  C_17
REMARK   16  A    between atoms: C_17  and  C_18
REMARK   17  A    between atoms: C_18  and  O_20
REMARK                            x       y       z     vdW  Elec       q    Type
REMARK                         _______ _______ _______ _____ _____    ______ ____
ROOT
ATOM      1  N   UNL     1       6.526   5.634  17.446  0.00  0.00    +0.000 N 
ATOM      2  C   UNL     1       7.562   5.243  18.280  0.00  0.00    +0.000 C 
ATOM      3  N   UNL     1       7.848   6.033  19.335  0.00  0.00    +0.000 N 
ATOM      4  O   UNL     1       8.221   4.219  18.123  0.00  0.00    +0.000 OA
ATOM      5  H   UNL     1       7.393   6.903  19.546  0.00  0.00    +0.000 HD
ATOM      6  H   UNL     1       8.624   5.744  19.914  0.00  0.00    +0.000 HD
ENDROOT
BRANCH   1   7
ATOM      7  C   UNL     1       5.637   6.755  17.739  0.00  0.00    +0.000 C 
BRANCH   7   9
ATOM      8  C   UNL     1       4.041   5.576  19.461  0.00  0.00    +0.000 C 
ATOM      9  C   UNL     1       4.357   6.407  18.452  0.00  0.00    +0.000 C 
BRANCH   8  10
ATOM     10  C   UNL     1       2.606   5.539  19.945  0.00  0.00    +0.000 C 
BRANCH  10  11
ATOM     11  O   UNL     1       2.240   6.851  20.370  0.00  0.00    +0.000 OA
ATOM     12  H   UNL     1       2.890   7.127  21.037  0.00  0.00    +0.000 HD
ENDBRANCH  10  11
BRANCH  10  13
ATOM     13  C   UNL     1       2.402   4.560  21.089  0.00  0.00    +0.000 C 
BRANCH  13  14
ATOM     14  C   UNL     1       1.940   3.189  20.591  0.00  0.00    +0.000 C 
BRANCH  14  15
ATOM     15  C   UNL     1       1.241   3.371  19.252  0.00  0.00    +0.000 C 
BRANCH  15  17
ATOM     16  C   UNL     1       2.666   3.102  17.234  0.00  0.00    +0.000 C 
ATOM     17  C   UNL     1       1.741   2.388  18.204  0.00  0.00    +0.000 C 
ENDBRANCH  15  17
ENDBRANCH  14  15
ENDBRANCH  13  14
ENDBRANCH  10  13
ENDBRANCH   8  10
ENDBRANCH   7   9
ENDBRANCH   1   7
BRANCH   1  18
ATOM     18  C   UNL     1       6.225   4.657  16.387  0.00  0.00    +0.000 C 
BRANCH  18  19
ATOM     19  C   UNL     1       5.413   5.053  15.150  0.00  0.00    +0.000 C 
BRANCH  19  20
ATOM     20  C   UNL     1       5.184   3.981  14.087  0.00  0.00    +0.000 C 
BRANCH  20  21
ATOM     21  C   UNL     1       6.429   3.697  13.249  0.00  0.00    +0.000 C 
BRANCH  21  22
ATOM     22  C   UNL     1       6.106   3.471  11.771  0.00  0.00    +0.000 C 
BRANCH  22  23
ATOM     23  C   UNL     1       5.382   2.153  11.487  0.00  0.00    +0.000 C 
BRANCH  23  24
ATOM     24  C   UNL     1       6.382   1.063  11.172  0.00  0.00    +0.000 C 
ATOM     25  O   UNL     1       6.117  -0.107  10.993  0.00  0.00    +0.000 OA
BRANCH  24  26
ATOM     26  O   UNL     1       7.652   1.534  11.088  0.00  0.00    +0.000 OA
ATOM     27  H   UNL     1       8.133   1.504  11.937  0.00  0.00    +0.000 HD
ENDBRANCH  24  26
ENDBRANCH  23  24
ENDBRANCH  22  23
ENDBRANCH  21  22
ENDBRANCH  20  21
ENDBRANCH  19  20
ENDBRANCH  18  19
ENDBRANCH   1  18
TORSDOF 16
ENDMDL
MODEL 9
REMARK VINA RESULT:      -6.1      2.266      3.894
REMARK  Name = 
REMARK  17 active torsions:
REMARK  status: ('A' for Active; 'I' for Inactive)
REMARK    1  A    between atoms: C_1  and  C_2
REMARK    2  A    between atoms: C_2  and  C_3
REMARK    3  A    between atoms: C_3  and  C_4
REMARK    4  A    between atoms: C_4  and  C_5
REMARK    5  A    between atoms: C_5  and  C_6
REMARK    6  A    between atoms: C_6  and  O_7
REMARK    7  A    between atoms: C_6  and  C_8
REMARK    8  A    between atoms: C_9  and  C_10
REMARK    9  A    between atoms: C_10  and  N_11
REMARK   10  A    between atoms: N_11  and  C_12
REMARK   11  A    between atoms: C_12  and  C_13
REMARK   12  A    between atoms: C_13  and  C_14
REMARK   13  A    between atoms: C_14  and  C_15
REMARK   14  A    between atoms: C_15  and  C_16
REMARK   15  A    between atoms: C_16  and  C_17
REMARK   16  A    between atoms: C_17  and  C_18
REMARK   17  A    between atoms: C_18  and  O_20
REMARK                            x       y       z     vdW  Elec       q    Type
REMARK                         _______ _______ _______ _____ _____    ______ ____
ROOT
ATOM      1  N   UNL     1       2.323   6.632  19.174  0.00  0.00    +0.000 N 
ATOM      2  C   UNL     1       2.123   8.000  19.075  0.00  0.00    +0.000 C 
ATOM      3  N   UNL     1       2.489   8.604  17.925  0.00  0.00    +0.000 N 
ATOM      4  O   UNL     1       1.624   8.688  19.962  0.00  0.00    +0.000 OA
ATOM      5  H   UNL     1       2.929   8.147  17.147  0.00  0.00    +0.000 HD
ATOM      6  H   UNL     1       2.361   9.605  17.885  0.00  0.00    +0.000 HD
ENDROOT
BRANCH   1   7
ATOM      7  C   UNL     1       2.752   5.798  18.054  0.00  0.00    +0.000 C 
BRANCH   7   9
ATOM      8  C   UNL     1       5.287   5.506  18.678  0.00  0.00    +0.000 C 
ATOM      9  C   UNL     1       4.240   5.684  17.854  0.00  0.00    +0.000 C 
BRANCH   8  10
ATOM     10  C   UNL     1       6.671   5.390  18.075  0.00  0.00    +0.000 C 
BRANCH  10  11
ATOM     11  O   UNL     1       7.553   6.243  18.805  0.00  0.00    +0.000 OA
ATOM     12  H   UNL     1       6.999   6.850  19.323  0.00  0.00    +0.000 HD
ENDBRANCH  10  11
BRANCH  10  13
ATOM     13  C   UNL     1       6.700   5.771  16.605  0.00  0.00    +0.000 C 
BRANCH  13  14
ATOM     14  C   UNL     1       7.056   4.578  15.714  0.00  0.00    +0.000 C 
BRANCH  14  15
ATOM     15  C   UNL     1       5.961   4.410  14.671  0.00  0.00    +0.000 C 
BRANCH  15  17
ATOM     16  C   UNL     1       5.456   3.377  12.468  0.00  0.00    +0.000 C 
ATOM     17  C   UNL     1       6.521   4.071  13.298  0.00  0.00    +0.000 C 
ENDBRANCH  15  17
ENDBRANCH  14  15
ENDBRANCH  13  14
ENDBRANCH  10  13
ENDBRANCH   8  10
ENDBRANCH   7   9
ENDBRANCH   1   7
BRANCH   1  18
ATOM     18  C   UNL     1       1.799   6.052  20.421  0.00  0.00    +0.000 C 
BRANCH  18  19
ATOM     19  C   UNL     1       2.413   4.786  21.026  0.00  0.00    +0.000 C 
BRANCH  19  20
ATOM     20  C   UNL     1       1.524   3.546  21.113  0.00  0.00    +0.000 C 
BRANCH  20  21
ATOM     21  C   UNL     1       0.663   3.341  19.868  0.00  0.00    +0.000 C 
BRANCH  21  22
ATOM     22  C   UNL     1       1.391   2.564  18.770  0.00  0.00    +0.000 C 
BRANCH  22  23
ATOM     23  C   UNL     1       2.500   1.646  19.289  0.00  0.00    +0.000 C 
BRANCH  23  24
ATOM     24  C   UNL     1       3.836   2.059  18.712  0.00  0.00    +0.000 C 
ATOM     25  O   UNL     1       4.053   2.312  17.546  0.00  0.00    +0.000 OA
BRANCH  24  26
ATOM     26  O   UNL     1       4.806   2.138  19.659  0.00  0.00    +0.000 OA
ATOM     27  H   UNL     1       4.875   3.022  20.068  0.00  0.00    +0.000 HD
ENDBRANCH  24  26
ENDBRANCH  23  24
ENDBRANCH  22  23
ENDBRANCH  21  22
ENDBRANCH  20  21
ENDBRANCH  19  20
ENDBRANCH  18  19
ENDBRANCH   1  18
TORSDOF 16
ENDMDL
