MODEL 1
REMARK VINA RESULT:      -9.4      0.000      0.000
REMARK  Name = 
REMARK  6 active torsions:
REMARK  status: ('A' for Active; 'I' for Inactive)
REMARK    1  A    between atoms: C_1  and  N_2
REMARK    2  A    between atoms: C_4  and  C_5
REMARK    3  A    between atoms: C_7  and  C_8
REMARK    4  A    between atoms: C_14  and  C_15
REMARK    5  A    between atoms: C_15  and  C_16
REMARK    6  A    between atoms: C_20  and  C_21
REMARK                            x       y       z     vdW  Elec       q    Type
REMARK                         _______ _______ _______ _____ _____    ______ ____
ROOT
ATOM      1  C   UNL     1       3.524   5.505  18.384  0.00  0.00    +0.000 A 
ATOM      2  C   UNL     1       3.544   4.310  19.114  0.00  0.00    +0.000 A 
ATOM      3  C   UNL     1       2.846   4.249  20.304  0.00  0.00    +0.000 A 
ATOM      4  N   UNL     1       2.140   5.283  20.826  0.00  0.00    +0.000 NA
ATOM      5  C   UNL     1       2.121   6.437  20.137  0.00  0.00    +0.000 A 
ATOM      6  C   UNL     1       1.388   7.497  20.669  0.00  0.00    +0.000 A 
ATOM      7  C   UNL     1       1.296   8.745  20.031  0.00  0.00    +0.000 A 
ATOM      8  C   UNL     1       1.946   8.919  18.816  0.00  0.00    +0.000 A 
ATOM      9  C   UNL     1       2.661   7.867  18.251  0.00  0.00    +0.000 A 
ATOM     10  C   UNL     1       2.790   6.613  18.899  0.00  0.00    +0.000 A 
ENDROOT
BRANCH   1  14
ATOM     11  C   UNL     1       6.015   4.122  14.305  0.00  0.00    +0.000 C 
ATOM     12  N   UNL     1       5.364   4.907  15.325  0.00  0.00    +0.000 N 
ATOM     13  C   UNL     1       4.627   4.447  16.378  0.00  0.00    +0.000 A 
ATOM     14  C   UNL     1       4.284   5.553  17.135  0.00  0.00    +0.000 A 
ATOM     15  C   UNL     1       4.888   6.626  16.435  0.00  0.00    +0.000 A 
ATOM     16  N   UNL     1       5.511   6.241  15.320  0.00  0.00    +0.000 NA
ENDBRANCH   1  14
BRANCH   3  17
ATOM     17  C   UNL     1       2.858   2.967  21.086  0.00  0.00    +0.000 C 
ATOM     18  N   UNL     1       3.865   2.093  20.779  0.00  0.00    +0.000 N 
ATOM     19  O   UNL     1       2.029   2.709  21.947  0.00  0.00    +0.000 OA
ATOM     20  H   UNL     1       4.537   2.332  20.058  0.00  0.00    +0.000 HD
ATOM     21  H   UNL     1       3.921   1.212  21.265  0.00  0.00    +0.000 HD
ENDBRANCH   3  17
BRANCH   7  22
ATOM     22  C   UNL     1       0.435   9.860  20.583  0.00  0.00    +0.000 C 
BRANCH  22  23
ATOM     23  C   UNL     1      -0.302  10.605  19.490  0.00  0.00    +0.000 A 
ATOM     24  C   UNL     1       0.007  11.935  19.226  0.00  0.00    +0.000 A 
ATOM     25  C   UNL     1      -0.753  12.627  18.291  0.00  0.00    +0.000 A 
ATOM     26  C   UNL     1      -1.799  11.979  17.644  0.00  0.00    +0.000 A 
ATOM     27  C   UNL     1      -2.052  10.637  17.934  0.00  0.00    +0.000 A 
ATOM     28  N   UNL     1      -1.307   9.952  18.851  0.00  0.00    +0.000 NA
BRANCH  27  29
ATOM     29  C   UNL     1      -3.185   9.913  17.214  0.00  0.00    +0.000 C 
ATOM     30  F   UNL     1      -3.723   8.890  17.947  0.00  0.00    +0.000 F 
ATOM     31  F   UNL     1      -4.237  10.729  16.915  0.00  0.00    +0.000 F 
ATOM     32  F   UNL     1      -2.800   9.346  16.035  0.00  0.00    +0.000 F 
ENDBRANCH  27  29
ENDBRANCH  22  23
ENDBRANCH   7  22
TORSDOF 5
ENDMDL
MODEL 2
REMARK VINA RESULT:      -9.1      4.095      8.071
REMARK  Name = 
REMARK  6 active torsions:
REMARK  status: ('A' for Active; 'I' for Inactive)
REMARK    1  A    between atoms: C_1  and  N_2
REMARK    2  A    between atoms: C_4  and  C_5
REMARK    3  A    between atoms: C_7  and  C_8
REMARK    4  A    between atoms: C_14  and  C_15
REMARK    5  A    between atoms: C_15  and  C_16
REMARK    6  A    between atoms: C_20  and  C_21
REMARK                            x       y       z     vdW  Elec       q    Type
REMARK                         _______ _______ _______ _____ _____    ______ ____
ROOT
ATOM      1  C   UNL     1       2.388   6.386  18.504  0.00  0.00    +0.000 A 
ATOM      2  C   UNL     1       1.525   5.424  19.043  0.00  0.00    +0.000 A 
ATOM      3  C   UNL     1       1.852   4.089  18.906  0.00  0.00    +0.000 A 
ATOM      4  N   UNL     1       2.962   3.639  18.269  0.00  0.00    +0.000 NA
ATOM      5  C   UNL     1       3.793   4.554  17.741  0.00  0.00    +0.000 A 
ATOM      6  C   UNL     1       4.938   4.093  17.093  0.00  0.00    +0.000 A 
ATOM      7  C   UNL     1       5.876   4.960  16.510  0.00  0.00    +0.000 A 
ATOM      8  C   UNL     1       5.660   6.329  16.600  0.00  0.00    +0.000 A 
ATOM      9  C   UNL     1       4.538   6.815  17.266  0.00  0.00    +0.000 A 
ATOM     10  C   UNL     1       3.567   5.951  17.830  0.00  0.00    +0.000 A 
ENDROOT
BRANCH   1  14
ATOM     11  C   UNL     1       0.761  10.678  20.423  0.00  0.00    +0.000 C 
ATOM     12  N   UNL     1       1.307   9.683  19.534  0.00  0.00    +0.000 N 
ATOM     13  C   UNL     1       1.604   8.383  19.829  0.00  0.00    +0.000 A 
ATOM     14  C   UNL     1       2.014   7.793  18.647  0.00  0.00    +0.000 A 
ATOM     15  C   UNL     1       1.909   8.845  17.704  0.00  0.00    +0.000 A 
ATOM     16  N   UNL     1       1.516   9.998  18.246  0.00  0.00    +0.000 NA
ENDBRANCH   1  14
BRANCH   3  17
ATOM     17  C   UNL     1       0.933   3.055  19.490  0.00  0.00    +0.000 C 
ATOM     18  N   UNL     1       0.863   3.024  20.855  0.00  0.00    +0.000 N 
ATOM     19  O   UNL     1       0.281   2.284  18.799  0.00  0.00    +0.000 OA
ATOM     20  H   UNL     1       1.418   3.674  21.403  0.00  0.00    +0.000 HD
ATOM     21  H   UNL     1       0.269   2.346  21.306  0.00  0.00    +0.000 HD
ENDBRANCH   3  17
BRANCH   7  22
ATOM     22  C   UNL     1       7.151   4.445  15.878  0.00  0.00    +0.000 C 
BRANCH  22  23
ATOM     23  C   UNL     1       7.090   4.480  14.366  0.00  0.00    +0.000 A 
ATOM     24  C   UNL     1       7.987   5.267  13.651  0.00  0.00    +0.000 A 
ATOM     25  C   UNL     1       7.846   5.363  12.273  0.00  0.00    +0.000 A 
ATOM     26  C   UNL     1       6.816   4.675  11.641  0.00  0.00    +0.000 A 
ATOM     27  C   UNL     1       5.955   3.885  12.405  0.00  0.00    +0.000 A 
ATOM     28  N   UNL     1       6.092   3.785  13.760  0.00  0.00    +0.000 NA
BRANCH  27  29
ATOM     29  C   UNL     1       4.835   3.111  11.717  0.00  0.00    +0.000 C 
ATOM     30  F   UNL     1       3.708   2.998  12.485  0.00  0.00    +0.000 F 
ATOM     31  F   UNL     1       4.419   3.692  10.555  0.00  0.00    +0.000 F 
ATOM     32  F   UNL     1       5.181   1.831  11.397  0.00  0.00    +0.000 F 
ENDBRANCH  27  29
ENDBRANCH  22  23
ENDBRANCH   7  22
TORSDOF 5
ENDMDL
MODEL 3
REMARK VINA RESULT:      -9.0      3.869      7.949
REMARK  Name = 
REMARK  6 active torsions:
REMARK  status: ('A' for Active; 'I' for Inactive)
REMARK    1  A    between atoms: C_1  and  N_2
REMARK    2  A    between atoms: C_4  and  C_5
REMARK    3  A    between atoms: C_7  and  C_8
REMARK    4  A    between atoms: C_14  and  C_15
REMARK    5  A    between atoms: C_15  and  C_16
REMARK    6  A    between atoms: C_20  and  C_21
REMARK                            x       y       z     vdW  Elec       q    Type
REMARK                         _______ _______ _______ _____ _____    ______ ____
ROOT
ATOM      1  C   UNL     1       2.753   6.511  18.989  0.00  0.00    +0.000 A 
ATOM      2  C   UNL     1       2.130   5.690  19.936  0.00  0.00    +0.000 A 
ATOM      3  C   UNL     1       2.606   4.406  20.117  0.00  0.00    +0.000 A 
ATOM      4  N   UNL     1       3.645   3.876  19.425  0.00  0.00    +0.000 NA
ATOM      5  C   UNL     1       4.245   4.653  18.508  0.00  0.00    +0.000 A 
ATOM      6  C   UNL     1       5.319   4.110  17.802  0.00  0.00    +0.000 A 
ATOM      7  C   UNL     1       6.022   4.834  16.825  0.00  0.00    +0.000 A 
ATOM      8  C   UNL     1       5.641   6.145  16.568  0.00  0.00    +0.000 A 
ATOM      9  C   UNL     1       4.591   6.717  17.279  0.00  0.00    +0.000 A 
ATOM     10  C   UNL     1       3.852   5.989  18.244  0.00  0.00    +0.000 A 
ENDROOT
BRANCH   1  14
ATOM     11  C   UNL     1       0.386  10.816  19.777  0.00  0.00    +0.000 C 
ATOM     12  N   UNL     1       1.182   9.765  19.191  0.00  0.00    +0.000 N 
ATOM     13  C   UNL     1       1.547   8.583  19.769  0.00  0.00    +0.000 A 
ATOM     14  C   UNL     1       2.222   7.861  18.802  0.00  0.00    +0.000 A 
ATOM     15  C   UNL     1       2.188   8.717  17.674  0.00  0.00    +0.000 A 
ATOM     16  N   UNL     1       1.590   9.883  17.918  0.00  0.00    +0.000 NA
ENDBRANCH   1  14
BRANCH   3  17
ATOM     17  C   UNL     1       1.945   3.526  21.138  0.00  0.00    +0.000 C 
ATOM     18  N   UNL     1       0.746   2.982  20.767  0.00  0.00    +0.000 N 
ATOM     19  O   UNL     1       2.438   3.298  22.234  0.00  0.00    +0.000 OA
ATOM     20  H   UNL     1       0.359   3.191  19.853  0.00  0.00    +0.000 HD
ATOM     21  H   UNL     1       0.250   2.388  21.413  0.00  0.00    +0.000 HD
ENDBRANCH   3  17
BRANCH   7  22
ATOM     22  C   UNL     1       7.232   4.256  16.123  0.00  0.00    +0.000 C 
BRANCH  22  23
ATOM     23  C   UNL     1       7.144   4.410  14.619  0.00  0.00    +0.000 A 
ATOM     24  C   UNL     1       8.004   5.280  13.957  0.00  0.00    +0.000 A 
ATOM     25  C   UNL     1       7.836   5.481  12.594  0.00  0.00    +0.000 A 
ATOM     26  C   UNL     1       6.816   4.813  11.924  0.00  0.00    +0.000 A 
ATOM     27  C   UNL     1       5.994   3.937  12.634  0.00  0.00    +0.000 A 
ATOM     28  N   UNL     1       6.157   3.734  13.975  0.00  0.00    +0.000 NA
BRANCH  27  29
ATOM     29  C   UNL     1       4.887   3.185  11.902  0.00  0.00    +0.000 C 
ATOM     30  F   UNL     1       3.760   3.013  12.660  0.00  0.00    +0.000 F 
ATOM     31  F   UNL     1       4.464   3.822  10.773  0.00  0.00    +0.000 F 
ATOM     32  F   UNL     1       5.252   1.929  11.515  0.00  0.00    +0.000 F 
ENDBRANCH  27  29
ENDBRANCH  22  23
ENDBRANCH   7  22
TORSDOF 5
ENDMDL
MODEL 4
REMARK VINA RESULT:      -8.8      2.449      3.144
REMARK  Name = 
REMARK  6 active torsions:
REMARK  status: ('A' for Active; 'I' for Inactive)
REMARK    1  A    between atoms: C_1  and  N_2
REMARK    2  A    between atoms: C_4  and  C_5
REMARK    3  A    between atoms: C_7  and  C_8
REMARK    4  A    between atoms: C_14  and  C_15
REMARK    5  A    between atoms: C_15  and  C_16
REMARK    6  A    between atoms: C_20  and  C_21
REMARK                            x       y       z     vdW  Elec       q    Type
REMARK                         _______ _______ _______ _____ _____    ______ ____
ROOT
ATOM      1  C   UNL     1       3.957   4.967  18.545  0.00  0.00    +0.000 A 
ATOM      2  C   UNL     1       3.657   3.915  19.418  0.00  0.00    +0.000 A 
ATOM      3  C   UNL     1       2.683   4.106  20.377  0.00  0.00    +0.000 A 
ATOM      4  N   UNL     1       1.992   5.263  20.540  0.00  0.00    +0.000 NA
ATOM      5  C   UNL     1       2.278   6.282  19.712  0.00  0.00    +0.000 A 
ATOM      6  C   UNL     1       1.563   7.468  19.875  0.00  0.00    +0.000 A 
ATOM      7  C   UNL     1       1.776   8.595  19.062  0.00  0.00    +0.000 A 
ATOM      8  C   UNL     1       2.724   8.513  18.050  0.00  0.00    +0.000 A 
ATOM      9  C   UNL     1       3.431   7.331  17.852  0.00  0.00    +0.000 A 
ATOM     10  C   UNL     1       3.250   6.198  18.683  0.00  0.00    +0.000 A 
ENDROOT
BRANCH   1  14
ATOM     11  C   UNL     1       6.277   3.832  14.292  0.00  0.00    +0.000 C 
ATOM     12  N   UNL     1       5.999   4.259  15.642  0.00  0.00    +0.000 N 
ATOM     13  C   UNL     1       4.774   4.418  16.224  0.00  0.00    +0.000 A 
ATOM     14  C   UNL     1       5.004   4.749  17.547  0.00  0.00    +0.000 A 
ATOM     15  C   UNL     1       6.417   4.747  17.642  0.00  0.00    +0.000 A 
ATOM     16  N   UNL     1       7.021   4.486  16.482  0.00  0.00    +0.000 NA
ENDBRANCH   1  14
BRANCH   3  17
ATOM     17  C   UNL     1       2.353   2.977  21.310  0.00  0.00    +0.000 C 
ATOM     18  N   UNL     1       1.021   2.709  21.472  0.00  0.00    +0.000 N 
ATOM     19  O   UNL     1       3.210   2.327  21.892  0.00  0.00    +0.000 OA
ATOM     20  H   UNL     1       0.332   3.267  20.979  0.00  0.00    +0.000 HD
ATOM     21  H   UNL     1       0.737   1.968  22.092  0.00  0.00    +0.000 HD
ENDBRANCH   3  17
BRANCH   7  22
ATOM     22  C   UNL     1       0.939   9.847  19.202  0.00  0.00    +0.000 C 
BRANCH  22  23
ATOM     23  C   UNL     1       0.461  10.056  20.624  0.00  0.00    +0.000 A 
ATOM     24  C   UNL     1       0.963   9.263  21.650  0.00  0.00    +0.000 A 
ATOM     25  C   UNL     1       0.435   9.403  22.927  0.00  0.00    +0.000 A 
ATOM     26  C   UNL     1      -0.580  10.328  23.149  0.00  0.00    +0.000 A 
ATOM     27  C   UNL     1      -1.033  11.112  22.087  0.00  0.00    +0.000 A 
ATOM     28  N   UNL     1      -0.514  10.978  20.830  0.00  0.00    +0.000 NA
BRANCH  27  29
ATOM     29  C   UNL     1      -2.131  12.142  22.328  0.00  0.00    +0.000 C 
ATOM     30  F   UNL     1      -2.993  11.787  23.330  0.00  0.00    +0.000 F 
ATOM     31  F   UNL     1      -1.648  13.365  22.689  0.00  0.00    +0.000 F 
ATOM     32  F   UNL     1      -2.920  12.355  21.235  0.00  0.00    +0.000 F 
ENDBRANCH  27  29
ENDBRANCH  22  23
ENDBRANCH   7  22
TORSDOF 5
ENDMDL
MODEL 5
REMARK VINA RESULT:      -8.8      2.523      3.296
REMARK  Name = 
REMARK  6 active torsions:
REMARK  status: ('A' for Active; 'I' for Inactive)
REMARK    1  A    between atoms: C_1  and  N_2
REMARK    2  A    between atoms: C_4  and  C_5
REMARK    3  A    between atoms: C_7  and  C_8
REMARK    4  A    between atoms: C_14  and  C_15
REMARK    5  A    between atoms: C_15  and  C_16
REMARK    6  A    between atoms: C_20  and  C_21
REMARK                            x       y       z     vdW  Elec       q    Type
REMARK                         _______ _______ _______ _____ _____    ______ ____
ROOT
ATOM      1  C   UNL     1       4.547   5.267  17.864  0.00  0.00    +0.000 A 
ATOM      2  C   UNL     1       4.502   4.131  18.681  0.00  0.00    +0.000 A 
ATOM      3  C   UNL     1       3.594   4.098  19.720  0.00  0.00    +0.000 A 
ATOM      4  N   UNL     1       2.736   5.107  20.014  0.00  0.00    +0.000 NA
ATOM      5  C   UNL     1       2.777   6.206  19.241  0.00  0.00    +0.000 A 
ATOM      6  C   UNL     1       1.890   7.240  19.538  0.00  0.00    +0.000 A 
ATOM      7  C   UNL     1       1.843   8.430  18.793  0.00  0.00    +0.000 A 
ATOM      8  C   UNL     1       2.702   8.570  17.711  0.00  0.00    +0.000 A 
ATOM      9  C   UNL     1       3.577   7.540  17.378  0.00  0.00    +0.000 A 
ATOM     10  C   UNL     1       3.658   6.348  18.139  0.00  0.00    +0.000 A 
ENDROOT
BRANCH   1  14
ATOM     11  C   UNL     1       6.852   4.351  13.551  0.00  0.00    +0.000 C 
ATOM     12  N   UNL     1       6.512   4.878  14.850  0.00  0.00    +0.000 N 
ATOM     13  C   UNL     1       5.366   4.657  15.559  0.00  0.00    +0.000 A 
ATOM     14  C   UNL     1       5.528   5.288  16.779  0.00  0.00    +0.000 A 
ATOM     15  C   UNL     1       6.826   5.847  16.687  0.00  0.00    +0.000 A 
ATOM     16  N   UNL     1       7.409   5.630  15.507  0.00  0.00    +0.000 NA
ENDBRANCH   1  14
BRANCH   3  17
ATOM     17  C   UNL     1       3.537   2.878  20.594  0.00  0.00    +0.000 C 
ATOM     18  N   UNL     1       4.601   2.025  20.494  0.00  0.00    +0.000 N 
ATOM     19  O   UNL     1       2.605   2.650  21.353  0.00  0.00    +0.000 OA
ATOM     20  H   UNL     1       5.359   2.237  19.853  0.00  0.00    +0.000 HD
ATOM     21  H   UNL     1       4.617   1.184  21.050  0.00  0.00    +0.000 HD
ENDBRANCH   3  17
BRANCH   7  22
ATOM     22  C   UNL     1       0.823   9.510  19.081  0.00  0.00    +0.000 C 
BRANCH  22  23
ATOM     23  C   UNL     1       0.575   9.677  20.566  0.00  0.00    +0.000 A 
ATOM     24  C   UNL     1       1.198   8.828  21.475  0.00  0.00    +0.000 A 
ATOM     25  C   UNL     1       0.875   8.932  22.821  0.00  0.00    +0.000 A 
ATOM     26  C   UNL     1      -0.060   9.879  23.229  0.00  0.00    +0.000 A 
ATOM     27  C   UNL     1      -0.640  10.718  22.276  0.00  0.00    +0.000 A 
ATOM     28  N   UNL     1      -0.323  10.619  20.951  0.00  0.00    +0.000 NA
BRANCH  27  29
ATOM     29  C   UNL     1      -1.651  11.771  22.718  0.00  0.00    +0.000 C 
ATOM     30  F   UNL     1      -2.558  11.300  23.629  0.00  0.00    +0.000 F 
ATOM     31  F   UNL     1      -1.071  12.851  23.318  0.00  0.00    +0.000 F 
ATOM     32  F   UNL     1      -2.399  12.266  21.690  0.00  0.00    +0.000 F 
ENDBRANCH  27  29
ENDBRANCH  22  23
ENDBRANCH   7  22
TORSDOF 5
ENDMDL
MODEL 6
REMARK VINA RESULT:      -8.6      2.462      2.858
REMARK  Name = 
REMARK  6 active torsions:
REMARK  status: ('A' for Active; 'I' for Inactive)
REMARK    1  A    between atoms: C_1  and  N_2
REMARK    2  A    between atoms: C_4  and  C_5
REMARK    3  A    between atoms: C_7  and  C_8
REMARK    4  A    between atoms: C_14  and  C_15
REMARK    5  A    between atoms: C_15  and  C_16
REMARK    6  A    between atoms: C_20  and  C_21
REMARK                            x       y       z     vdW  Elec       q    Type
REMARK                         _______ _______ _______ _____ _____    ______ ____
ROOT
ATOM      1  C   UNL     1       3.403   5.530  18.619  0.00  0.00    +0.000 A 
ATOM      2  C   UNL     1       3.459   4.313  19.308  0.00  0.00    +0.000 A 
ATOM      3  C   UNL     1       2.757   4.189  20.491  0.00  0.00    +0.000 A 
ATOM      4  N   UNL     1       2.014   5.181  21.043  0.00  0.00    +0.000 NA
ATOM      5  C   UNL     1       1.961   6.356  20.393  0.00  0.00    +0.000 A 
ATOM      6  C   UNL     1       1.191   7.373  20.956  0.00  0.00    +0.000 A 
ATOM      7  C   UNL     1       1.060   8.638  20.359  0.00  0.00    +0.000 A 
ATOM      8  C   UNL     1       1.710   8.874  19.155  0.00  0.00    +0.000 A 
ATOM      9  C   UNL     1       2.462   7.866  18.560  0.00  0.00    +0.000 A 
ATOM     10  C   UNL     1       2.629   6.595  19.165  0.00  0.00    +0.000 A 
ENDROOT
BRANCH   1  14
ATOM     11  C   UNL     1       5.925   4.369  14.489  0.00  0.00    +0.000 C 
ATOM     12  N   UNL     1       5.260   5.097  15.543  0.00  0.00    +0.000 N 
ATOM     13  C   UNL     1       4.524   4.580  16.570  0.00  0.00    +0.000 A 
ATOM     14  C   UNL     1       4.167   5.646  17.376  0.00  0.00    +0.000 A 
ATOM     15  C   UNL     1       4.761   6.757  16.730  0.00  0.00    +0.000 A 
ATOM     16  N   UNL     1       5.393   6.432  15.601  0.00  0.00    +0.000 NA
ENDBRANCH   1  14
BRANCH   3  17
ATOM     17  C   UNL     1       2.808   2.883  21.229  0.00  0.00    +0.000 C 
ATOM     18  N   UNL     1       1.671   2.538  21.907  0.00  0.00    +0.000 N 
ATOM     19  O   UNL     1       3.796   2.161  21.231  0.00  0.00    +0.000 OA
ATOM     20  H   UNL     1       0.868   3.157  21.891  0.00  0.00    +0.000 HD
ATOM     21  H   UNL     1       1.647   1.676  22.429  0.00  0.00    +0.000 HD
ENDBRANCH   3  17
BRANCH   7  22
ATOM     22  C   UNL     1       0.160   9.704  20.944  0.00  0.00    +0.000 C 
BRANCH  22  23
ATOM     23  C   UNL     1      -0.210  10.759  19.922  0.00  0.00    +0.000 A 
ATOM     24  C   UNL     1      -1.260  10.534  19.038  0.00  0.00    +0.000 A 
ATOM     25  C   UNL     1      -1.513  11.469  18.044  0.00  0.00    +0.000 A 
ATOM     26  C   UNL     1      -0.716  12.606  17.955  0.00  0.00    +0.000 A 
ATOM     27  C   UNL     1       0.313  12.791  18.880  0.00  0.00    +0.000 A 
ATOM     28  N   UNL     1       0.564  11.873  19.861  0.00  0.00    +0.000 NA
BRANCH  27  29
ATOM     29  C   UNL     1       1.179  14.044  18.801  0.00  0.00    +0.000 C 
ATOM     30  F   UNL     1       1.805  14.342  19.981  0.00  0.00    +0.000 F 
ATOM     31  F   UNL     1       2.181  13.944  17.881  0.00  0.00    +0.000 F 
ATOM     32  F   UNL     1       0.476  15.166  18.475  0.00  0.00    +0.000 F 
ENDBRANCH  27  29
ENDBRANCH  22  23
ENDBRANCH   7  22
TORSDOF 5
ENDMDL
MODEL 7
REMARK VINA RESULT:      -8.6      1.717      2.131
REMARK  Name = 
REMARK  6 active torsions:
REMARK  status: ('A' for Active; 'I' for Inactive)
REMARK    1  A    between atoms: C_1  and  N_2
REMARK    2  A    between atoms: C_4  and  C_5
REMARK    3  A    between atoms: C_7  and  C_8
REMARK    4  A    between atoms: C_14  and  C_15
REMARK    5  A    between atoms: C_15  and  C_16
REMARK    6  A    between atoms: C_20  and  C_21
REMARK                            x       y       z     vdW  Elec       q    Type
REMARK                         _______ _______ _______ _____ _____    ______ ____
ROOT
ATOM      1  C   UNL     1       3.303   5.914  18.339  0.00  0.00    +0.000 A 
ATOM      2  C   UNL     1       3.071   4.826  19.190  0.00  0.00    +0.000 A 
ATOM      3  C   UNL     1       2.224   4.996  20.266  0.00  0.00    +0.000 A 
ATOM      4  N   UNL     1       1.598   6.162  20.567  0.00  0.00    +0.000 NA
ATOM      5  C   UNL     1       1.821   7.214  19.761  0.00  0.00    +0.000 A 
ATOM      6  C   UNL     1       1.172   8.411  20.065  0.00  0.00    +0.000 A 
ATOM      7  C   UNL     1       1.327   9.571  19.289  0.00  0.00    +0.000 A 
ATOM      8  C   UNL     1       2.146   9.515  18.168  0.00  0.00    +0.000 A 
ATOM      9  C   UNL     1       2.783   8.325  17.829  0.00  0.00    +0.000 A 
ATOM     10  C   UNL     1       2.661   7.155  18.620  0.00  0.00    +0.000 A 
ENDROOT
BRANCH   1  14
ATOM     11  C   UNL     1       6.059   3.755  14.803  0.00  0.00    +0.000 C 
ATOM     12  N   UNL     1       5.410   4.731  15.645  0.00  0.00    +0.000 N 
ATOM     13  C   UNL     1       4.479   4.498  16.617  0.00  0.00    +0.000 A 
ATOM     14  C   UNL     1       4.218   5.717  17.214  0.00  0.00    +0.000 A 
ATOM     15  C   UNL     1       5.066   6.611  16.516  0.00  0.00    +0.000 A 
ATOM     16  N   UNL     1       5.762   6.022  15.543  0.00  0.00    +0.000 NA
ENDBRANCH   1  14
BRANCH   3  17
ATOM     17  C   UNL     1       1.966   3.829  21.176  0.00  0.00    +0.000 C 
ATOM     18  N   UNL     1       1.090   2.890  20.705  0.00  0.00    +0.000 N 
ATOM     19  O   UNL     1       2.501   3.712  22.270  0.00  0.00    +0.000 OA
ATOM     20  H   UNL     1       0.659   3.015  19.795  0.00  0.00    +0.000 HD
ATOM     21  H   UNL     1       0.871   2.087  21.274  0.00  0.00    +0.000 HD
ENDBRANCH   3  17
BRANCH   7  22
ATOM     22  C   UNL     1       0.557  10.838  19.588  0.00  0.00    +0.000 C 
BRANCH  22  23
ATOM     23  C   UNL     1      -0.851  10.793  19.032  0.00  0.00    +0.000 A 
ATOM     24  C   UNL     1      -1.132  10.018  17.913  0.00  0.00    +0.000 A 
ATOM     25  C   UNL     1      -2.404  10.074  17.360  0.00  0.00    +0.000 A 
ATOM     26  C   UNL     1      -3.364  10.900  17.935  0.00  0.00    +0.000 A 
ATOM     27  C   UNL     1      -3.033  11.643  19.069  0.00  0.00    +0.000 A 
ATOM     28  N   UNL     1      -1.783  11.589  19.617  0.00  0.00    +0.000 NA
BRANCH  27  29
ATOM     29  C   UNL     1      -4.086  12.537  19.716  0.00  0.00    +0.000 C 
ATOM     30  F   UNL     1      -4.994  13.036  18.821  0.00  0.00    +0.000 F 
ATOM     31  F   UNL     1      -4.831  11.890  20.658  0.00  0.00    +0.000 F 
ATOM     32  F   UNL     1      -3.558  13.630  20.338  0.00  0.00    +0.000 F 
ENDBRANCH  27  29
ENDBRANCH  22  23
ENDBRANCH   7  22
TORSDOF 5
ENDMDL
MODEL 8
REMARK VINA RESULT:      -8.5      4.143      7.919
REMARK  Name = 
REMARK  6 active torsions:
REMARK  status: ('A' for Active; 'I' for Inactive)
REMARK    1  A    between atoms: C_1  and  N_2
REMARK    2  A    between atoms: C_4  and  C_5
REMARK    3  A    between atoms: C_7  and  C_8
REMARK    4  A    between atoms: C_14  and  C_15
REMARK    5  A    between atoms: C_15  and  C_16
REMARK    6  A    between atoms: C_20  and  C_21
REMARK                            x       y       z     vdW  Elec       q    Type
REMARK                         _______ _______ _______ _____ _____    ______ ____
ROOT
ATOM      1  C   UNL     1       0.771  11.119  19.989  0.00  0.00    +0.000 A 
ATOM      2  C   UNL     1       0.257  11.062  21.290  0.00  0.00    +0.000 A 
ATOM      3  C   UNL     1       0.346   9.873  21.985  0.00  0.00    +0.000 A 
ATOM      4  N   UNL     1       0.895   8.737  21.485  0.00  0.00    +0.000 NA
ATOM      5  C   UNL     1       1.384   8.780  20.234  0.00  0.00    +0.000 A 
ATOM      6  C   UNL     1       1.956   7.616  19.722  0.00  0.00    +0.000 A 
ATOM      7  C   UNL     1       2.502   7.548  18.430  0.00  0.00    +0.000 A 
ATOM      8  C   UNL     1       2.484   8.692  17.642  0.00  0.00    +0.000 A 
ATOM      9  C   UNL     1       1.943   9.873  18.140  0.00  0.00    +0.000 A 
ATOM     10  C   UNL     1       1.360   9.948  19.430  0.00  0.00    +0.000 A 
ENDROOT
BRANCH   1  14
ATOM     11  C   UNL     1       1.642  15.740  18.362  0.00  0.00    +0.000 C 
ATOM     12  N   UNL     1       1.079  14.425  18.548  0.00  0.00    +0.000 N 
ATOM     13  C   UNL     1       1.573  13.416  19.324  0.00  0.00    +0.000 A 
ATOM     14  C   UNL     1       0.652  12.385  19.264  0.00  0.00    +0.000 A 
ATOM     15  C   UNL     1      -0.363  12.903  18.424  0.00  0.00    +0.000 A 
ATOM     16  N   UNL     1      -0.090  14.124  17.962  0.00  0.00    +0.000 NA
ENDBRANCH   1  14
BRANCH   3  17
ATOM     17  C   UNL     1      -0.197   9.810  23.384  0.00  0.00    +0.000 C 
ATOM     18  N   UNL     1      -1.453  10.323  23.559  0.00  0.00    +0.000 N 
ATOM     19  O   UNL     1       0.432   9.330  24.317  0.00  0.00    +0.000 OA
ATOM     20  H   UNL     1      -1.950  10.717  22.767  0.00  0.00    +0.000 HD
ATOM     21  H   UNL     1      -1.868  10.316  24.477  0.00  0.00    +0.000 HD
ENDBRANCH   3  17
BRANCH   7  22
ATOM     22  C   UNL     1       3.187   6.300  17.919  0.00  0.00    +0.000 C 
BRANCH  22  23
ATOM     23  C   UNL     1       2.491   5.038  18.385  0.00  0.00    +0.000 A 
ATOM     24  C   UNL     1       1.614   4.373  17.534  0.00  0.00    +0.000 A 
ATOM     25  C   UNL     1       0.910   3.279  18.019  0.00  0.00    +0.000 A 
ATOM     26  C   UNL     1       1.096   2.874  19.337  0.00  0.00    +0.000 A 
ATOM     27  C   UNL     1       2.003   3.566  20.140  0.00  0.00    +0.000 A 
ATOM     28  N   UNL     1       2.699   4.642  19.667  0.00  0.00    +0.000 NA
BRANCH  27  29
ATOM     29  C   UNL     1       2.227   3.117  21.581  0.00  0.00    +0.000 C 
ATOM     30  F   UNL     1       2.509   4.152  22.431  0.00  0.00    +0.000 F 
ATOM     31  F   UNL     1       1.140   2.496  22.122  0.00  0.00    +0.000 F 
ATOM     32  F   UNL     1       3.268   2.246  21.718  0.00  0.00    +0.000 F 
ENDBRANCH  27  29
ENDBRANCH  22  23
ENDBRANCH   7  22
TORSDOF 5
ENDMDL
MODEL 9
REMARK VINA RESULT:      -8.5      4.141      8.115
REMARK  Name = 
REMARK  6 active torsions:
REMARK  status: ('A' for Active; 'I' for Inactive)
REMARK    1  A    between atoms: C_1  and  N_2
REMARK    2  A    between atoms: C_4  and  C_5
REMARK    3  A    between atoms: C_7  and  C_8
REMARK    4  A    between atoms: C_14  and  C_15
REMARK    5  A    between atoms: C_15  and  C_16
REMARK    6  A    between atoms: C_20  and  C_21
REMARK                            x       y       z     vdW  Elec       q    Type
REMARK                         _______ _______ _______ _____ _____    ______ ____
ROOT
ATOM      1  C   UNL     1       2.562   5.931  18.428  0.00  0.00    +0.000 A 
ATOM      2  C   UNL     1       1.750   4.828  18.719  0.00  0.00    +0.000 A 
ATOM      3  C   UNL     1       2.159   3.577  18.304  0.00  0.00    +0.000 A 
ATOM      4  N   UNL     1       3.304   3.339  17.616  0.00  0.00    +0.000 NA
ATOM      5  C   UNL     1       4.087   4.393  17.325  0.00  0.00    +0.000 A 
ATOM      6  C   UNL     1       5.268   4.148  16.625  0.00  0.00    +0.000 A 
ATOM      7  C   UNL     1       6.162   5.172  16.273  0.00  0.00    +0.000 A 
ATOM      8  C   UNL     1       5.862   6.474  16.653  0.00  0.00    +0.000 A 
ATOM      9  C   UNL     1       4.702   6.740  17.375  0.00  0.00    +0.000 A 
ATOM     10  C   UNL     1       3.776   5.721  17.710  0.00  0.00    +0.000 A 
ENDROOT
BRANCH   1  14
ATOM     11  C   UNL     1       1.292  10.742  18.411  0.00  0.00    +0.000 C 
ATOM     12  N   UNL     1       1.527   9.378  18.816  0.00  0.00    +0.000 N 
ATOM     13  C   UNL     1       1.915   8.334  18.024  0.00  0.00    +0.000 A 
ATOM     14  C   UNL     1       2.102   7.251  18.863  0.00  0.00    +0.000 A 
ATOM     15  C   UNL     1       1.804   7.774  20.144  0.00  0.00    +0.000 A 
ATOM     16  N   UNL     1       1.422   9.051  20.114  0.00  0.00    +0.000 NA
ENDBRANCH   1  14
BRANCH   3  17
ATOM     17  C   UNL     1       1.295   2.390  18.621  0.00  0.00    +0.000 C 
ATOM     18  N   UNL     1       1.958   1.258  19.006  0.00  0.00    +0.000 N 
ATOM     19  O   UNL     1       0.074   2.422  18.547  0.00  0.00    +0.000 OA
ATOM     20  H   UNL     1       2.972   1.260  19.056  0.00  0.00    +0.000 HD
ATOM     21  H   UNL     1       1.433   0.426  19.225  0.00  0.00    +0.000 HD
ENDBRANCH   3  17
BRANCH   7  22
ATOM     22  C   UNL     1       7.475   4.880  15.581  0.00  0.00    +0.000 C 
BRANCH  22  23
ATOM     23  C   UNL     1       7.313   4.759  14.080  0.00  0.00    +0.000 A 
ATOM     24  C   UNL     1       8.149   5.476  13.231  0.00  0.00    +0.000 A 
ATOM     25  C   UNL     1       7.915   5.430  11.863  0.00  0.00    +0.000 A 
ATOM     26  C   UNL     1       6.855   4.673  11.375  0.00  0.00    +0.000 A 
ATOM     27  C   UNL     1       6.059   3.958  12.272  0.00  0.00    +0.000 A 
ATOM     28  N   UNL     1       6.287   3.999  13.618  0.00  0.00    +0.000 NA
BRANCH  27  29
ATOM     29  C   UNL     1       4.907   3.110  11.743  0.00  0.00    +0.000 C 
ATOM     30  F   UNL     1       5.274   1.824  11.450  0.00  0.00    +0.000 F 
ATOM     31  F   UNL     1       3.877   2.993  12.630  0.00  0.00    +0.000 F 
ATOM     32  F   UNL     1       4.361   3.598  10.592  0.00  0.00    +0.000 F 
ENDBRANCH  27  29
ENDBRANCH  22  23
ENDBRANCH   7  22
TORSDOF 5
ENDMDL
