MODEL 1
REMARK VINA RESULT:      -6.8      0.000      0.000
REMARK  Name = 
REMARK  2 active torsions:
REMARK  status: ('A' for Active; 'I' for Inactive)
REMARK    1  A    between atoms: N_2  and  C_4
REMARK    2  A    between atoms: C_7  and  C_8
REMARK                            x       y       z     vdW  Elec       q    Type
REMARK                         _______ _______ _______ _____ _____    ______ ____
ROOT
ATOM      1  C   UNL     1       6.927   4.837  14.319  0.00  0.00    +0.000 A 
ATOM      2  C   UNL     1       5.708   4.219  14.020  0.00  0.00    +0.000 A 
ATOM      3  C   UNL     1       4.843   3.868  15.062  0.00  0.00    +0.000 A 
ATOM      4  C   UNL     1       5.192   4.119  16.397  0.00  0.00    +0.000 A 
ATOM      5  C   UNL     1       6.414   4.748  16.680  0.00  0.00    +0.000 A 
ATOM      6  C   UNL     1       7.284   5.107  15.645  0.00  0.00    +0.000 A 
ENDROOT
BRANCH   4   7
ATOM      7  C   UNL     1       4.282   3.723  17.457  0.00  0.00    +0.000 A 
ATOM      8  C   UNL     1       4.611   3.584  18.799  0.00  0.00    +0.000 A 
ATOM      9  N   UNL     1       3.456   3.175  19.370  0.00  0.00    +0.000 N 
ATOM     10  C   UNL     1       2.508   3.073  18.408  0.00  0.00    +0.000 A 
ATOM     11  N   UNL     1       2.956   3.387  17.227  0.00  0.00    +0.000 NA
ATOM     12  S   UNL     1       0.986   2.565  19.016  0.00  0.00    +0.000 S 
ATOM     13  C   UNL     1       1.563   2.757  20.753  0.00  0.00    +0.000 C 
ATOM     14  C   UNL     1       3.094   2.781  20.709  0.00  0.00    +0.000 C 
ENDBRANCH   4   7
BRANCH   1  16
ATOM     15  O   UNL     1       8.793   5.952  13.505  0.00  0.00    +0.000 OA
ATOM     16  N   UNL     1       7.842   5.206  13.232  0.00  0.00    +0.000 N 
ATOM     17  O   UNL     1       7.606   4.754  12.102  0.00  0.00    +0.000 OA
ENDBRANCH   1  16
TORSDOF 2
ENDMDL
MODEL 2
REMARK VINA RESULT:      -6.7      0.156      1.172
REMARK  Name = 
REMARK  2 active torsions:
REMARK  status: ('A' for Active; 'I' for Inactive)
REMARK    1  A    between atoms: N_2  and  C_4
REMARK    2  A    between atoms: C_7  and  C_8
REMARK                            x       y       z     vdW  Elec       q    Type
REMARK                         _______ _______ _______ _____ _____    ______ ____
ROOT
ATOM      1  C   UNL     1       6.968   4.877  14.300  0.00  0.00    +0.000 A 
ATOM      2  C   UNL     1       7.158   5.349  15.603  0.00  0.00    +0.000 A 
ATOM      3  C   UNL     1       6.273   4.955  16.612  0.00  0.00    +0.000 A 
ATOM      4  C   UNL     1       5.195   4.103  16.326  0.00  0.00    +0.000 A 
ATOM      5  C   UNL     1       5.023   3.631  15.016  0.00  0.00    +0.000 A 
ATOM      6  C   UNL     1       5.905   4.016  14.001  0.00  0.00    +0.000 A 
ENDROOT
BRANCH   4   7
ATOM      7  C   UNL     1       4.281   3.730  17.391  0.00  0.00    +0.000 A 
ATOM      8  C   UNL     1       4.614   3.584  18.732  0.00  0.00    +0.000 A 
ATOM      9  N   UNL     1       3.452   3.204  19.309  0.00  0.00    +0.000 N 
ATOM     10  C   UNL     1       2.497   3.124  18.352  0.00  0.00    +0.000 A 
ATOM     11  N   UNL     1       2.946   3.426  17.168  0.00  0.00    +0.000 NA
ATOM     12  S   UNL     1       0.967   2.653  18.968  0.00  0.00    +0.000 S 
ATOM     13  C   UNL     1       1.557   2.832  20.702  0.00  0.00    +0.000 C 
ATOM     14  C   UNL     1       3.088   2.820  20.650  0.00  0.00    +0.000 C 
ENDBRANCH   4   7
BRANCH   1  16
ATOM     15  O   UNL     1       8.853   6.002  13.547  0.00  0.00    +0.000 OA
ATOM     16  N   UNL     1       7.889   5.288  13.235  0.00  0.00    +0.000 N 
ATOM     17  O   UNL     1       7.647   4.902  12.082  0.00  0.00    +0.000 OA
ENDBRANCH   1  16
TORSDOF 2
ENDMDL
MODEL 3
REMARK VINA RESULT:      -6.7      1.121      1.783
REMARK  Name = 
REMARK  2 active torsions:
REMARK  status: ('A' for Active; 'I' for Inactive)
REMARK    1  A    between atoms: N_2  and  C_4
REMARK    2  A    between atoms: C_7  and  C_8
REMARK                            x       y       z     vdW  Elec       q    Type
REMARK                         _______ _______ _______ _____ _____    ______ ____
ROOT
ATOM      1  C   UNL     1       6.838   4.850  14.546  0.00  0.00    +0.000 A 
ATOM      2  C   UNL     1       7.373   5.057  15.821  0.00  0.00    +0.000 A 
ATOM      3  C   UNL     1       6.572   4.833  16.946  0.00  0.00    +0.000 A 
ATOM      4  C   UNL     1       5.240   4.415  16.804  0.00  0.00    +0.000 A 
ATOM      5  C   UNL     1       4.721   4.203  15.518  0.00  0.00    +0.000 A 
ATOM      6  C   UNL     1       5.515   4.420  14.388  0.00  0.00    +0.000 A 
ENDROOT
BRANCH   4   7
ATOM      7  C   UNL     1       4.428   4.211  17.991  0.00  0.00    +0.000 A 
ATOM      8  C   UNL     1       4.479   3.105  18.829  0.00  0.00    +0.000 A 
ATOM      9  N   UNL     1       3.529   3.363  19.755  0.00  0.00    +0.000 N 
ATOM     10  C   UNL     1       2.951   4.553  19.466  0.00  0.00    +0.000 A 
ATOM     11  N   UNL     1       3.453   5.109  18.400  0.00  0.00    +0.000 NA
ATOM     12  S   UNL     1       1.726   4.995  20.583  0.00  0.00    +0.000 S 
ATOM     13  C   UNL     1       2.188   3.614  21.707  0.00  0.00    +0.000 C 
ATOM     14  C   UNL     1       3.003   2.620  20.874  0.00  0.00    +0.000 C 
ENDBRANCH   4   7
BRANCH   1  16
ATOM     15  O   UNL     1       7.377   4.484  12.317  0.00  0.00    +0.000 OA
ATOM     16  N   UNL     1       7.670   5.086  13.360  0.00  0.00    +0.000 N 
ATOM     17  O   UNL     1       8.623   5.871  13.472  0.00  0.00    +0.000 OA
ENDBRANCH   1  16
TORSDOF 2
ENDMDL
MODEL 4
REMARK VINA RESULT:      -6.7      1.074      1.413
REMARK  Name = 
REMARK  2 active torsions:
REMARK  status: ('A' for Active; 'I' for Inactive)
REMARK    1  A    between atoms: N_2  and  C_4
REMARK    2  A    between atoms: C_7  and  C_8
REMARK                            x       y       z     vdW  Elec       q    Type
REMARK                         _______ _______ _______ _____ _____    ______ ____
ROOT
ATOM      1  C   UNL     1       6.826   4.825  14.461  0.00  0.00    +0.000 A 
ATOM      2  C   UNL     1       5.507   4.433  14.211  0.00  0.00    +0.000 A 
ATOM      3  C   UNL     1       4.659   4.154  15.288  0.00  0.00    +0.000 A 
ATOM      4  C   UNL     1       5.122   4.254  16.609  0.00  0.00    +0.000 A 
ATOM      5  C   UNL     1       6.445   4.657  16.842  0.00  0.00    +0.000 A 
ATOM      6  C   UNL     1       7.300   4.942  15.773  0.00  0.00    +0.000 A 
ENDROOT
BRANCH   4   7
ATOM      7  C   UNL     1       4.222   3.937  17.704  0.00  0.00    +0.000 A 
ATOM      8  C   UNL     1       3.516   2.751  17.857  0.00  0.00    +0.000 A 
ATOM      9  N   UNL     1       2.809   2.946  18.992  0.00  0.00    +0.000 N 
ATOM     10  C   UNL     1       3.083   4.183  19.469  0.00  0.00    +0.000 A 
ATOM     11  N   UNL     1       3.929   4.832  18.722  0.00  0.00    +0.000 NA
ATOM     12  S   UNL     1       2.243   4.546  20.920  0.00  0.00    +0.000 S 
ATOM     13  C   UNL     1       1.671   2.804  21.079  0.00  0.00    +0.000 C 
ATOM     14  C   UNL     1       1.826   2.160  19.697  0.00  0.00    +0.000 C 
ENDBRANCH   4   7
BRANCH   1  16
ATOM     15  O   UNL     1       7.486   4.570  12.250  0.00  0.00    +0.000 OA
ATOM     16  N   UNL     1       7.725   5.115  13.337  0.00  0.00    +0.000 N 
ATOM     17  O   UNL     1       8.675   5.885  13.543  0.00  0.00    +0.000 OA
ENDBRANCH   1  16
TORSDOF 2
ENDMDL
MODEL 5
REMARK VINA RESULT:      -6.6      1.086      1.661
REMARK  Name = 
REMARK  2 active torsions:
REMARK  status: ('A' for Active; 'I' for Inactive)
REMARK    1  A    between atoms: N_2  and  C_4
REMARK    2  A    between atoms: C_7  and  C_8
REMARK                            x       y       z     vdW  Elec       q    Type
REMARK                         _______ _______ _______ _____ _____    ______ ____
ROOT
ATOM      1  C   UNL     1       6.839   4.808  14.418  0.00  0.00    +0.000 A 
ATOM      2  C   UNL     1       7.284   4.974  15.734  0.00  0.00    +0.000 A 
ATOM      3  C   UNL     1       6.419   4.681  16.793  0.00  0.00    +0.000 A 
ATOM      4  C   UNL     1       5.111   4.235  16.547  0.00  0.00    +0.000 A 
ATOM      5  C   UNL     1       4.684   4.065  15.222  0.00  0.00    +0.000 A 
ATOM      6  C   UNL     1       5.542   4.351  14.156  0.00  0.00    +0.000 A 
ENDROOT
BRANCH   4   7
ATOM      7  C   UNL     1       4.230   3.960  17.668  0.00  0.00    +0.000 A 
ATOM      8  C   UNL     1       3.590   2.754  17.920  0.00  0.00    +0.000 A 
ATOM      9  N   UNL     1       2.873   3.001  19.038  0.00  0.00    +0.000 N 
ATOM     10  C   UNL     1       3.079   4.286  19.412  0.00  0.00    +0.000 A 
ATOM     11  N   UNL     1       3.889   4.918  18.612  0.00  0.00    +0.000 NA
ATOM     12  S   UNL     1       2.221   4.719  20.833  0.00  0.00    +0.000 S 
ATOM     13  C   UNL     1       1.744   2.968  21.135  0.00  0.00    +0.000 C 
ATOM     14  C   UNL     1       1.933   2.224  19.809  0.00  0.00    +0.000 C 
ENDBRANCH   4   7
BRANCH   1  16
ATOM     15  O   UNL     1       8.679   5.896  13.513  0.00  0.00    +0.000 OA
ATOM     16  N   UNL     1       7.740   5.116  13.301  0.00  0.00    +0.000 N 
ATOM     17  O   UNL     1       7.504   4.584  12.207  0.00  0.00    +0.000 OA
ENDBRANCH   1  16
TORSDOF 2
ENDMDL
MODEL 6
REMARK VINA RESULT:      -6.5      1.239      1.777
REMARK  Name = 
REMARK  2 active torsions:
REMARK  status: ('A' for Active; 'I' for Inactive)
REMARK    1  A    between atoms: N_2  and  C_4
REMARK    2  A    between atoms: C_7  and  C_8
REMARK                            x       y       z     vdW  Elec       q    Type
REMARK                         _______ _______ _______ _____ _____    ______ ____
ROOT
ATOM      1  C   UNL     1       6.879   4.869  14.412  0.00  0.00    +0.000 A 
ATOM      2  C   UNL     1       7.396   5.137  15.684  0.00  0.00    +0.000 A 
ATOM      3  C   UNL     1       6.585   4.944  16.808  0.00  0.00    +0.000 A 
ATOM      4  C   UNL     1       5.263   4.497  16.669  0.00  0.00    +0.000 A 
ATOM      5  C   UNL     1       4.763   4.224  15.387  0.00  0.00    +0.000 A 
ATOM      6  C   UNL     1       5.566   4.410  14.257  0.00  0.00    +0.000 A 
ENDROOT
BRANCH   4   7
ATOM      7  C   UNL     1       4.441   4.327  17.854  0.00  0.00    +0.000 A 
ATOM      8  C   UNL     1       3.597   5.285  18.400  0.00  0.00    +0.000 A 
ATOM      9  N   UNL     1       3.085   4.674  19.492  0.00  0.00    +0.000 N 
ATOM     10  C   UNL     1       3.611   3.429  19.580  0.00  0.00    +0.000 A 
ATOM     11  N   UNL     1       4.446   3.167  18.616  0.00  0.00    +0.000 NA
ATOM     12  S   UNL     1       3.028   2.547  20.931  0.00  0.00    +0.000 S 
ATOM     13  C   UNL     1       1.758   3.832  21.281  0.00  0.00    +0.000 C 
ATOM     14  C   UNL     1       2.202   5.103  20.549  0.00  0.00    +0.000 C 
ENDBRANCH   4   7
BRANCH   1  16
ATOM     15  O   UNL     1       8.667   5.867  13.319  0.00  0.00    +0.000 OA
ATOM     16  N   UNL     1       7.721   5.073  13.227  0.00  0.00    +0.000 N 
ATOM     17  O   UNL     1       7.432   4.442  12.200  0.00  0.00    +0.000 OA
ENDBRANCH   1  16
TORSDOF 2
ENDMDL
MODEL 7
REMARK VINA RESULT:      -6.5      1.134      1.363
REMARK  Name = 
REMARK  2 active torsions:
REMARK  status: ('A' for Active; 'I' for Inactive)
REMARK    1  A    between atoms: N_2  and  C_4
REMARK    2  A    between atoms: C_7  and  C_8
REMARK                            x       y       z     vdW  Elec       q    Type
REMARK                         _______ _______ _______ _____ _____    ______ ____
ROOT
ATOM      1  C   UNL     1       6.739   4.834  14.618  0.00  0.00    +0.000 A 
ATOM      2  C   UNL     1       5.489   4.251  14.386  0.00  0.00    +0.000 A 
ATOM      3  C   UNL     1       4.633   4.010  15.466  0.00  0.00    +0.000 A 
ATOM      4  C   UNL     1       5.021   4.336  16.774  0.00  0.00    +0.000 A 
ATOM      5  C   UNL     1       6.275   4.928  16.989  0.00  0.00    +0.000 A 
ATOM      6  C   UNL     1       7.136   5.177  15.916  0.00  0.00    +0.000 A 
ENDROOT
BRANCH   4   7
ATOM      7  C   UNL     1       4.119   4.053  17.875  0.00  0.00    +0.000 A 
ATOM      8  C   UNL     1       2.826   4.542  18.010  0.00  0.00    +0.000 A 
ATOM      9  N   UNL     1       2.414   4.031  19.193  0.00  0.00    +0.000 N 
ATOM     10  C   UNL     1       3.419   3.293  19.721  0.00  0.00    +0.000 A 
ATOM     11  N   UNL     1       4.480   3.277  18.967  0.00  0.00    +0.000 NA
ATOM     12  S   UNL     1       3.011   2.583  21.228  0.00  0.00    +0.000 S 
ATOM     13  C   UNL     1       1.249   3.078  21.037  0.00  0.00    +0.000 C 
ATOM     14  C   UNL     1       1.213   4.182  19.976  0.00  0.00    +0.000 C 
ENDBRANCH   4   7
BRANCH   1  16
ATOM     15  O   UNL     1       8.593   5.864  13.674  0.00  0.00    +0.000 OA
ATOM     16  N   UNL     1       7.645   5.086  13.492  0.00  0.00    +0.000 N 
ATOM     17  O   UNL     1       7.407   4.511  12.419  0.00  0.00    +0.000 OA
ENDBRANCH   1  16
TORSDOF 2
ENDMDL
MODEL 8
REMARK VINA RESULT:      -6.2      5.701      6.873
REMARK  Name = 
REMARK  2 active torsions:
REMARK  status: ('A' for Active; 'I' for Inactive)
REMARK    1  A    between atoms: N_2  and  C_4
REMARK    2  A    between atoms: C_7  and  C_8
REMARK                            x       y       z     vdW  Elec       q    Type
REMARK                         _______ _______ _______ _____ _____    ______ ____
ROOT
ATOM      1  C   UNL     1       3.588   3.544  19.652  0.00  0.00    +0.000 A 
ATOM      2  C   UNL     1       2.520   3.824  20.511  0.00  0.00    +0.000 A 
ATOM      3  C   UNL     1       1.982   5.115  20.539  0.00  0.00    +0.000 A 
ATOM      4  C   UNL     1       2.509   6.128  19.724  0.00  0.00    +0.000 A 
ATOM      5  C   UNL     1       3.575   5.829  18.862  0.00  0.00    +0.000 A 
ATOM      6  C   UNL     1       4.118   4.541  18.824  0.00  0.00    +0.000 A 
ENDROOT
BRANCH   4   7
ATOM      7  C   UNL     1       1.943   7.463  19.792  0.00  0.00    +0.000 A 
ATOM      8  C   UNL     1       1.946   8.399  18.766  0.00  0.00    +0.000 A 
ATOM      9  N   UNL     1       1.340   9.476  19.315  0.00  0.00    +0.000 N 
ATOM     10  C   UNL     1       1.010   9.183  20.595  0.00  0.00    +0.000 A 
ATOM     11  N   UNL     1       1.358   7.977  20.941  0.00  0.00    +0.000 NA
ATOM     12  S   UNL     1       0.223  10.479  21.399  0.00  0.00    +0.000 S 
ATOM     13  C   UNL     1       0.063  11.420  19.826  0.00  0.00    +0.000 C 
ATOM     14  C   UNL     1       1.069  10.812  18.843  0.00  0.00    +0.000 C 
ENDBRANCH   4   7
BRANCH   1  16
ATOM     15  O   UNL     1       5.038   1.917  20.451  0.00  0.00    +0.000 OA
ATOM     16  N   UNL     1       4.162   2.194  19.620  0.00  0.00    +0.000 N 
ATOM     17  O   UNL     1       3.740   1.409  18.757  0.00  0.00    +0.000 OA
ENDBRANCH   1  16
TORSDOF 2
ENDMDL
MODEL 9
REMARK VINA RESULT:      -6.2      5.744      6.941
REMARK  Name = 
REMARK  2 active torsions:
REMARK  status: ('A' for Active; 'I' for Inactive)
REMARK    1  A    between atoms: N_2  and  C_4
REMARK    2  A    between atoms: C_7  and  C_8
REMARK                            x       y       z     vdW  Elec       q    Type
REMARK                         _______ _______ _______ _____ _____    ______ ____
ROOT
ATOM      1  C   UNL     1       3.494   3.597  19.707  0.00  0.00    +0.000 A 
ATOM      2  C   UNL     1       2.323   3.814  20.440  0.00  0.00    +0.000 A 
ATOM      3  C   UNL     1       1.797   5.107  20.526  0.00  0.00    +0.000 A 
ATOM      4  C   UNL     1       2.437   6.184  19.895  0.00  0.00    +0.000 A 
ATOM      5  C   UNL     1       3.606   5.948  19.156  0.00  0.00    +0.000 A 
ATOM      6  C   UNL     1       4.138   4.659  19.060  0.00  0.00    +0.000 A 
ENDROOT
BRANCH   4   7
ATOM      7  C   UNL     1       1.878   7.518  20.021  0.00  0.00    +0.000 A 
ATOM      8  C   UNL     1       1.284   8.044  21.161  0.00  0.00    +0.000 A 
ATOM      9  N   UNL     1       0.900   9.282  20.778  0.00  0.00    +0.000 N 
ATOM     10  C   UNL     1       1.245   9.462  19.481  0.00  0.00    +0.000 A 
ATOM     11  N   UNL     1       1.835   8.421  18.969  0.00  0.00    +0.000 NA
ATOM     12  S   UNL     1       0.813  11.010  18.879  0.00  0.00    +0.000 S 
ATOM     13  C   UNL     1       0.371  11.594  20.567  0.00  0.00    +0.000 C 
ATOM     14  C   UNL     1       0.173  10.343  21.430  0.00  0.00    +0.000 C 
ENDBRANCH   4   7
BRANCH   1  16
ATOM     15  O   UNL     1       3.588   1.481  18.758  0.00  0.00    +0.000 OA
ATOM     16  N   UNL     1       4.056   2.244  19.615  0.00  0.00    +0.000 N 
ATOM     17  O   UNL     1       4.962   1.941  20.404  0.00  0.00    +0.000 OA
ENDBRANCH   1  16
TORSDOF 2
ENDMDL
