MODEL 1
REMARK VINA RESULT:      -7.0      0.000      0.000
REMARK  Name = 
REMARK  6 active torsions:
REMARK  status: ('A' for Active; 'I' for Inactive)
REMARK    1  A    between atoms: C_1  and  O_2
REMARK    2  A    between atoms: O_2  and  C_3
REMARK    3  A    between atoms: C_5  and  C_6
REMARK    4  A    between atoms: C_6  and  S_7
REMARK    5  A    between atoms: N_8  and  C_9
REMARK    6  A    between atoms: C_17  and  O_18
REMARK                            x       y       z     vdW  Elec       q    Type
REMARK                         _______ _______ _______ _____ _____    ______ ____
ROOT
ATOM      1  C   UNL     1       6.745   6.114  16.487  0.00  0.00    +0.000 A 
ATOM      2  C   UNL     1       5.610   6.339  17.282  0.00  0.00    +0.000 A 
ATOM      3  C   UNL     1       4.505   5.476  17.238  0.00  0.00    +0.000 A 
ATOM      4  C   UNL     1       4.560   4.356  16.399  0.00  0.00    +0.000 A 
ATOM      5  C   UNL     1       5.684   4.118  15.606  0.00  0.00    +0.000 A 
ATOM      6  C   UNL     1       6.772   4.995  15.646  0.00  0.00    +0.000 A 
ENDROOT
BRANCH   1   8
ATOM      7  C   UNL     1       7.500   8.066  17.653  0.00  0.00    +0.000 C 
ATOM      8  O   UNL     1       7.709   7.071  16.662  0.00  0.00    +0.000 OA
ENDBRANCH   1   8
BRANCH   3   9
ATOM      9  C   UNL     1       3.278   5.676  18.073  0.00  0.00    +0.000 C 
ATOM     10  N   UNL     1       2.721   4.645  18.609  0.00  0.00    +0.000 NA
BRANCH  10  11
ATOM     11  C   UNL     1       1.505   4.727  19.425  0.00  0.00    +0.000 C 
ATOM     12  C   UNL     1       0.749   3.393  19.300  0.00  0.00    +0.000 C 
ATOM     13  C   UNL     1       1.435   2.234  20.021  0.00  0.00    +0.000 C 
ATOM     14  C   UNL     1       1.733   2.576  21.476  0.00  0.00    +0.000 C 
ATOM     15  C   UNL     1       2.557   3.853  21.584  0.00  0.00    +0.000 C 
ATOM     16  C   UNL     1       1.869   5.025  20.886  0.00  0.00    +0.000 C 
ENDBRANCH  10  11
BRANCH   9  17
ATOM     17  S   UNL     1       2.669   7.322  18.224  0.00  0.00    +0.000 S 
ATOM     18  H   UNL     1       1.367   7.058  18.062  0.00  0.00    +0.000 HD
ENDBRANCH   9  17
ENDBRANCH   3   9
BRANCH   6  19
ATOM     19  O   UNL     1       7.850   4.722  14.851  0.00  0.00    +0.000 OA
ATOM     20  H   UNL     1       8.667   4.901  15.345  0.00  0.00    +0.000 HD
ENDBRANCH   6  19
TORSDOF 5
ENDMDL
MODEL 2
REMARK VINA RESULT:      -6.5      3.182      6.399
REMARK  Name = 
REMARK  6 active torsions:
REMARK  status: ('A' for Active; 'I' for Inactive)
REMARK    1  A    between atoms: C_1  and  O_2
REMARK    2  A    between atoms: O_2  and  C_3
REMARK    3  A    between atoms: C_5  and  C_6
REMARK    4  A    between atoms: C_6  and  S_7
REMARK    5  A    between atoms: N_8  and  C_9
REMARK    6  A    between atoms: C_17  and  O_18
REMARK                            x       y       z     vdW  Elec       q    Type
REMARK                         _______ _______ _______ _____ _____    ______ ____
ROOT
ATOM      1  C   UNL     1       2.233   2.973  19.649  0.00  0.00    +0.000 A 
ATOM      2  C   UNL     1       2.959   3.839  18.815  0.00  0.00    +0.000 A 
ATOM      3  C   UNL     1       2.912   5.230  18.991  0.00  0.00    +0.000 A 
ATOM      4  C   UNL     1       2.143   5.749  20.039  0.00  0.00    +0.000 A 
ATOM      5  C   UNL     1       1.420   4.899  20.878  0.00  0.00    +0.000 A 
ATOM      6  C   UNL     1       1.461   3.516  20.682  0.00  0.00    +0.000 A 
ENDROOT
BRANCH   1   8
ATOM      7  C   UNL     1       3.481   1.307  18.461  0.00  0.00    +0.000 C 
ATOM      8  O   UNL     1       2.398   1.656  19.311  0.00  0.00    +0.000 OA
ENDBRANCH   1   8
BRANCH   3   9
ATOM      9  C   UNL     1       3.676   6.188  18.129  0.00  0.00    +0.000 C 
ATOM     10  N   UNL     1       4.803   5.809  17.633  0.00  0.00    +0.000 NA
BRANCH  10  11
ATOM     11  C   UNL     1       5.640   6.676  16.796  0.00  0.00    +0.000 C 
ATOM     12  C   UNL     1       7.112   6.292  17.024  0.00  0.00    +0.000 C 
ATOM     13  C   UNL     1       7.491   4.943  16.415  0.00  0.00    +0.000 C 
ATOM     14  C   UNL     1       7.114   4.868  14.941  0.00  0.00    +0.000 C 
ATOM     15  C   UNL     1       5.634   5.165  14.735  0.00  0.00    +0.000 C 
ATOM     16  C   UNL     1       5.247   6.522  15.320  0.00  0.00    +0.000 C 
ENDBRANCH  10  11
BRANCH   9  17
ATOM     17  S   UNL     1       2.977   7.788  17.894  0.00  0.00    +0.000 S 
ATOM     18  H   UNL     1       3.889   8.495  18.573  0.00  0.00    +0.000 HD
ENDBRANCH   9  17
ENDBRANCH   3   9
BRANCH   6  19
ATOM     19  O   UNL     1       0.735   2.723  21.527  0.00  0.00    +0.000 OA
ATOM     20  H   UNL     1       1.108   2.783  22.422  0.00  0.00    +0.000 HD
ENDBRANCH   6  19
TORSDOF 5
ENDMDL
MODEL 3
REMARK VINA RESULT:      -6.4      0.842      2.176
REMARK  Name = 
REMARK  6 active torsions:
REMARK  status: ('A' for Active; 'I' for Inactive)
REMARK    1  A    between atoms: C_1  and  O_2
REMARK    2  A    between atoms: O_2  and  C_3
REMARK    3  A    between atoms: C_5  and  C_6
REMARK    4  A    between atoms: C_6  and  S_7
REMARK    5  A    between atoms: N_8  and  C_9
REMARK    6  A    between atoms: C_17  and  O_18
REMARK                            x       y       z     vdW  Elec       q    Type
REMARK                         _______ _______ _______ _____ _____    ______ ____
ROOT
ATOM      1  C   UNL     1       5.842   4.532  15.600  0.00  0.00    +0.000 A 
ATOM      2  C   UNL     1       4.645   4.584  16.332  0.00  0.00    +0.000 A 
ATOM      3  C   UNL     1       4.409   5.596  17.274  0.00  0.00    +0.000 A 
ATOM      4  C   UNL     1       5.385   6.582  17.459  0.00  0.00    +0.000 A 
ATOM      5  C   UNL     1       6.579   6.545  16.736  0.00  0.00    +0.000 A 
ATOM      6  C   UNL     1       6.808   5.522  15.812  0.00  0.00    +0.000 A 
ENDROOT
BRANCH   1   8
ATOM      7  C   UNL     1       5.861   3.722  13.345  0.00  0.00    +0.000 C 
ATOM      8  O   UNL     1       5.889   3.466  14.742  0.00  0.00    +0.000 OA
ENDBRANCH   1   8
BRANCH   3   9
ATOM      9  C   UNL     1       3.144   5.691  18.070  0.00  0.00    +0.000 C 
ATOM     10  N   UNL     1       2.636   4.611  18.555  0.00  0.00    +0.000 NA
BRANCH  10  11
ATOM     11  C   UNL     1       1.390   4.590  19.329  0.00  0.00    +0.000 C 
ATOM     12  C   UNL     1       0.782   3.181  19.227  0.00  0.00    +0.000 C 
ATOM     13  C   UNL     1       1.559   2.124  20.010  0.00  0.00    +0.000 C 
ATOM     14  C   UNL     1       1.769   2.541  21.460  0.00  0.00    +0.000 C 
ATOM     15  C   UNL     1       2.450   3.900  21.549  0.00  0.00    +0.000 C 
ATOM     16  C   UNL     1       1.670   4.971  20.789  0.00  0.00    +0.000 C 
ENDBRANCH  10  11
BRANCH   9  17
ATOM     17  S   UNL     1       2.426   7.290  18.248  0.00  0.00    +0.000 S 
ATOM     18  H   UNL     1       3.409   8.003  17.685  0.00  0.00    +0.000 HD
ENDBRANCH   9  17
ENDBRANCH   3   9
BRANCH   6  19
ATOM     19  O   UNL     1       7.992   5.526  15.127  0.00  0.00    +0.000 OA
ATOM     20  H   UNL     1       8.344   6.430  15.100  0.00  0.00    +0.000 HD
ENDBRANCH   6  19
TORSDOF 5
ENDMDL
MODEL 4
REMARK VINA RESULT:      -6.3      3.256      6.326
REMARK  Name = 
REMARK  6 active torsions:
REMARK  status: ('A' for Active; 'I' for Inactive)
REMARK    1  A    between atoms: C_1  and  O_2
REMARK    2  A    between atoms: O_2  and  C_3
REMARK    3  A    between atoms: C_5  and  C_6
REMARK    4  A    between atoms: C_6  and  S_7
REMARK    5  A    between atoms: N_8  and  C_9
REMARK    6  A    between atoms: C_17  and  O_18
REMARK                            x       y       z     vdW  Elec       q    Type
REMARK                         _______ _______ _______ _____ _____    ______ ____
ROOT
ATOM      1  C   UNL     1       3.016   3.108  20.905  0.00  0.00    +0.000 A 
ATOM      2  C   UNL     1       3.679   3.968  20.015  0.00  0.00    +0.000 A 
ATOM      3  C   UNL     1       3.009   5.031  19.392  0.00  0.00    +0.000 A 
ATOM      4  C   UNL     1       1.658   5.242  19.692  0.00  0.00    +0.000 A 
ATOM      5  C   UNL     1       0.987   4.396  20.577  0.00  0.00    +0.000 A 
ATOM      6  C   UNL     1       1.662   3.331  21.179  0.00  0.00    +0.000 A 
ENDROOT
BRANCH   1   8
ATOM      7  C   UNL     1       4.836   1.591  20.546  0.00  0.00    +0.000 C 
ATOM      8  O   UNL     1       3.835   2.128  21.398  0.00  0.00    +0.000 OA
ENDBRANCH   1   8
BRANCH   3   9
ATOM      9  C   UNL     1       3.680   5.975  18.442  0.00  0.00    +0.000 C 
ATOM     10  N   UNL     1       4.808   5.630  17.921  0.00  0.00    +0.000 NA
BRANCH  10  11
ATOM     11  C   UNL     1       5.558   6.489  16.999  0.00  0.00    +0.000 C 
ATOM     12  C   UNL     1       7.058   6.206  17.189  0.00  0.00    +0.000 C 
ATOM     13  C   UNL     1       7.495   4.846  16.648  0.00  0.00    +0.000 C 
ATOM     14  C   UNL     1       7.067   4.655  15.198  0.00  0.00    +0.000 C 
ATOM     15  C   UNL     1       5.566   4.853  15.036  0.00  0.00    +0.000 C 
ATOM     16  C   UNL     1       5.120   6.220  15.553  0.00  0.00    +0.000 C 
ENDBRANCH  10  11
BRANCH   9  17
ATOM     17  S   UNL     1       2.881   7.516  18.143  0.00  0.00    +0.000 S 
ATOM     18  H   UNL     1       1.991   7.466  19.142  0.00  0.00    +0.000 HD
ENDBRANCH   9  17
ENDBRANCH   3   9
BRANCH   6  19
ATOM     19  O   UNL     1       0.963   2.529  22.039  0.00  0.00    +0.000 OA
ATOM     20  H   UNL     1       1.317   1.626  21.994  0.00  0.00    +0.000 HD
ENDBRANCH   6  19
TORSDOF 5
ENDMDL
MODEL 5
REMARK VINA RESULT:      -6.3      3.947      6.236
REMARK  Name = 
REMARK  6 active torsions:
REMARK  status: ('A' for Active; 'I' for Inactive)
REMARK    1  A    between atoms: C_1  and  O_2
REMARK    2  A    between atoms: O_2  and  C_3
REMARK    3  A    between atoms: C_5  and  C_6
REMARK    4  A    between atoms: C_6  and  S_7
REMARK    5  A    between atoms: N_8  and  C_9
REMARK    6  A    between atoms: C_17  and  O_18
REMARK                            x       y       z     vdW  Elec       q    Type
REMARK                         _______ _______ _______ _____ _____    ______ ____
ROOT
ATOM      1  C   UNL     1       1.138   8.866  20.070  0.00  0.00    +0.000 A 
ATOM      2  C   UNL     1       1.833   7.646  20.090  0.00  0.00    +0.000 A 
ATOM      3  C   UNL     1       2.581   7.214  18.986  0.00  0.00    +0.000 A 
ATOM      4  C   UNL     1       2.649   8.037  17.856  0.00  0.00    +0.000 A 
ATOM      5  C   UNL     1       1.965   9.255  17.823  0.00  0.00    +0.000 A 
ATOM      6  C   UNL     1       1.210   9.667  18.924  0.00  0.00    +0.000 A 
ENDROOT
BRANCH   1   8
ATOM      7  C   UNL     1       1.205   9.250  22.434  0.00  0.00    +0.000 C 
ATOM      8  O   UNL     1       0.459   9.105  21.234  0.00  0.00    +0.000 OA
ENDBRANCH   1   8
BRANCH   3   9
ATOM      9  C   UNL     1       3.342   5.924  18.969  0.00  0.00    +0.000 C 
ATOM     10  N   UNL     1       4.321   5.794  18.140  0.00  0.00    +0.000 NA
BRANCH  10  11
ATOM     11  C   UNL     1       5.115   4.567  18.026  0.00  0.00    +0.000 C 
ATOM     12  C   UNL     1       4.808   3.918  16.666  0.00  0.00    +0.000 C 
ATOM     13  C   UNL     1       5.391   4.683  15.479  0.00  0.00    +0.000 C 
ATOM     14  C   UNL     1       6.883   4.939  15.655  0.00  0.00    +0.000 C 
ATOM     15  C   UNL     1       7.168   5.659  16.966  0.00  0.00    +0.000 C 
ATOM     16  C   UNL     1       6.609   4.891  18.163  0.00  0.00    +0.000 C 
ENDBRANCH  10  11
BRANCH   9  17
ATOM     17  S   UNL     1       2.805   4.660  20.073  0.00  0.00    +0.000 S 
ATOM     18  H   UNL     1       3.946   4.508  20.756  0.00  0.00    +0.000 HD
ENDBRANCH   9  17
ENDBRANCH   3   9
BRANCH   6  19
ATOM     19  O   UNL     1       0.557  10.866  18.846  0.00  0.00    +0.000 OA
ATOM     20  H   UNL     1      -0.094  10.924  19.563  0.00  0.00    +0.000 HD
ENDBRANCH   6  19
TORSDOF 5
ENDMDL
MODEL 6
REMARK VINA RESULT:      -6.1      4.193      6.549
REMARK  Name = 
REMARK  6 active torsions:
REMARK  status: ('A' for Active; 'I' for Inactive)
REMARK    1  A    between atoms: C_1  and  O_2
REMARK    2  A    between atoms: O_2  and  C_3
REMARK    3  A    between atoms: C_5  and  C_6
REMARK    4  A    between atoms: C_6  and  S_7
REMARK    5  A    between atoms: N_8  and  C_9
REMARK    6  A    between atoms: C_17  and  O_18
REMARK                            x       y       z     vdW  Elec       q    Type
REMARK                         _______ _______ _______ _____ _____    ______ ____
ROOT
ATOM      1  C   UNL     1       1.175   8.950  20.414  0.00  0.00    +0.000 A 
ATOM      2  C   UNL     1       1.890   7.809  20.015  0.00  0.00    +0.000 A 
ATOM      3  C   UNL     1       2.279   7.622  18.681  0.00  0.00    +0.000 A 
ATOM      4  C   UNL     1       1.965   8.613  17.743  0.00  0.00    +0.000 A 
ATOM      5  C   UNL     1       1.257   9.754  18.127  0.00  0.00    +0.000 A 
ATOM      6  C   UNL     1       0.861   9.921  19.457  0.00  0.00    +0.000 A 
ENDROOT
BRANCH   1   8
ATOM      7  C   UNL     1      -0.463   8.684  22.143  0.00  0.00    +0.000 C 
ATOM      8  O   UNL     1       0.877   8.944  21.751  0.00  0.00    +0.000 OA
ENDBRANCH   1   8
BRANCH   3   9
ATOM      9  C   UNL     1       3.048   6.423  18.215  0.00  0.00    +0.000 C 
ATOM     10  N   UNL     1       4.296   6.565  17.923  0.00  0.00    +0.000 NA
BRANCH  10  11
ATOM     11  C   UNL     1       5.132   5.463  17.436  0.00  0.00    +0.000 C 
ATOM     12  C   UNL     1       6.259   6.058  16.574  0.00  0.00    +0.000 C 
ATOM     13  C   UNL     1       7.313   6.811  17.384  0.00  0.00    +0.000 C 
ATOM     14  C   UNL     1       7.866   5.956  18.518  0.00  0.00    +0.000 C 
ATOM     15  C   UNL     1       6.748   5.443  19.417  0.00  0.00    +0.000 C 
ATOM     16  C   UNL     1       5.699   4.668  18.621  0.00  0.00    +0.000 C 
ENDBRANCH  10  11
BRANCH   9  17
ATOM     17  S   UNL     1       2.161   4.909  18.065  0.00  0.00    +0.000 S 
ATOM     18  H   UNL     1       2.821   4.210  18.997  0.00  0.00    +0.000 HD
ENDBRANCH   9  17
ENDBRANCH   3   9
BRANCH   6  19
ATOM     19  O   UNL     1       0.169  11.054  19.786  0.00  0.00    +0.000 OA
ATOM     20  H   UNL     1       0.420  11.335  20.680  0.00  0.00    +0.000 HD
ENDBRANCH   6  19
TORSDOF 5
ENDMDL
MODEL 7
REMARK VINA RESULT:      -6.1      2.879      4.175
REMARK  Name = 
REMARK  6 active torsions:
REMARK  status: ('A' for Active; 'I' for Inactive)
REMARK    1  A    between atoms: C_1  and  O_2
REMARK    2  A    between atoms: O_2  and  C_3
REMARK    3  A    between atoms: C_5  and  C_6
REMARK    4  A    between atoms: C_6  and  S_7
REMARK    5  A    between atoms: N_8  and  C_9
REMARK    6  A    between atoms: C_17  and  O_18
REMARK                            x       y       z     vdW  Elec       q    Type
REMARK                         _______ _______ _______ _____ _____    ______ ____
ROOT
ATOM      1  C   UNL     1       6.023   3.589  12.925  0.00  0.00    +0.000 A 
ATOM      2  C   UNL     1       5.622   3.583  14.271  0.00  0.00    +0.000 A 
ATOM      3  C   UNL     1       6.264   4.382  15.227  0.00  0.00    +0.000 A 
ATOM      4  C   UNL     1       7.309   5.217  14.813  0.00  0.00    +0.000 A 
ATOM      5  C   UNL     1       7.717   5.235  13.478  0.00  0.00    +0.000 A 
ATOM      6  C   UNL     1       7.079   4.421  12.537  0.00  0.00    +0.000 A 
ENDROOT
BRANCH   1   8
ATOM      7  C   UNL     1       4.211   3.270  11.390  0.00  0.00    +0.000 C 
ATOM      8  O   UNL     1       5.284   2.735  12.151  0.00  0.00    +0.000 OA
ENDBRANCH   1   8
BRANCH   3   9
ATOM      9  C   UNL     1       5.863   4.411  16.670  0.00  0.00    +0.000 C 
ATOM     10  N   UNL     1       4.635   4.164  16.975  0.00  0.00    +0.000 NA
BRANCH  10  11
ATOM     11  C   UNL     1       4.133   4.190  18.353  0.00  0.00    +0.000 C 
ATOM     12  C   UNL     1       2.822   4.993  18.374  0.00  0.00    +0.000 C 
ATOM     13  C   UNL     1       1.652   4.267  17.714  0.00  0.00    +0.000 C 
ATOM     14  C   UNL     1       1.462   2.869  18.288  0.00  0.00    +0.000 C 
ATOM     15  C   UNL     1       2.743   2.052  18.184  0.00  0.00    +0.000 C 
ATOM     16  C   UNL     1       3.916   2.757  18.862  0.00  0.00    +0.000 C 
ENDBRANCH  10  11
BRANCH   9  17
ATOM     17  S   UNL     1       7.111   4.824  17.843  0.00  0.00    +0.000 S 
ATOM     18  H   UNL     1       6.341   5.482  18.717  0.00  0.00    +0.000 HD
ENDBRANCH   9  17
ENDBRANCH   3   9
BRANCH   6  19
ATOM     19  O   UNL     1       7.513   4.472  11.242  0.00  0.00    +0.000 OA
ATOM     20  H   UNL     1       8.204   5.149  11.161  0.00  0.00    +0.000 HD
ENDBRANCH   6  19
TORSDOF 5
ENDMDL
MODEL 8
REMARK VINA RESULT:      -6.1      4.077      5.579
REMARK  Name = 
REMARK  6 active torsions:
REMARK  status: ('A' for Active; 'I' for Inactive)
REMARK    1  A    between atoms: C_1  and  O_2
REMARK    2  A    between atoms: O_2  and  C_3
REMARK    3  A    between atoms: C_5  and  C_6
REMARK    4  A    between atoms: C_6  and  S_7
REMARK    5  A    between atoms: N_8  and  C_9
REMARK    6  A    between atoms: C_17  and  O_18
REMARK                            x       y       z     vdW  Elec       q    Type
REMARK                         _______ _______ _______ _____ _____    ______ ____
ROOT
ATOM      1  C   UNL     1       1.093   8.907  20.211  0.00  0.00    +0.000 A 
ATOM      2  C   UNL     1       1.796   7.750  19.836  0.00  0.00    +0.000 A 
ATOM      3  C   UNL     1       2.412   7.645  18.582  0.00  0.00    +0.000 A 
ATOM      4  C   UNL     1       2.341   8.734  17.704  0.00  0.00    +0.000 A 
ATOM      5  C   UNL     1       1.648   9.892  18.065  0.00  0.00    +0.000 A 
ATOM      6  C   UNL     1       1.024   9.977  19.313  0.00  0.00    +0.000 A 
ENDROOT
BRANCH   1   8
ATOM      7  C   UNL     1       1.308   9.301  22.565  0.00  0.00    +0.000 C 
ATOM      8  O   UNL     1       0.553   8.812  21.466  0.00  0.00    +0.000 OA
ENDBRANCH   1   8
BRANCH   3   9
ATOM      9  C   UNL     1       3.176   6.433  18.145  0.00  0.00    +0.000 C 
ATOM     10  N   UNL     1       2.766   5.273  18.530  0.00  0.00    +0.000 NA
BRANCH  10  11
ATOM     11  C   UNL     1       3.453   4.026  18.179  0.00  0.00    +0.000 C 
ATOM     12  C   UNL     1       4.012   3.403  19.469  0.00  0.00    +0.000 C 
ATOM     13  C   UNL     1       2.934   2.825  20.384  0.00  0.00    +0.000 C 
ATOM     14  C   UNL     1       2.027   1.853  19.639  0.00  0.00    +0.000 C 
ATOM     15  C   UNL     1       1.411   2.507  18.409  0.00  0.00    +0.000 C 
ATOM     16  C   UNL     1       2.482   3.068  17.475  0.00  0.00    +0.000 C 
ENDBRANCH  10  11
BRANCH   9  17
ATOM     17  S   UNL     1       4.613   6.700  17.162  0.00  0.00    +0.000 S 
ATOM     18  H   UNL     1       4.258   7.873  16.622  0.00  0.00    +0.000 HD
ENDBRANCH   9  17
ENDBRANCH   3   9
BRANCH   6  19
ATOM     19  O   UNL     1       0.357  11.130  19.622  0.00  0.00    +0.000 OA
ATOM     20  H   UNL     1       0.998  11.848  19.750  0.00  0.00    +0.000 HD
ENDBRANCH   6  19
TORSDOF 5
ENDMDL
MODEL 9
REMARK VINA RESULT:      -6.0      4.265      5.697
REMARK  Name = 
REMARK  6 active torsions:
REMARK  status: ('A' for Active; 'I' for Inactive)
REMARK    1  A    between atoms: C_1  and  O_2
REMARK    2  A    between atoms: O_2  and  C_3
REMARK    3  A    between atoms: C_5  and  C_6
REMARK    4  A    between atoms: C_6  and  S_7
REMARK    5  A    between atoms: N_8  and  C_9
REMARK    6  A    between atoms: C_17  and  O_18
REMARK                            x       y       z     vdW  Elec       q    Type
REMARK                         _______ _______ _______ _____ _____    ______ ____
ROOT
ATOM      1  C   UNL     1       1.017   9.496  20.230  0.00  0.00    +0.000 A 
ATOM      2  C   UNL     1       1.646   8.243  20.150  0.00  0.00    +0.000 A 
ATOM      3  C   UNL     1       2.234   7.797  18.958  0.00  0.00    +0.000 A 
ATOM      4  C   UNL     1       2.210   8.640  17.840  0.00  0.00    +0.000 A 
ATOM      5  C   UNL     1       1.591   9.890  17.906  0.00  0.00    +0.000 A 
ATOM      6  C   UNL     1       0.993  10.316  19.095  0.00  0.00    +0.000 A 
ENDROOT
BRANCH   1   8
ATOM      7  C   UNL     1      -0.419   8.805  22.019  0.00  0.00    +0.000 C 
ATOM      8  O   UNL     1       0.493   9.745  21.470  0.00  0.00    +0.000 OA
ENDBRANCH   1   8
BRANCH   3   9
ATOM      9  C   UNL     1       2.920   6.472  18.832  0.00  0.00    +0.000 C 
ATOM     10  N   UNL     1       2.524   5.497  19.577  0.00  0.00    +0.000 NA
BRANCH  10  11
ATOM     11  C   UNL     1       3.142   4.168  19.549  0.00  0.00    +0.000 C 
ATOM     12  C   UNL     1       2.715   3.411  20.818  0.00  0.00    +0.000 C 
ATOM     13  C   UNL     1       1.248   2.986  20.810  0.00  0.00    +0.000 C 
ATOM     14  C   UNL     1       0.896   2.208  19.548  0.00  0.00    +0.000 C 
ATOM     15  C   UNL     1       1.243   3.003  18.296  0.00  0.00    +0.000 C 
ATOM     16  C   UNL     1       2.715   3.414  18.282  0.00  0.00    +0.000 C 
ENDBRANCH  10  11
BRANCH   9  17
ATOM     17  S   UNL     1       4.255   6.364  17.687  0.00  0.00    +0.000 S 
ATOM     18  H   UNL     1       4.292   5.032  17.564  0.00  0.00    +0.000 HD
ENDBRANCH   9  17
ENDBRANCH   3   9
BRANCH   6  19
ATOM     19  O   UNL     1       0.398  11.547  19.113  0.00  0.00    +0.000 OA
ATOM     20  H   UNL     1       1.032  12.214  18.803  0.00  0.00    +0.000 HD
ENDBRANCH   6  19
TORSDOF 5
ENDMDL
