MODEL 1
REMARK VINA RESULT:      -7.9      0.000      0.000
REMARK  Name = 
REMARK  12 active torsions:
REMARK  status: ('A' for Active; 'I' for Inactive)
REMARK    1  A    between atoms: C_1  and  O_2
REMARK    2  A    between atoms: O_2  and  C_3
REMARK    3  A    between atoms: C_5  and  C_6
REMARK    4  A    between atoms: C_9  and  S_10
REMARK    5  A    between atoms: S_10  and  C_11
REMARK    6  A    between atoms: C_11  and  C_12
REMARK    7  A    between atoms: N_19  and  N_20
REMARK    8  A    between atoms: C_21  and  C_22
REMARK    9  A    between atoms: C_29  and  O_30
REMARK   10  A    between atoms: O_30  and  C_31
REMARK   11  A    between atoms: C_32  and  O_33
REMARK   12  A    between atoms: O_33  and  C_34
REMARK                            x       y       z     vdW  Elec       q    Type
REMARK                         _______ _______ _______ _____ _____    ______ ____
ROOT
ATOM      1  C   UNL     1       0.261  10.722  21.535  0.00  0.00    +0.000 A 
ATOM      2  N   UNL     1       0.958   9.963  22.365  0.00  0.00    +0.000 NA
ATOM      3  N   UNL     1       1.539   8.945  21.649  0.00  0.00    +0.000 NA
ATOM      4  C   UNL     1       1.176   9.081  20.396  0.00  0.00    +0.000 A 
ATOM      5  N   UNL     1       0.285  10.141  20.257  0.00  0.00    +0.000 N 
ENDROOT
BRANCH   1   8
ATOM      6  C   UNL     1      -1.020  14.269  21.697  0.00  0.00    +0.000 A 
ATOM      7  C   UNL     1      -0.133  13.182  21.645  0.00  0.00    +0.000 A 
ATOM      8  C   UNL     1      -0.558  11.882  21.908  0.00  0.00    +0.000 A 
ATOM      9  C   UNL     1      -1.830  11.715  22.457  0.00  0.00    +0.000 A 
ATOM     10  C   UNL     1      -2.715  12.800  22.609  0.00  0.00    +0.000 A 
ATOM     11  C   UNL     1      -2.329  14.095  22.193  0.00  0.00    +0.000 A 
BRANCH   6  13
ATOM     12  C   UNL     1       0.734  15.861  21.672  0.00  0.00    +0.000 C 
ATOM     13  O   UNL     1      -0.597  15.512  21.292  0.00  0.00    +0.000 OA
ENDBRANCH   6  13
BRANCH  10  14
ATOM     14  O   UNL     1      -3.916  12.393  23.138  0.00  0.00    +0.000 OA
ATOM     15  C   UNL     1      -4.121  12.449  24.541  0.00  0.00    +0.000 C 
ENDBRANCH  10  14
BRANCH  11  16
ATOM     16  O   UNL     1      -3.258  15.089  22.337  0.00  0.00    +0.000 OA
ATOM     17  C   UNL     1      -4.190  15.351  21.299  0.00  0.00    +0.000 C 
ENDBRANCH  11  16
ENDBRANCH   1   8
BRANCH   5  18
ATOM     18  N   UNL     1      -0.428  10.620  19.162  0.00  0.00    +0.000 NA
ATOM     19  C   UNL     1      -1.620  10.141  18.995  0.00  0.00    +0.000 C 
BRANCH  19  20
ATOM     20  C   UNL     1      -2.451  10.461  17.817  0.00  0.00    +0.000 A 
ATOM     21  C   UNL     1      -2.075   9.930  16.582  0.00  0.00    +0.000 A 
ATOM     22  C   UNL     1      -2.836  10.208  15.445  0.00  0.00    +0.000 A 
ATOM     23  C   UNL     1      -3.971  11.013  15.543  0.00  0.00    +0.000 A 
ATOM     24  C   UNL     1      -4.351  11.536  16.778  0.00  0.00    +0.000 A 
ATOM     25  C   UNL     1      -3.597  11.251  17.918  0.00  0.00    +0.000 A 
ENDBRANCH  19  20
ENDBRANCH   5  18
BRANCH   4  26
ATOM     26  S   UNL     1       1.827   8.145  19.080  0.00  0.00    +0.000 S 
BRANCH  26  27
ATOM     27  C   UNL     1       2.643   6.798  19.989  0.00  0.00    +0.000 C 
BRANCH  27  28
ATOM     28  C   UNL     1       2.071   5.448  19.605  0.00  0.00    +0.000 A 
ATOM     29  C   UNL     1       2.159   4.995  18.276  0.00  0.00    +0.000 A 
ATOM     30  C   UNL     1       1.629   3.756  17.910  0.00  0.00    +0.000 A 
ATOM     31  C   UNL     1       1.009   2.965  18.870  0.00  0.00    +0.000 A 
ATOM     32  F   UNL     1       0.502   1.776  18.519  0.00  0.00    +0.000 F 
ATOM     33  C   UNL     1       0.905   3.395  20.187  0.00  0.00    +0.000 A 
ATOM     34  C   UNL     1       1.431   4.639  20.556  0.00  0.00    +0.000 A 
ENDBRANCH  27  28
ENDBRANCH  26  27
ENDBRANCH   4  26
TORSDOF 9
ENDMDL
MODEL 2
REMARK VINA RESULT:      -7.7      0.702      2.434
REMARK  Name = 
REMARK  12 active torsions:
REMARK  status: ('A' for Active; 'I' for Inactive)
REMARK    1  A    between atoms: C_1  and  O_2
REMARK    2  A    between atoms: O_2  and  C_3
REMARK    3  A    between atoms: C_5  and  C_6
REMARK    4  A    between atoms: C_9  and  S_10
REMARK    5  A    between atoms: S_10  and  C_11
REMARK    6  A    between atoms: C_11  and  C_12
REMARK    7  A    between atoms: N_19  and  N_20
REMARK    8  A    between atoms: C_21  and  C_22
REMARK    9  A    between atoms: C_29  and  O_30
REMARK   10  A    between atoms: O_30  and  C_31
REMARK   11  A    between atoms: C_32  and  O_33
REMARK   12  A    between atoms: O_33  and  C_34
REMARK                            x       y       z     vdW  Elec       q    Type
REMARK                         _______ _______ _______ _____ _____    ______ ____
ROOT
ATOM      1  C   UNL     1       0.203  10.936  21.493  0.00  0.00    +0.000 A 
ATOM      2  N   UNL     1       0.889  10.202  22.354  0.00  0.00    +0.000 NA
ATOM      3  N   UNL     1       1.450   9.144  21.682  0.00  0.00    +0.000 NA
ATOM      4  C   UNL     1       1.086   9.231  20.425  0.00  0.00    +0.000 A 
ATOM      5  N   UNL     1       0.213  10.299  20.242  0.00  0.00    +0.000 N 
ENDROOT
BRANCH   1   8
ATOM      6  C   UNL     1      -2.644  13.083  22.732  0.00  0.00    +0.000 A 
ATOM      7  C   UNL     1      -1.950  12.029  22.117  0.00  0.00    +0.000 A 
ATOM      8  C   UNL     1      -0.594  12.126  21.817  0.00  0.00    +0.000 A 
ATOM      9  C   UNL     1       0.005  13.382  21.924  0.00  0.00    +0.000 A 
ATOM     10  C   UNL     1      -0.691  14.487  22.453  0.00  0.00    +0.000 A 
ATOM     11  C   UNL     1      -2.024  14.339  22.900  0.00  0.00    +0.000 A 
BRANCH   6  13
ATOM     12  C   UNL     1      -4.100  12.394  24.468  0.00  0.00    +0.000 C 
ATOM     13  O   UNL     1      -3.943  12.896  23.141  0.00  0.00    +0.000 OA
ENDBRANCH   6  13
BRANCH  10  14
ATOM     14  O   UNL     1       0.106  15.606  22.491  0.00  0.00    +0.000 OA
ATOM     15  C   UNL     1       0.174  16.459  21.359  0.00  0.00    +0.000 C 
ENDBRANCH  10  14
BRANCH  11  16
ATOM     16  O   UNL     1      -2.619  15.448  23.437  0.00  0.00    +0.000 OA
ATOM     17  C   UNL     1      -2.460  15.747  24.816  0.00  0.00    +0.000 C 
ENDBRANCH  11  16
ENDBRANCH   1   8
BRANCH   5  18
ATOM     18  N   UNL     1      -0.494  10.744  19.128  0.00  0.00    +0.000 NA
ATOM     19  C   UNL     1      -1.627  10.161  18.895  0.00  0.00    +0.000 C 
BRANCH  19  20
ATOM     20  C   UNL     1      -2.434  10.438  17.689  0.00  0.00    +0.000 A 
ATOM     21  C   UNL     1      -3.562  11.250  17.824  0.00  0.00    +0.000 A 
ATOM     22  C   UNL     1      -4.349  11.537  16.707  0.00  0.00    +0.000 A 
ATOM     23  C   UNL     1      -4.009  11.015  15.459  0.00  0.00    +0.000 A 
ATOM     24  C   UNL     1      -2.878  10.211  15.323  0.00  0.00    +0.000 A 
ATOM     25  C   UNL     1      -2.084   9.931  16.437  0.00  0.00    +0.000 A 
ENDBRANCH  19  20
ENDBRANCH   5  18
BRANCH   4  26
ATOM     26  S   UNL     1       1.716   8.227  19.150  0.00  0.00    +0.000 S 
BRANCH  26  27
ATOM     27  C   UNL     1       2.511   6.906  20.115  0.00  0.00    +0.000 C 
BRANCH  27  28
ATOM     28  C   UNL     1       2.004   5.539  19.701  0.00  0.00    +0.000 A 
ATOM     29  C   UNL     1       2.069   5.139  18.354  0.00  0.00    +0.000 A 
ATOM     30  C   UNL     1       1.598   3.885  17.961  0.00  0.00    +0.000 A 
ATOM     31  C   UNL     1       1.060   3.026  18.912  0.00  0.00    +0.000 A 
ATOM     32  F   UNL     1       0.609   1.822  18.535  0.00  0.00    +0.000 F 
ATOM     33  C   UNL     1       0.980   3.403  20.247  0.00  0.00    +0.000 A 
ATOM     34  C   UNL     1       1.447   4.661  20.643  0.00  0.00    +0.000 A 
ENDBRANCH  27  28
ENDBRANCH  26  27
ENDBRANCH   4  26
TORSDOF 9
ENDMDL
MODEL 3
REMARK VINA RESULT:      -7.6      1.072      2.684
REMARK  Name = 
REMARK  12 active torsions:
REMARK  status: ('A' for Active; 'I' for Inactive)
REMARK    1  A    between atoms: C_1  and  O_2
REMARK    2  A    between atoms: O_2  and  C_3
REMARK    3  A    between atoms: C_5  and  C_6
REMARK    4  A    between atoms: C_9  and  S_10
REMARK    5  A    between atoms: S_10  and  C_11
REMARK    6  A    between atoms: C_11  and  C_12
REMARK    7  A    between atoms: N_19  and  N_20
REMARK    8  A    between atoms: C_21  and  C_22
REMARK    9  A    between atoms: C_29  and  O_30
REMARK   10  A    between atoms: O_30  and  C_31
REMARK   11  A    between atoms: C_32  and  O_33
REMARK   12  A    between atoms: O_33  and  C_34
REMARK                            x       y       z     vdW  Elec       q    Type
REMARK                         _______ _______ _______ _____ _____    ______ ____
ROOT
ATOM      1  C   UNL     1      -0.088  10.782  22.167  0.00  0.00    +0.000 A 
ATOM      2  N   UNL     1       0.489  10.039  23.096  0.00  0.00    +0.000 NA
ATOM      3  N   UNL     1       1.108   8.974  22.488  0.00  0.00    +0.000 NA
ATOM      4  C   UNL     1       0.887   9.068  21.198  0.00  0.00    +0.000 A 
ATOM      5  N   UNL     1       0.054  10.148  20.923  0.00  0.00    +0.000 N 
ENDROOT
BRANCH   1   8
ATOM      6  C   UNL     1      -2.860  13.009  23.437  0.00  0.00    +0.000 A 
ATOM      7  C   UNL     1      -2.196  11.890  22.909  0.00  0.00    +0.000 A 
ATOM      8  C   UNL     1      -0.901  11.982  22.404  0.00  0.00    +0.000 A 
ATOM      9  C   UNL     1      -0.368  13.258  22.217  0.00  0.00    +0.000 A 
ATOM     10  C   UNL     1      -1.049  14.412  22.653  0.00  0.00    +0.000 A 
ATOM     11  C   UNL     1      -2.297  14.295  23.306  0.00  0.00    +0.000 A 
BRANCH   6  13
ATOM     12  C   UNL     1      -5.217  12.984  23.207  0.00  0.00    +0.000 C 
ATOM     13  O   UNL     1      -4.076  12.849  24.055  0.00  0.00    +0.000 OA
ENDBRANCH   6  13
BRANCH  10  14
ATOM     14  O   UNL     1      -0.321  15.548  22.392  0.00  0.00    +0.000 OA
ATOM     15  C   UNL     1       1.066  15.444  22.109  0.00  0.00    +0.000 C 
ENDBRANCH  10  14
BRANCH  11  16
ATOM     16  O   UNL     1      -2.877  15.459  23.735  0.00  0.00    +0.000 OA
ATOM     17  C   UNL     1      -2.680  15.905  25.068  0.00  0.00    +0.000 C 
ENDBRANCH  11  16
ENDBRANCH   1   8
BRANCH   5  18
ATOM     18  N   UNL     1      -0.520  10.603  19.739  0.00  0.00    +0.000 NA
ATOM     19  C   UNL     1      -1.678  10.110  19.433  0.00  0.00    +0.000 C 
BRANCH  19  20
ATOM     20  C   UNL     1      -2.358  10.403  18.154  0.00  0.00    +0.000 A 
ATOM     21  C   UNL     1      -3.467  11.251  18.178  0.00  0.00    +0.000 A 
ATOM     22  C   UNL     1      -4.136  11.554  16.990  0.00  0.00    +0.000 A 
ATOM     23  C   UNL     1      -3.695  11.013  15.782  0.00  0.00    +0.000 A 
ATOM     24  C   UNL     1      -2.583  10.173  15.758  0.00  0.00    +0.000 A 
ATOM     25  C   UNL     1      -1.907   9.876  16.943  0.00  0.00    +0.000 A 
ENDBRANCH  19  20
ENDBRANCH   5  18
BRANCH   4  26
ATOM     26  S   UNL     1       1.643   8.059  19.998  0.00  0.00    +0.000 S 
BRANCH  26  27
ATOM     27  C   UNL     1       1.674   6.461  20.865  0.00  0.00    +0.000 C 
BRANCH  27  28
ATOM     28  C   UNL     1       1.820   5.308  19.892  0.00  0.00    +0.000 A 
ATOM     29  C   UNL     1       1.361   4.025  20.242  0.00  0.00    +0.000 A 
ATOM     30  C   UNL     1       1.497   2.954  19.355  0.00  0.00    +0.000 A 
ATOM     31  C   UNL     1       2.091   3.162  18.116  0.00  0.00    +0.000 A 
ATOM     32  F   UNL     1       2.219   2.135  17.266  0.00  0.00    +0.000 F 
ATOM     33  C   UNL     1       2.556   4.419  17.752  0.00  0.00    +0.000 A 
ATOM     34  C   UNL     1       2.426   5.493  18.640  0.00  0.00    +0.000 A 
ENDBRANCH  27  28
ENDBRANCH  26  27
ENDBRANCH   4  26
TORSDOF 9
ENDMDL
MODEL 4
REMARK VINA RESULT:      -7.5      0.888      2.311
REMARK  Name = 
REMARK  12 active torsions:
REMARK  status: ('A' for Active; 'I' for Inactive)
REMARK    1  A    between atoms: C_1  and  O_2
REMARK    2  A    between atoms: O_2  and  C_3
REMARK    3  A    between atoms: C_5  and  C_6
REMARK    4  A    between atoms: C_9  and  S_10
REMARK    5  A    between atoms: S_10  and  C_11
REMARK    6  A    between atoms: C_11  and  C_12
REMARK    7  A    between atoms: N_19  and  N_20
REMARK    8  A    between atoms: C_21  and  C_22
REMARK    9  A    between atoms: C_29  and  O_30
REMARK   10  A    between atoms: O_30  and  C_31
REMARK   11  A    between atoms: C_32  and  O_33
REMARK   12  A    between atoms: O_33  and  C_34
REMARK                            x       y       z     vdW  Elec       q    Type
REMARK                         _______ _______ _______ _____ _____    ______ ____
ROOT
ATOM      1  C   UNL     1       0.261  10.659  21.750  0.00  0.00    +0.000 A 
ATOM      2  N   UNL     1       0.866   9.955  22.692  0.00  0.00    +0.000 NA
ATOM      3  N   UNL     1       1.435   8.846  22.118  0.00  0.00    +0.000 NA
ATOM      4  C   UNL     1       1.157   8.873  20.836  0.00  0.00    +0.000 A 
ATOM      5  N   UNL     1       0.332   9.953  20.538  0.00  0.00    +0.000 N 
ENDROOT
BRANCH   1   8
ATOM      6  C   UNL     1      -2.191  13.110  23.244  0.00  0.00    +0.000 A 
ATOM      7  C   UNL     1      -1.635  11.905  22.786  0.00  0.00    +0.000 A 
ATOM      8  C   UNL     1      -0.518  11.887  21.956  0.00  0.00    +0.000 A 
ATOM      9  C   UNL     1      -0.107  13.097  21.396  0.00  0.00    +0.000 A 
ATOM     10  C   UNL     1      -0.704  14.319  21.765  0.00  0.00    +0.000 A 
ATOM     11  C   UNL     1      -1.738  14.342  22.729  0.00  0.00    +0.000 A 
BRANCH   6  13
ATOM     12  C   UNL     1      -4.502  12.800  23.661  0.00  0.00    +0.000 C 
ATOM     13  O   UNL     1      -3.201  13.083  24.176  0.00  0.00    +0.000 OA
ENDBRANCH   6  13
BRANCH  10  14
ATOM     14  O   UNL     1      -0.119  15.377  21.112  0.00  0.00    +0.000 OA
ATOM     15  C   UNL     1      -0.120  15.416  19.693  0.00  0.00    +0.000 C 
ENDBRANCH  10  14
BRANCH  11  16
ATOM     16  O   UNL     1      -2.240  15.571  23.062  0.00  0.00    +0.000 OA
ATOM     17  C   UNL     1      -3.309  16.131  22.314  0.00  0.00    +0.000 C 
ENDBRANCH  11  16
ENDBRANCH   1   8
BRANCH   5  18
ATOM     18  N   UNL     1      -0.287  10.355  19.358  0.00  0.00    +0.000 NA
ATOM     19  C   UNL     1      -1.573  10.207  19.302  0.00  0.00    +0.000 C 
BRANCH  19  20
ATOM     20  C   UNL     1      -2.355  10.474  18.078  0.00  0.00    +0.000 A 
ATOM     21  C   UNL     1      -1.929   9.890  16.884  0.00  0.00    +0.000 A 
ATOM     22  C   UNL     1      -2.643  10.117  15.705  0.00  0.00    +0.000 A 
ATOM     23  C   UNL     1      -3.781  10.924  15.722  0.00  0.00    +0.000 A 
ATOM     24  C   UNL     1      -4.211  11.500  16.916  0.00  0.00    +0.000 A 
ATOM     25  C   UNL     1      -3.504  11.267  18.097  0.00  0.00    +0.000 A 
ENDBRANCH  19  20
ENDBRANCH   5  18
BRANCH   4  26
ATOM     26  S   UNL     1       1.836   7.782  19.662  0.00  0.00    +0.000 S 
BRANCH  26  27
ATOM     27  C   UNL     1       1.865   6.231  20.610  0.00  0.00    +0.000 C 
BRANCH  27  28
ATOM     28  C   UNL     1       1.976   5.027  19.696  0.00  0.00    +0.000 A 
ATOM     29  C   UNL     1       2.826   5.067  18.576  0.00  0.00    +0.000 A 
ATOM     30  C   UNL     1       2.930   3.966  17.723  0.00  0.00    +0.000 A 
ATOM     31  C   UNL     1       2.186   2.822  17.986  0.00  0.00    +0.000 A 
ATOM     32  F   UNL     1       2.288   1.766  17.169  0.00  0.00    +0.000 F 
ATOM     33  C   UNL     1       1.336   2.763  19.083  0.00  0.00    +0.000 A 
ATOM     34  C   UNL     1       1.226   3.867  19.937  0.00  0.00    +0.000 A 
ENDBRANCH  27  28
ENDBRANCH  26  27
ENDBRANCH   4  26
TORSDOF 9
ENDMDL
MODEL 5
REMARK VINA RESULT:      -7.5      0.668      1.349
REMARK  Name = 
REMARK  12 active torsions:
REMARK  status: ('A' for Active; 'I' for Inactive)
REMARK    1  A    between atoms: C_1  and  O_2
REMARK    2  A    between atoms: O_2  and  C_3
REMARK    3  A    between atoms: C_5  and  C_6
REMARK    4  A    between atoms: C_9  and  S_10
REMARK    5  A    between atoms: S_10  and  C_11
REMARK    6  A    between atoms: C_11  and  C_12
REMARK    7  A    between atoms: N_19  and  N_20
REMARK    8  A    between atoms: C_21  and  C_22
REMARK    9  A    between atoms: C_29  and  O_30
REMARK   10  A    between atoms: O_30  and  C_31
REMARK   11  A    between atoms: C_32  and  O_33
REMARK   12  A    between atoms: O_33  and  C_34
REMARK                            x       y       z     vdW  Elec       q    Type
REMARK                         _______ _______ _______ _____ _____    ______ ____
ROOT
ATOM      1  C   UNL     1       0.484  10.927  21.331  0.00  0.00    +0.000 A 
ATOM      2  N   UNL     1       1.168  10.209  22.206  0.00  0.00    +0.000 NA
ATOM      3  N   UNL     1       1.664   9.096  21.572  0.00  0.00    +0.000 NA
ATOM      4  C   UNL     1       1.262   9.136  20.323  0.00  0.00    +0.000 A 
ATOM      5  N   UNL     1       0.428  10.230  20.114  0.00  0.00    +0.000 N 
ENDROOT
BRANCH   1   8
ATOM      6  C   UNL     1      -1.125  14.307  20.842  0.00  0.00    +0.000 A 
ATOM      7  C   UNL     1      -0.196  13.257  20.759  0.00  0.00    +0.000 A 
ATOM      8  C   UNL     1      -0.254  12.164  21.619  0.00  0.00    +0.000 A 
ATOM      9  C   UNL     1      -1.108  12.249  22.719  0.00  0.00    +0.000 A 
ATOM     10  C   UNL     1      -1.991  13.334  22.883  0.00  0.00    +0.000 A 
ATOM     11  C   UNL     1      -2.035  14.366  21.919  0.00  0.00    +0.000 A 
BRANCH   6  13
ATOM     12  C   UNL     1       0.163  15.793  19.523  0.00  0.00    +0.000 C 
ATOM     13  O   UNL     1      -1.124  15.294  19.887  0.00  0.00    +0.000 OA
ENDBRANCH   6  13
BRANCH  10  14
ATOM     14  O   UNL     1      -2.755  13.188  24.016  0.00  0.00    +0.000 OA
ATOM     15  C   UNL     1      -3.998  12.508  23.942  0.00  0.00    +0.000 C 
ENDBRANCH  10  14
BRANCH  11  16
ATOM     16  O   UNL     1      -2.946  15.366  22.129  0.00  0.00    +0.000 OA
ATOM     17  C   UNL     1      -4.211  15.325  21.487  0.00  0.00    +0.000 C 
ENDBRANCH  11  16
ENDBRANCH   1   8
BRANCH   5  18
ATOM     18  N   UNL     1      -0.297  10.648  19.001  0.00  0.00    +0.000 NA
ATOM     19  C   UNL     1      -1.491  10.160  18.875  0.00  0.00    +0.000 C 
BRANCH  19  20
ATOM     20  C   UNL     1      -2.336  10.414  17.690  0.00  0.00    +0.000 A 
ATOM     21  C   UNL     1      -3.451  11.241  17.842  0.00  0.00    +0.000 A 
ATOM     22  C   UNL     1      -4.273  11.507  16.745  0.00  0.00    +0.000 A 
ATOM     23  C   UNL     1      -3.980  10.950  15.500  0.00  0.00    +0.000 A 
ATOM     24  C   UNL     1      -2.862  10.131  15.347  0.00  0.00    +0.000 A 
ATOM     25  C   UNL     1      -2.033   9.872  16.441  0.00  0.00    +0.000 A 
ENDBRANCH  19  20
ENDBRANCH   5  18
BRANCH   4  26
ATOM     26  S   UNL     1       1.810   8.046  19.082  0.00  0.00    +0.000 S 
BRANCH  26  27
ATOM     27  C   UNL     1       2.501   6.699  20.089  0.00  0.00    +0.000 C 
BRANCH  27  28
ATOM     28  C   UNL     1       1.966   5.351  19.650  0.00  0.00    +0.000 A 
ATOM     29  C   UNL     1       1.319   4.512  20.575  0.00  0.00    +0.000 A 
ATOM     30  C   UNL     1       0.829   3.264  20.183  0.00  0.00    +0.000 A 
ATOM     31  C   UNL     1       0.982   2.852  18.865  0.00  0.00    +0.000 A 
ATOM     32  F   UNL     1       0.510   1.656  18.488  0.00  0.00    +0.000 F 
ATOM     33  C   UNL     1       1.623   3.661  17.935  0.00  0.00    +0.000 A 
ATOM     34  C   UNL     1       2.120   4.910  18.327  0.00  0.00    +0.000 A 
ENDBRANCH  27  28
ENDBRANCH  26  27
ENDBRANCH   4  26
TORSDOF 9
ENDMDL
MODEL 6
REMARK VINA RESULT:      -7.5      1.050      1.561
REMARK  Name = 
REMARK  12 active torsions:
REMARK  status: ('A' for Active; 'I' for Inactive)
REMARK    1  A    between atoms: C_1  and  O_2
REMARK    2  A    between atoms: O_2  and  C_3
REMARK    3  A    between atoms: C_5  and  C_6
REMARK    4  A    between atoms: C_9  and  S_10
REMARK    5  A    between atoms: S_10  and  C_11
REMARK    6  A    between atoms: C_11  and  C_12
REMARK    7  A    between atoms: N_19  and  N_20
REMARK    8  A    between atoms: C_21  and  C_22
REMARK    9  A    between atoms: C_29  and  O_30
REMARK   10  A    between atoms: O_30  and  C_31
REMARK   11  A    between atoms: C_32  and  O_33
REMARK   12  A    between atoms: O_33  and  C_34
REMARK                            x       y       z     vdW  Elec       q    Type
REMARK                         _______ _______ _______ _____ _____    ______ ____
ROOT
ATOM      1  C   UNL     1      -0.036  10.665  21.929  0.00  0.00    +0.000 A 
ATOM      2  N   UNL     1       0.978  10.382  22.730  0.00  0.00    +0.000 NA
ATOM      3  N   UNL     1       1.679   9.328  22.198  0.00  0.00    +0.000 NA
ATOM      4  C   UNL     1       1.077   8.967  21.090  0.00  0.00    +0.000 A 
ATOM      5  N   UNL     1      -0.081   9.715  20.897  0.00  0.00    +0.000 N 
ENDROOT
BRANCH   1   8
ATOM      6  C   UNL     1      -2.190  13.726  21.435  0.00  0.00    +0.000 A 
ATOM      7  C   UNL     1      -1.063  12.889  21.460  0.00  0.00    +0.000 A 
ATOM      8  C   UNL     1      -1.062  11.689  22.166  0.00  0.00    +0.000 A 
ATOM      9  C   UNL     1      -2.122  11.453  23.042  0.00  0.00    +0.000 A 
ATOM     10  C   UNL     1      -3.229  12.321  23.110  0.00  0.00    +0.000 A 
ATOM     11  C   UNL     1      -3.292  13.458  22.273  0.00  0.00    +0.000 A 
BRANCH   6  13
ATOM     12  C   UNL     1      -1.551  15.987  21.131  0.00  0.00    +0.000 C 
ATOM     13  O   UNL     1      -2.201  14.827  20.612  0.00  0.00    +0.000 OA
ENDBRANCH   6  13
BRANCH  10  14
ATOM     14  O   UNL     1      -4.160  11.872  24.016  0.00  0.00    +0.000 OA
ATOM     15  C   UNL     1      -4.405  12.615  25.200  0.00  0.00    +0.000 C 
ENDBRANCH  10  14
BRANCH  11  16
ATOM     16  O   UNL     1      -4.417  14.232  22.370  0.00  0.00    +0.000 OA
ATOM     17  C   UNL     1      -5.537  13.970  21.537  0.00  0.00    +0.000 C 
ENDBRANCH  11  16
ENDBRANCH   1   8
BRANCH   5  18
ATOM     18  N   UNL     1      -1.081   9.651  19.930  0.00  0.00    +0.000 NA
ATOM     19  C   UNL     1      -0.912  10.387  18.877  0.00  0.00    +0.000 C 
BRANCH  19  20
ATOM     20  C   UNL     1      -1.938  10.518  17.822  0.00  0.00    +0.000 A 
ATOM     21  C   UNL     1      -3.007  11.387  18.049  0.00  0.00    +0.000 A 
ATOM     22  C   UNL     1      -3.996  11.540  17.075  0.00  0.00    +0.000 A 
ATOM     23  C   UNL     1      -3.914  10.828  15.878  0.00  0.00    +0.000 A 
ATOM     24  C   UNL     1      -2.842   9.967  15.649  0.00  0.00    +0.000 A 
ATOM     25  C   UNL     1      -1.847   9.820  16.618  0.00  0.00    +0.000 A 
ENDBRANCH  19  20
ENDBRANCH   5  18
BRANCH   4  26
ATOM     26  S   UNL     1       1.715   7.806  19.961  0.00  0.00    +0.000 S 
BRANCH  26  27
ATOM     27  C   UNL     1       1.440   6.256  20.870  0.00  0.00    +0.000 C 
BRANCH  27  28
ATOM     28  C   UNL     1       1.621   5.049  19.970  0.00  0.00    +0.000 A 
ATOM     29  C   UNL     1       1.111   3.797  20.357  0.00  0.00    +0.000 A 
ATOM     30  C   UNL     1       1.278   2.677  19.539  0.00  0.00    +0.000 A 
ATOM     31  C   UNL     1       1.955   2.805  18.332  0.00  0.00    +0.000 A 
ATOM     32  F   UNL     1       2.114   1.732  17.547  0.00  0.00    +0.000 F 
ATOM     33  C   UNL     1       2.472   4.031  17.933  0.00  0.00    +0.000 A 
ATOM     34  C   UNL     1       2.310   5.154  18.753  0.00  0.00    +0.000 A 
ENDBRANCH  27  28
ENDBRANCH  26  27
ENDBRANCH   4  26
TORSDOF 9
ENDMDL
MODEL 7
REMARK VINA RESULT:      -7.5      0.990      1.537
REMARK  Name = 
REMARK  12 active torsions:
REMARK  status: ('A' for Active; 'I' for Inactive)
REMARK    1  A    between atoms: C_1  and  O_2
REMARK    2  A    between atoms: O_2  and  C_3
REMARK    3  A    between atoms: C_5  and  C_6
REMARK    4  A    between atoms: C_9  and  S_10
REMARK    5  A    between atoms: S_10  and  C_11
REMARK    6  A    between atoms: C_11  and  C_12
REMARK    7  A    between atoms: N_19  and  N_20
REMARK    8  A    between atoms: C_21  and  C_22
REMARK    9  A    between atoms: C_29  and  O_30
REMARK   10  A    between atoms: O_30  and  C_31
REMARK   11  A    between atoms: C_32  and  O_33
REMARK   12  A    between atoms: O_33  and  C_34
REMARK                            x       y       z     vdW  Elec       q    Type
REMARK                         _______ _______ _______ _____ _____    ______ ____
ROOT
ATOM      1  C   UNL     1      -0.068  10.928  21.981  0.00  0.00    +0.000 A 
ATOM      2  N   UNL     1       0.711  10.182  22.747  0.00  0.00    +0.000 NA
ATOM      3  N   UNL     1       1.308   9.222  21.968  0.00  0.00    +0.000 NA
ATOM      4  C   UNL     1       0.873   9.379  20.739  0.00  0.00    +0.000 A 
ATOM      5  N   UNL     1      -0.079  10.392  20.684  0.00  0.00    +0.000 N 
ENDROOT
BRANCH   1   8
ATOM      6  C   UNL     1      -1.292  14.428  22.689  0.00  0.00    +0.000 A 
ATOM      7  C   UNL     1      -0.434  13.324  22.570  0.00  0.00    +0.000 A 
ATOM      8  C   UNL     1      -0.927  12.029  22.437  0.00  0.00    +0.000 A 
ATOM      9  C   UNL     1      -2.288  11.827  22.665  0.00  0.00    +0.000 A 
ATOM     10  C   UNL     1      -3.167  12.908  22.879  0.00  0.00    +0.000 A 
ATOM     11  C   UNL     1      -2.679  14.234  22.857  0.00  0.00    +0.000 A 
BRANCH   6  13
ATOM     12  C   UNL     1      -0.227  16.155  23.911  0.00  0.00    +0.000 C 
ATOM     13  O   UNL     1      -0.772  15.700  22.673  0.00  0.00    +0.000 OA
ENDBRANCH   6  13
BRANCH  10  14
ATOM     14  O   UNL     1      -4.460  12.474  23.047  0.00  0.00    +0.000 OA
ATOM     15  C   UNL     1      -5.399  12.640  21.996  0.00  0.00    +0.000 C 
ENDBRANCH  10  14
BRANCH  11  16
ATOM     16  O   UNL     1      -3.601  15.231  23.034  0.00  0.00    +0.000 OA
ATOM     17  C   UNL     1      -3.996  15.612  24.343  0.00  0.00    +0.000 C 
ENDBRANCH  11  16
ENDBRANCH   1   8
BRANCH   5  18
ATOM     18  N   UNL     1      -0.872  10.868  19.644  0.00  0.00    +0.000 NA
ATOM     19  C   UNL     1      -1.603   9.993  19.029  0.00  0.00    +0.000 C 
BRANCH  19  20
ATOM     20  C   UNL     1      -2.405  10.321  17.833  0.00  0.00    +0.000 A 
ATOM     21  C   UNL     1      -3.460  11.225  17.975  0.00  0.00    +0.000 A 
ATOM     22  C   UNL     1      -4.240  11.562  16.867  0.00  0.00    +0.000 A 
ATOM     23  C   UNL     1      -3.965  10.999  15.621  0.00  0.00    +0.000 A 
ATOM     24  C   UNL     1      -2.906  10.103  15.478  0.00  0.00    +0.000 A 
ATOM     25  C   UNL     1      -2.119   9.772  16.582  0.00  0.00    +0.000 A 
ENDBRANCH  19  20
ENDBRANCH   5  18
BRANCH   4  26
ATOM     26  S   UNL     1       1.504   8.525  19.360  0.00  0.00    +0.000 S 
BRANCH  26  27
ATOM     27  C   UNL     1       2.448   7.203  20.178  0.00  0.00    +0.000 C 
BRANCH  27  28
ATOM     28  C   UNL     1       1.986   5.833  19.722  0.00  0.00    +0.000 A 
ATOM     29  C   UNL     1       1.496   4.905  20.659  0.00  0.00    +0.000 A 
ATOM     30  C   UNL     1       1.075   3.637  20.251  0.00  0.00    +0.000 A 
ATOM     31  C   UNL     1       1.141   3.293  18.907  0.00  0.00    +0.000 A 
ATOM     32  F   UNL     1       0.736   2.078  18.515  0.00  0.00    +0.000 F 
ATOM     33  C   UNL     1       1.627   4.192  17.965  0.00  0.00    +0.000 A 
ATOM     34  C   UNL     1       2.055   5.461  18.372  0.00  0.00    +0.000 A 
ENDBRANCH  27  28
ENDBRANCH  26  27
ENDBRANCH   4  26
TORSDOF 9
ENDMDL
MODEL 8
REMARK VINA RESULT:      -7.4      0.913      1.238
REMARK  Name = 
REMARK  12 active torsions:
REMARK  status: ('A' for Active; 'I' for Inactive)
REMARK    1  A    between atoms: C_1  and  O_2
REMARK    2  A    between atoms: O_2  and  C_3
REMARK    3  A    between atoms: C_5  and  C_6
REMARK    4  A    between atoms: C_9  and  S_10
REMARK    5  A    between atoms: S_10  and  C_11
REMARK    6  A    between atoms: C_11  and  C_12
REMARK    7  A    between atoms: N_19  and  N_20
REMARK    8  A    between atoms: C_21  and  C_22
REMARK    9  A    between atoms: C_29  and  O_30
REMARK   10  A    between atoms: O_30  and  C_31
REMARK   11  A    between atoms: C_32  and  O_33
REMARK   12  A    between atoms: O_33  and  C_34
REMARK                            x       y       z     vdW  Elec       q    Type
REMARK                         _______ _______ _______ _____ _____    ______ ____
ROOT
ATOM      1  C   UNL     1      -0.128  10.926  22.088  0.00  0.00    +0.000 A 
ATOM      2  N   UNL     1       0.476  10.187  23.004  0.00  0.00    +0.000 NA
ATOM      3  N   UNL     1       1.072   9.116  22.383  0.00  0.00    +0.000 NA
ATOM      4  C   UNL     1       0.810   9.202  21.100  0.00  0.00    +0.000 A 
ATOM      5  N   UNL     1      -0.028  10.283  20.845  0.00  0.00    +0.000 N 
ENDROOT
BRANCH   1   8
ATOM      6  C   UNL     1      -1.162  14.555  22.200  0.00  0.00    +0.000 A 
ATOM      7  C   UNL     1      -0.365  13.401  22.278  0.00  0.00    +0.000 A 
ATOM      8  C   UNL     1      -0.929  12.130  22.343  0.00  0.00    +0.000 A 
ATOM      9  C   UNL     1      -2.303  12.041  22.570  0.00  0.00    +0.000 A 
ATOM     10  C   UNL     1      -3.122  13.188  22.589  0.00  0.00    +0.000 A 
ATOM     11  C   UNL     1      -2.559  14.465  22.366  0.00  0.00    +0.000 A 
BRANCH   6  13
ATOM     12  C   UNL     1       0.853  15.758  21.878  0.00  0.00    +0.000 C 
ATOM     13  O   UNL     1      -0.570  15.778  21.992  0.00  0.00    +0.000 OA
ENDBRANCH   6  13
BRANCH  10  14
ATOM     14  O   UNL     1      -4.439  12.856  22.796  0.00  0.00    +0.000 OA
ATOM     15  C   UNL     1      -5.312  12.722  21.686  0.00  0.00    +0.000 C 
ENDBRANCH  10  14
BRANCH  11  16
ATOM     16  O   UNL     1      -3.425  15.526  22.362  0.00  0.00    +0.000 OA
ATOM     17  C   UNL     1      -3.706  16.223  23.567  0.00  0.00    +0.000 C 
ENDBRANCH  11  16
ENDBRANCH   1   8
BRANCH   5  18
ATOM     18  N   UNL     1      -0.638  10.732  19.677  0.00  0.00    +0.000 NA
ATOM     19  C   UNL     1      -1.737  10.137  19.334  0.00  0.00    +0.000 C 
BRANCH  19  20
ATOM     20  C   UNL     1      -2.435  10.419  18.063  0.00  0.00    +0.000 A 
ATOM     21  C   UNL     1      -1.922   9.856  16.892  0.00  0.00    +0.000 A 
ATOM     22  C   UNL     1      -2.555  10.098  15.671  0.00  0.00    +0.000 A 
ATOM     23  C   UNL     1      -3.697  10.897  15.621  0.00  0.00    +0.000 A 
ATOM     24  C   UNL     1      -4.213  11.452  16.792  0.00  0.00    +0.000 A 
ATOM     25  C   UNL     1      -3.587  11.204  18.015  0.00  0.00    +0.000 A 
ENDBRANCH  19  20
ENDBRANCH   5  18
BRANCH   4  26
ATOM     26  S   UNL     1       1.524   8.182  19.884  0.00  0.00    +0.000 S 
BRANCH  26  27
ATOM     27  C   UNL     1       1.871   6.683  20.854  0.00  0.00    +0.000 C 
BRANCH  27  28
ATOM     28  C   UNL     1       1.841   5.444  19.982  0.00  0.00    +0.000 A 
ATOM     29  C   UNL     1       1.358   4.228  20.500  0.00  0.00    +0.000 A 
ATOM     30  C   UNL     1       1.332   3.078  19.708  0.00  0.00    +0.000 A 
ATOM     31  C   UNL     1       1.788   3.138  18.397  0.00  0.00    +0.000 A 
ATOM     32  F   UNL     1       1.762   2.036  17.637  0.00  0.00    +0.000 F 
ATOM     33  C   UNL     1       2.275   4.327  17.867  0.00  0.00    +0.000 A 
ATOM     34  C   UNL     1       2.306   5.480  18.660  0.00  0.00    +0.000 A 
ENDBRANCH  27  28
ENDBRANCH  26  27
ENDBRANCH   4  26
TORSDOF 9
ENDMDL
MODEL 9
REMARK VINA RESULT:      -7.4      0.964      2.642
REMARK  Name = 
REMARK  12 active torsions:
REMARK  status: ('A' for Active; 'I' for Inactive)
REMARK    1  A    between atoms: C_1  and  O_2
REMARK    2  A    between atoms: O_2  and  C_3
REMARK    3  A    between atoms: C_5  and  C_6
REMARK    4  A    between atoms: C_9  and  S_10
REMARK    5  A    between atoms: S_10  and  C_11
REMARK    6  A    between atoms: C_11  and  C_12
REMARK    7  A    between atoms: N_19  and  N_20
REMARK    8  A    between atoms: C_21  and  C_22
REMARK    9  A    between atoms: C_29  and  O_30
REMARK   10  A    between atoms: O_30  and  C_31
REMARK   11  A    between atoms: C_32  and  O_33
REMARK   12  A    between atoms: O_33  and  C_34
REMARK                            x       y       z     vdW  Elec       q    Type
REMARK                         _______ _______ _______ _____ _____    ______ ____
ROOT
ATOM      1  C   UNL     1       0.438  10.655  21.672  0.00  0.00    +0.000 A 
ATOM      2  N   UNL     1       1.018   9.955  22.633  0.00  0.00    +0.000 NA
ATOM      3  N   UNL     1       1.521   8.798  22.092  0.00  0.00    +0.000 NA
ATOM      4  C   UNL     1       1.228   8.794  20.813  0.00  0.00    +0.000 A 
ATOM      5  N   UNL     1       0.457   9.905  20.486  0.00  0.00    +0.000 N 
ENDROOT
BRANCH   1   8
ATOM      6  C   UNL     1      -1.878  13.276  23.094  0.00  0.00    +0.000 A 
ATOM      7  C   UNL     1      -1.388  12.030  22.671  0.00  0.00    +0.000 A 
ATOM      8  C   UNL     1      -0.273  11.929  21.843  0.00  0.00    +0.000 A 
ATOM      9  C   UNL     1       0.202  13.099  21.250  0.00  0.00    +0.000 A 
ATOM     10  C   UNL     1      -0.329  14.362  21.584  0.00  0.00    +0.000 A 
ATOM     11  C   UNL     1      -1.359  14.467  22.545  0.00  0.00    +0.000 A 
BRANCH   6  13
ATOM     12  C   UNL     1      -3.793  12.224  24.010  0.00  0.00    +0.000 C 
ATOM     13  O   UNL     1      -2.889  13.329  24.024  0.00  0.00    +0.000 OA
ENDBRANCH   6  13
BRANCH  10  14
ATOM     14  O   UNL     1       0.313  15.368  20.903  0.00  0.00    +0.000 OA
ATOM     15  C   UNL     1       1.277  15.042  19.912  0.00  0.00    +0.000 C 
ENDBRANCH  10  14
BRANCH  11  16
ATOM     16  O   UNL     1      -1.795  15.730  22.843  0.00  0.00    +0.000 OA
ATOM     17  C   UNL     1      -2.876  16.301  22.121  0.00  0.00    +0.000 C 
ENDBRANCH  11  16
ENDBRANCH   1   8
BRANCH   5  18
ATOM     18  N   UNL     1      -0.156  10.296  19.299  0.00  0.00    +0.000 NA
ATOM     19  C   UNL     1      -1.441  10.144  19.237  0.00  0.00    +0.000 C 
BRANCH  19  20
ATOM     20  C   UNL     1      -2.217  10.401  18.006  0.00  0.00    +0.000 A 
ATOM     21  C   UNL     1      -3.287  11.295  18.076  0.00  0.00    +0.000 A 
ATOM     22  C   UNL     1      -4.042  11.565  16.934  0.00  0.00    +0.000 A 
ATOM     23  C   UNL     1      -3.728  10.945  15.724  0.00  0.00    +0.000 A 
ATOM     24  C   UNL     1      -2.654  10.058  15.653  0.00  0.00    +0.000 A 
ATOM     25  C   UNL     1      -1.891   9.794  16.792  0.00  0.00    +0.000 A 
ENDBRANCH  19  20
ENDBRANCH   5  18
BRANCH   4  26
ATOM     26  S   UNL     1       1.835   7.628  19.672  0.00  0.00    +0.000 S 
BRANCH  26  27
ATOM     27  C   UNL     1       1.660   6.090  20.626  0.00  0.00    +0.000 C 
BRANCH  27  28
ATOM     28  C   UNL     1       1.857   4.871  19.748  0.00  0.00    +0.000 A 
ATOM     29  C   UNL     1       1.782   3.581  20.303  0.00  0.00    +0.000 A 
ATOM     30  C   UNL     1       1.968   2.450  19.504  0.00  0.00    +0.000 A 
ATOM     31  C   UNL     1       2.230   2.606  18.148  0.00  0.00    +0.000 A 
ATOM     32  F   UNL     1       2.408   1.522  17.382  0.00  0.00    +0.000 F 
ATOM     33  C   UNL     1       2.315   3.871  17.579  0.00  0.00    +0.000 A 
ATOM     34  C   UNL     1       2.133   5.005  18.379  0.00  0.00    +0.000 A 
ENDBRANCH  27  28
ENDBRANCH  26  27
ENDBRANCH   4  26
TORSDOF 9
ENDMDL
