MODEL 1
REMARK VINA RESULT:      -6.3      0.000      0.000
REMARK  Name = 
REMARK  8 active torsions:
REMARK  status: ('A' for Active; 'I' for Inactive)
REMARK    1  A    between atoms: C_1  and  O_2
REMARK    2  A    between atoms: O_2  and  C_3
REMARK    3  A    between atoms: C_3  and  C_5
REMARK    4  A    between atoms: C_5  and  C_6
REMARK    5  A    between atoms: C_5  and  N_7
REMARK    6  A    between atoms: C_5  and  C_8
REMARK    7  A    between atoms: C_11  and  O_12
REMARK    8  A    between atoms: O_12  and  C_13
REMARK                            x       y       z     vdW  Elec       q    Type
REMARK                         _______ _______ _______ _____ _____    ______ ____
ROOT
ATOM      1  C   UNL     1       5.599   5.391  15.838  0.00  0.00    +0.000 C 
ATOM      2  C   UNL     1       5.701   4.368  14.687  0.00  0.00    +0.000 C 
ENDROOT
BRANCH   1   3
ATOM      3  C   UNL     1       4.488   5.086  16.851  0.00  0.00    +0.000 A 
ATOM      4  C   UNL     1       3.940   3.804  17.014  0.00  0.00    +0.000 A 
ATOM      5  C   UNL     1       2.877   3.576  17.893  0.00  0.00    +0.000 A 
ATOM      6  C   UNL     1       2.342   4.615  18.650  0.00  0.00    +0.000 A 
ATOM      7  C   UNL     1       2.870   5.895  18.514  0.00  0.00    +0.000 A 
ATOM      8  C   UNL     1       3.927   6.129  17.621  0.00  0.00    +0.000 A 
BRANCH   6   9
ATOM      9  O   UNL     1       1.282   4.263  19.437  0.00  0.00    +0.000 OA
ATOM     10  C   UNL     1       1.595   3.876  20.769  0.00  0.00    +0.000 C 
ENDBRANCH   6   9
ENDBRANCH   1   3
BRANCH   1  11
ATOM     11  N   UNL     1       5.305   6.715  15.221  0.00  0.00    +0.000 NA
ATOM     12  H   UNL     1       5.286   6.613  14.207  0.00  0.00    +0.000 HD
ATOM     13  H   UNL     1       6.076   7.348  15.445  0.00  0.00    +0.000 HD
ENDBRANCH   1  11
BRANCH   1  14
ATOM     14  C   UNL     1       7.031   5.448  16.453  0.00  0.00    +0.000 C 
ATOM     15  O   UNL     1       7.605   4.464  16.916  0.00  0.00    +0.000 OA
BRANCH  14  17
ATOM     16  C   UNL     1       7.675   7.210  17.865  0.00  0.00    +0.000 C 
ATOM     17  O   UNL     1       7.518   6.720  16.532  0.00  0.00    +0.000 OA
ENDBRANCH  14  17
ENDBRANCH   1  14
TORSDOF 5
ENDMDL
MODEL 2
REMARK VINA RESULT:      -6.2      0.284      1.271
REMARK  Name = 
REMARK  8 active torsions:
REMARK  status: ('A' for Active; 'I' for Inactive)
REMARK    1  A    between atoms: C_1  and  O_2
REMARK    2  A    between atoms: O_2  and  C_3
REMARK    3  A    between atoms: C_3  and  C_5
REMARK    4  A    between atoms: C_5  and  C_6
REMARK    5  A    between atoms: C_5  and  N_7
REMARK    6  A    between atoms: C_5  and  C_8
REMARK    7  A    between atoms: C_11  and  O_12
REMARK    8  A    between atoms: O_12  and  C_13
REMARK                            x       y       z     vdW  Elec       q    Type
REMARK                         _______ _______ _______ _____ _____    ______ ____
ROOT
ATOM      1  C   UNL     1       5.657   5.375  15.820  0.00  0.00    +0.000 C 
ATOM      2  C   UNL     1       5.775   4.332  14.688  0.00  0.00    +0.000 C 
ENDROOT
BRANCH   1   3
ATOM      3  C   UNL     1       4.535   5.086  16.825  0.00  0.00    +0.000 A 
ATOM      4  C   UNL     1       4.041   6.057  17.712  0.00  0.00    +0.000 A 
ATOM      5  C   UNL     1       3.069   5.739  18.665  0.00  0.00    +0.000 A 
ATOM      6  C   UNL     1       2.548   4.451  18.752  0.00  0.00    +0.000 A 
ATOM      7  C   UNL     1       3.015   3.471  17.882  0.00  0.00    +0.000 A 
ATOM      8  C   UNL     1       4.001   3.783  16.934  0.00  0.00    +0.000 A 
BRANCH   6   9
ATOM      9  O   UNL     1       1.637   4.268  19.754  0.00  0.00    +0.000 OA
ATOM     10  C   UNL     1       2.114   4.473  21.076  0.00  0.00    +0.000 C 
ENDBRANCH   6   9
ENDBRANCH   1   3
BRANCH   1  11
ATOM     11  N   UNL     1       5.367   6.688  15.176  0.00  0.00    +0.000 NA
ATOM     12  H   UNL     1       4.470   6.632  14.696  0.00  0.00    +0.000 HD
ATOM     13  H   UNL     1       6.080   6.856  14.463  0.00  0.00    +0.000 HD
ENDBRANCH   1  11
BRANCH   1  14
ATOM     14  C   UNL     1       7.081   5.447  16.449  0.00  0.00    +0.000 C 
ATOM     15  O   UNL     1       7.653   4.472  16.937  0.00  0.00    +0.000 OA
BRANCH  14  17
ATOM     16  C   UNL     1       7.677   7.247  17.836  0.00  0.00    +0.000 C 
ATOM     17  O   UNL     1       7.565   6.721  16.511  0.00  0.00    +0.000 OA
ENDBRANCH  14  17
ENDBRANCH   1  14
TORSDOF 5
ENDMDL
MODEL 3
REMARK VINA RESULT:      -6.2      1.322      1.382
REMARK  Name = 
REMARK  8 active torsions:
REMARK  status: ('A' for Active; 'I' for Inactive)
REMARK    1  A    between atoms: C_1  and  O_2
REMARK    2  A    between atoms: O_2  and  C_3
REMARK    3  A    between atoms: C_3  and  C_5
REMARK    4  A    between atoms: C_5  and  C_6
REMARK    5  A    between atoms: C_5  and  N_7
REMARK    6  A    between atoms: C_5  and  C_8
REMARK    7  A    between atoms: C_11  and  O_12
REMARK    8  A    between atoms: O_12  and  C_13
REMARK                            x       y       z     vdW  Elec       q    Type
REMARK                         _______ _______ _______ _____ _____    ______ ____
ROOT
ATOM      1  C   UNL     1       5.984   5.273  16.548  0.00  0.00    +0.000 C 
ATOM      2  C   UNL     1       6.306   4.889  15.088  0.00  0.00    +0.000 C 
ENDROOT
BRANCH   1   3
ATOM      3  C   UNL     1       4.620   4.774  17.042  0.00  0.00    +0.000 A 
ATOM      4  C   UNL     1       4.227   3.429  16.955  0.00  0.00    +0.000 A 
ATOM      5  C   UNL     1       2.948   3.021  17.346  0.00  0.00    +0.000 A 
ATOM      6  C   UNL     1       2.030   3.937  17.853  0.00  0.00    +0.000 A 
ATOM      7  C   UNL     1       2.396   5.275  17.957  0.00  0.00    +0.000 A 
ATOM      8  C   UNL     1       3.673   5.689  17.551  0.00  0.00    +0.000 A 
BRANCH   6   9
ATOM      9  O   UNL     1       0.807   3.412  18.158  0.00  0.00    +0.000 OA
ATOM     10  C   UNL     1       0.700   2.772  19.422  0.00  0.00    +0.000 C 
ENDBRANCH   6   9
ENDBRANCH   1   3
BRANCH   1  11
ATOM     11  N   UNL     1       5.979   6.762  16.617  0.00  0.00    +0.000 NA
ATOM     12  H   UNL     1       6.912   7.108  16.399  0.00  0.00    +0.000 HD
ATOM     13  H   UNL     1       5.774   7.035  17.580  0.00  0.00    +0.000 HD
ENDBRANCH   1  11
BRANCH   1  14
ATOM     14  C   UNL     1       7.197   4.753  17.378  0.00  0.00    +0.000 C 
ATOM     15  O   UNL     1       8.188   4.230  16.868  0.00  0.00    +0.000 OA
BRANCH  14  17
ATOM     16  C   UNL     1       7.842   5.746  19.406  0.00  0.00    +0.000 C 
ATOM     17  O   UNL     1       6.985   4.828  18.723  0.00  0.00    +0.000 OA
ENDBRANCH  14  17
ENDBRANCH   1  14
TORSDOF 5
ENDMDL
MODEL 4
REMARK VINA RESULT:      -6.2      1.714      2.270
REMARK  Name = 
REMARK  8 active torsions:
REMARK  status: ('A' for Active; 'I' for Inactive)
REMARK    1  A    between atoms: C_1  and  O_2
REMARK    2  A    between atoms: O_2  and  C_3
REMARK    3  A    between atoms: C_3  and  C_5
REMARK    4  A    between atoms: C_5  and  C_6
REMARK    5  A    between atoms: C_5  and  N_7
REMARK    6  A    between atoms: C_5  and  C_8
REMARK    7  A    between atoms: C_11  and  O_12
REMARK    8  A    between atoms: O_12  and  C_13
REMARK                            x       y       z     vdW  Elec       q    Type
REMARK                         _______ _______ _______ _____ _____    ______ ____
ROOT
ATOM      1  C   UNL     1       6.436   5.726  17.846  0.00  0.00    +0.000 C 
ATOM      2  C   UNL     1       6.516   7.220  17.468  0.00  0.00    +0.000 C 
ENDROOT
BRANCH   1   3
ATOM      3  C   UNL     1       5.007   5.171  17.911  0.00  0.00    +0.000 A 
ATOM      4  C   UNL     1       4.718   3.802  17.788  0.00  0.00    +0.000 A 
ATOM      5  C   UNL     1       3.399   3.339  17.778  0.00  0.00    +0.000 A 
ATOM      6  C   UNL     1       2.330   4.222  17.909  0.00  0.00    +0.000 A 
ATOM      7  C   UNL     1       2.588   5.583  18.039  0.00  0.00    +0.000 A 
ATOM      8  C   UNL     1       3.911   6.052  18.035  0.00  0.00    +0.000 A 
BRANCH   6   9
ATOM      9  O   UNL     1       1.096   3.641  17.842  0.00  0.00    +0.000 OA
ATOM     10  C   UNL     1       0.914   2.469  18.625  0.00  0.00    +0.000 C 
ENDBRANCH   6   9
ENDBRANCH   1   3
BRANCH   1  11
ATOM     11  N   UNL     1       7.044   5.584  19.199  0.00  0.00    +0.000 NA
ATOM     12  H   UNL     1       6.318   5.700  19.904  0.00  0.00    +0.000 HD
ATOM     13  H   UNL     1       7.713   6.346  19.328  0.00  0.00    +0.000 HD
ENDBRANCH   1  11
BRANCH   1  14
ATOM     14  C   UNL     1       7.360   5.002  16.820  0.00  0.00    +0.000 C 
ATOM     15  O   UNL     1       8.154   4.116  17.136  0.00  0.00    +0.000 OA
BRANCH  14  17
ATOM     16  C   UNL     1       6.816   4.636  14.565  0.00  0.00    +0.000 C 
ATOM     17  O   UNL     1       7.280   5.541  15.570  0.00  0.00    +0.000 OA
ENDBRANCH  14  17
ENDBRANCH   1  14
TORSDOF 5
ENDMDL
MODEL 5
REMARK VINA RESULT:      -6.1      1.075      1.681
REMARK  Name = 
REMARK  8 active torsions:
REMARK  status: ('A' for Active; 'I' for Inactive)
REMARK    1  A    between atoms: C_1  and  O_2
REMARK    2  A    between atoms: O_2  and  C_3
REMARK    3  A    between atoms: C_3  and  C_5
REMARK    4  A    between atoms: C_5  and  C_6
REMARK    5  A    between atoms: C_5  and  N_7
REMARK    6  A    between atoms: C_5  and  C_8
REMARK    7  A    between atoms: C_11  and  O_12
REMARK    8  A    between atoms: O_12  and  C_13
REMARK                            x       y       z     vdW  Elec       q    Type
REMARK                         _______ _______ _______ _____ _____    ______ ____
ROOT
ATOM      1  C   UNL     1       5.837   5.381  16.453  0.00  0.00    +0.000 C 
ATOM      2  C   UNL     1       6.048   4.952  14.985  0.00  0.00    +0.000 C 
ENDROOT
BRANCH   1   3
ATOM      3  C   UNL     1       4.488   4.950  17.045  0.00  0.00    +0.000 A 
ATOM      4  C   UNL     1       3.644   5.836  17.733  0.00  0.00    +0.000 A 
ATOM      5  C   UNL     1       2.457   5.393  18.324  0.00  0.00    +0.000 A 
ATOM      6  C   UNL     1       2.066   4.060  18.230  0.00  0.00    +0.000 A 
ATOM      7  C   UNL     1       2.881   3.161  17.548  0.00  0.00    +0.000 A 
ATOM      8  C   UNL     1       4.080   3.601  16.967  0.00  0.00    +0.000 A 
BRANCH   6   9
ATOM      9  O   UNL     1       0.908   3.755  18.886  0.00  0.00    +0.000 OA
ATOM     10  C   UNL     1       0.979   3.740  20.305  0.00  0.00    +0.000 C 
ENDBRANCH   6   9
ENDBRANCH   1   3
BRANCH   1  11
ATOM     11  N   UNL     1       5.897   6.870  16.487  0.00  0.00    +0.000 NA
ATOM     12  H   UNL     1       5.589   7.195  17.402  0.00  0.00    +0.000 HD
ATOM     13  H   UNL     1       5.231   7.230  15.800  0.00  0.00    +0.000 HD
ENDBRANCH   1  11
BRANCH   1  14
ATOM     14  C   UNL     1       7.079   4.828  17.216  0.00  0.00    +0.000 C 
ATOM     15  O   UNL     1       8.070   4.369  16.648  0.00  0.00    +0.000 OA
BRANCH  14  17
ATOM     16  C   UNL     1       7.728   5.695  19.300  0.00  0.00    +0.000 C 
ATOM     17  O   UNL     1       6.894   4.794  18.567  0.00  0.00    +0.000 OA
ENDBRANCH  14  17
ENDBRANCH   1  14
TORSDOF 5
ENDMDL
MODEL 6
REMARK VINA RESULT:      -6.1      0.728      1.075
REMARK  Name = 
REMARK  8 active torsions:
REMARK  status: ('A' for Active; 'I' for Inactive)
REMARK    1  A    between atoms: C_1  and  O_2
REMARK    2  A    between atoms: O_2  and  C_3
REMARK    3  A    between atoms: C_3  and  C_5
REMARK    4  A    between atoms: C_5  and  C_6
REMARK    5  A    between atoms: C_5  and  N_7
REMARK    6  A    between atoms: C_5  and  C_8
REMARK    7  A    between atoms: C_11  and  O_12
REMARK    8  A    between atoms: O_12  and  C_13
REMARK                            x       y       z     vdW  Elec       q    Type
REMARK                         _______ _______ _______ _____ _____    ______ ____
ROOT
ATOM      1  C   UNL     1       5.745   5.576  16.055  0.00  0.00    +0.000 C 
ATOM      2  C   UNL     1       6.271   4.524  15.055  0.00  0.00    +0.000 C 
ENDROOT
BRANCH   1   3
ATOM      3  C   UNL     1       4.553   5.101  16.897  0.00  0.00    +0.000 A 
ATOM      4  C   UNL     1       4.108   3.769  16.898  0.00  0.00    +0.000 A 
ATOM      5  C   UNL     1       2.974   3.385  17.619  0.00  0.00    +0.000 A 
ATOM      6  C   UNL     1       2.260   4.312  18.375  0.00  0.00    +0.000 A 
ATOM      7  C   UNL     1       2.683   5.638  18.397  0.00  0.00    +0.000 A 
ATOM      8  C   UNL     1       3.813   6.028  17.662  0.00  0.00    +0.000 A 
BRANCH   6   9
ATOM      9  O   UNL     1       1.151   3.813  18.996  0.00  0.00    +0.000 OA
ATOM     10  C   UNL     1       1.028   4.104  20.382  0.00  0.00    +0.000 C 
ENDBRANCH   6   9
ENDBRANCH   1   3
BRANCH   1  11
ATOM     11  N   UNL     1       5.300   6.753  15.256  0.00  0.00    +0.000 NA
ATOM     12  H   UNL     1       5.975   6.925  14.513  0.00  0.00    +0.000 HD
ATOM     13  H   UNL     1       5.309   7.573  15.866  0.00  0.00    +0.000 HD
ENDBRANCH   1  11
BRANCH   1  14
ATOM     14  C   UNL     1       6.992   5.998  16.888  0.00  0.00    +0.000 C 
ATOM     15  O   UNL     1       7.683   6.981  16.619  0.00  0.00    +0.000 OA
BRANCH  14  17
ATOM     16  C   UNL     1       7.607   5.678  19.133  0.00  0.00    +0.000 C 
ATOM     17  O   UNL     1       7.302   5.096  17.863  0.00  0.00    +0.000 OA
ENDBRANCH  14  17
ENDBRANCH   1  14
TORSDOF 5
ENDMDL
MODEL 7
REMARK VINA RESULT:      -6.1      1.652      2.691
REMARK  Name = 
REMARK  8 active torsions:
REMARK  status: ('A' for Active; 'I' for Inactive)
REMARK    1  A    between atoms: C_1  and  O_2
REMARK    2  A    between atoms: O_2  and  C_3
REMARK    3  A    between atoms: C_3  and  C_5
REMARK    4  A    between atoms: C_5  and  C_6
REMARK    5  A    between atoms: C_5  and  N_7
REMARK    6  A    between atoms: C_5  and  C_8
REMARK    7  A    between atoms: C_11  and  O_12
REMARK    8  A    between atoms: O_12  and  C_13
REMARK                            x       y       z     vdW  Elec       q    Type
REMARK                         _______ _______ _______ _____ _____    ______ ____
ROOT
ATOM      1  C   UNL     1       6.800   5.210  17.262  0.00  0.00    +0.000 C 
ATOM      2  C   UNL     1       7.299   6.656  17.470  0.00  0.00    +0.000 C 
ENDROOT
BRANCH   1   3
ATOM      3  C   UNL     1       5.372   4.962  17.764  0.00  0.00    +0.000 A 
ATOM      4  C   UNL     1       4.276   5.734  17.347  0.00  0.00    +0.000 A 
ATOM      5  C   UNL     1       3.000   5.529  17.880  0.00  0.00    +0.000 A 
ATOM      6  C   UNL     1       2.774   4.536  18.830  0.00  0.00    +0.000 A 
ATOM      7  C   UNL     1       3.841   3.751  19.256  0.00  0.00    +0.000 A 
ATOM      8  C   UNL     1       5.126   3.965  18.733  0.00  0.00    +0.000 A 
BRANCH   6   9
ATOM      9  O   UNL     1       1.492   4.470  19.296  0.00  0.00    +0.000 OA
ATOM     10  C   UNL     1       1.340   4.062  20.649  0.00  0.00    +0.000 C 
ENDBRANCH   6   9
ENDBRANCH   1   3
BRANCH   1  11
ATOM     11  N   UNL     1       7.716   4.318  18.029  0.00  0.00    +0.000 NA
ATOM     12  H   UNL     1       8.563   4.834  18.264  0.00  0.00    +0.000 HD
ATOM     13  H   UNL     1       7.993   3.547  17.418  0.00  0.00    +0.000 HD
ENDBRANCH   1  11
BRANCH   1  14
ATOM     14  C   UNL     1       7.006   4.928  15.743  0.00  0.00    +0.000 C 
ATOM     15  O   UNL     1       7.656   5.665  15.003  0.00  0.00    +0.000 OA
BRANCH  14  17
ATOM     16  C   UNL     1       6.030   3.846  13.901  0.00  0.00    +0.000 C 
ATOM     17  O   UNL     1       6.289   3.853  15.307  0.00  0.00    +0.000 OA
ENDBRANCH  14  17
ENDBRANCH   1  14
TORSDOF 5
ENDMDL
MODEL 8
REMARK VINA RESULT:      -6.1      1.624      2.508
REMARK  Name = 
REMARK  8 active torsions:
REMARK  status: ('A' for Active; 'I' for Inactive)
REMARK    1  A    between atoms: C_1  and  O_2
REMARK    2  A    between atoms: O_2  and  C_3
REMARK    3  A    between atoms: C_3  and  C_5
REMARK    4  A    between atoms: C_5  and  C_6
REMARK    5  A    between atoms: C_5  and  N_7
REMARK    6  A    between atoms: C_5  and  C_8
REMARK    7  A    between atoms: C_11  and  O_12
REMARK    8  A    between atoms: O_12  and  C_13
REMARK                            x       y       z     vdW  Elec       q    Type
REMARK                         _______ _______ _______ _____ _____    ______ ____
ROOT
ATOM      1  C   UNL     1       6.801   5.218  17.308  0.00  0.00    +0.000 C 
ATOM      2  C   UNL     1       7.304   6.663  17.513  0.00  0.00    +0.000 C 
ENDROOT
BRANCH   1   3
ATOM      3  C   UNL     1       5.379   4.970  17.827  0.00  0.00    +0.000 A 
ATOM      4  C   UNL     1       5.042   3.861  18.620  0.00  0.00    +0.000 A 
ATOM      5  C   UNL     1       3.722   3.626  19.013  0.00  0.00    +0.000 A 
ATOM      6  C   UNL     1       2.701   4.497  18.645  0.00  0.00    +0.000 A 
ATOM      7  C   UNL     1       3.007   5.608  17.864  0.00  0.00    +0.000 A 
ATOM      8  C   UNL     1       4.329   5.838  17.456  0.00  0.00    +0.000 A 
BRANCH   6   9
ATOM      9  O   UNL     1       1.453   4.128  19.061  0.00  0.00    +0.000 OA
ATOM     10  C   UNL     1       1.165   4.344  20.436  0.00  0.00    +0.000 C 
ENDBRANCH   6   9
ENDBRANCH   1   3
BRANCH   1  11
ATOM     11  N   UNL     1       7.725   4.323  18.061  0.00  0.00    +0.000 NA
ATOM     12  H   UNL     1       8.400   4.893  18.569  0.00  0.00    +0.000 HD
ATOM     13  H   UNL     1       8.251   3.767  17.384  0.00  0.00    +0.000 HD
ENDBRANCH   1  11
BRANCH   1  14
ATOM     14  C   UNL     1       6.988   4.939  15.786  0.00  0.00    +0.000 C 
ATOM     15  O   UNL     1       7.613   5.688  15.035  0.00  0.00    +0.000 OA
BRANCH  14  17
ATOM     16  C   UNL     1       5.923   3.884  13.978  0.00  0.00    +0.000 C 
ATOM     17  O   UNL     1       6.284   3.851  15.361  0.00  0.00    +0.000 OA
ENDBRANCH  14  17
ENDBRANCH   1  14
TORSDOF 5
ENDMDL
MODEL 9
REMARK VINA RESULT:      -6.1      1.760      2.497
REMARK  Name = 
REMARK  8 active torsions:
REMARK  status: ('A' for Active; 'I' for Inactive)
REMARK    1  A    between atoms: C_1  and  O_2
REMARK    2  A    between atoms: O_2  and  C_3
REMARK    3  A    between atoms: C_3  and  C_5
REMARK    4  A    between atoms: C_5  and  C_6
REMARK    5  A    between atoms: C_5  and  N_7
REMARK    6  A    between atoms: C_5  and  C_8
REMARK    7  A    between atoms: C_11  and  O_12
REMARK    8  A    between atoms: O_12  and  C_13
REMARK                            x       y       z     vdW  Elec       q    Type
REMARK                         _______ _______ _______ _____ _____    ______ ____
ROOT
ATOM      1  C   UNL     1       6.329   5.178  16.974  0.00  0.00    +0.000 C 
ATOM      2  C   UNL     1       6.656   6.632  17.377  0.00  0.00    +0.000 C 
ENDROOT
BRANCH   1   3
ATOM      3  C   UNL     1       4.896   4.743  17.306  0.00  0.00    +0.000 A 
ATOM      4  C   UNL     1       4.479   3.403  17.259  0.00  0.00    +0.000 A 
ATOM      5  C   UNL     1       3.147   3.050  17.494  0.00  0.00    +0.000 A 
ATOM      6  C   UNL     1       2.195   4.018  17.803  0.00  0.00    +0.000 A 
ATOM      7  C   UNL     1       2.582   5.353  17.863  0.00  0.00    +0.000 A 
ATOM      8  C   UNL     1       3.915   5.711  17.612  0.00  0.00    +0.000 A 
BRANCH   6   9
ATOM      9  O   UNL     1       0.926   3.541  17.969  0.00  0.00    +0.000 OA
ATOM     10  C   UNL     1       0.789   2.417  18.828  0.00  0.00    +0.000 C 
ENDBRANCH   6   9
ENDBRANCH   1   3
BRANCH   1  11
ATOM     11  N   UNL     1       7.262   4.295  17.731  0.00  0.00    +0.000 NA
ATOM     12  H   UNL     1       6.764   3.881  18.517  0.00  0.00    +0.000 HD
ATOM     13  H   UNL     1       8.006   4.878  18.120  0.00  0.00    +0.000 HD
ENDBRANCH   1  11
BRANCH   1  14
ATOM     14  C   UNL     1       6.694   5.087  15.462  0.00  0.00    +0.000 C 
ATOM     15  O   UNL     1       7.767   5.479  15.003  0.00  0.00    +0.000 OA
BRANCH  14  17
ATOM     16  C   UNL     1       6.044   3.844  13.578  0.00  0.00    +0.000 C 
ATOM     17  O   UNL     1       5.655   4.646  14.696  0.00  0.00    +0.000 OA
ENDBRANCH  14  17
ENDBRANCH   1  14
TORSDOF 5
ENDMDL
