MODEL 1
REMARK VINA RESULT:      -6.6      0.000      0.000
REMARK  Name = 
REMARK  9 active torsions:
REMARK  status: ('A' for Active; 'I' for Inactive)
REMARK    1  A    between atoms: C_1  and  C_2
REMARK    2  A    between atoms: C_4  and  O_5
REMARK    3  A    between atoms: O_5  and  C_6
REMARK    4  A    between atoms: C_9  and  O_10
REMARK    5  A    between atoms: C_11  and  C_12
REMARK    6  A    between atoms: C_11  and  O_13
REMARK    7  A    between atoms: C_15  and  O_16
REMARK    8  A    between atoms: C_27  and  O_28
REMARK    9  A    between atoms: C_34  and  O_35
REMARK                            x       y       z     vdW  Elec       q    Type
REMARK                         _______ _______ _______ _____ _____    ______ ____
ROOT
ATOM      1  C   UNL     1       6.895  16.282  20.013  0.00  0.00    +0.000 C 
ATOM      2  C   UNL     1       7.518  15.306  21.066  0.00  0.00    +0.000 C 
ATOM      3  O   UNL     1       7.287  14.092  21.099  0.00  0.00    +0.000 OA
ATOM      4  C   UNL     1       8.463  15.904  22.127  0.00  0.00    +0.000 C 
ATOM      5  C   UNL     1       7.486  16.708  22.979  0.00  0.00    +0.000 C 
ATOM      6  C   UNL     1       8.118  17.132  24.313  0.00  0.00    +0.000 C 
ATOM      7  C   UNL     1       6.906  17.879  22.140  0.00  0.00    +0.000 C 
ATOM      8  C   UNL     1       7.040  17.779  20.562  0.00  0.00    +0.000 C 
ATOM      9  C   UNL     1       8.247  18.511  19.991  0.00  0.00    +0.000 C 
ATOM     10  C   UNL     1       9.047  18.019  19.031  0.00  0.00    +0.000 C 
ATOM     11  C   UNL     1       8.895  16.681  18.495  0.00  0.00    +0.000 C 
ATOM     12  C   UNL     1       7.879  15.909  18.898  0.00  0.00    +0.000 C 
ATOM     13  C   UNL     1       7.757  14.534  18.326  0.00  0.00    +0.000 C 
ATOM     14  O   UNL     1       6.706  13.938  18.176  0.00  0.00    +0.000 OA
ATOM     15  C   UNL     1       9.019  13.866  18.014  0.00  0.00    +0.000 A 
ATOM     16  C   UNL     1       9.111  12.475  18.158  0.00  0.00    +0.000 A 
ATOM     17  C   UNL     1      10.295  11.830  17.823  0.00  0.00    +0.000 A 
ATOM     18  C   UNL     1      11.359  12.573  17.311  0.00  0.00    +0.000 A 
ATOM     19  C   UNL     1      11.258  13.968  17.189  0.00  0.00    +0.000 A 
ATOM     20  C   UNL     1      10.084  14.635  17.561  0.00  0.00    +0.000 A 
ATOM     21  C   UNL     1       9.919  16.117  17.555  0.00  0.00    +0.000 C 
ATOM     22  O   UNL     1      10.584  16.857  16.838  0.00  0.00    +0.000 OA
ENDROOT
BRANCH   4  23
ATOM     23  O   UNL     1       9.585  16.660  21.717  0.00  0.00    +0.000 OA
ATOM     24  H   UNL     1       9.919  16.359  20.851  0.00  0.00    +0.000 HD
ENDBRANCH   4  23
BRANCH   5  25
ATOM     25  O   UNL     1       6.385  15.861  23.356  0.00  0.00    +0.000 OA
ATOM     26  H   UNL     1       6.099  15.333  22.583  0.00  0.00    +0.000 HD
ENDBRANCH   5  25
BRANCH   8  27
ATOM     27  O   UNL     1       5.975  18.630  20.075  0.00  0.00    +0.000 OA
ATOM     28  H   UNL     1       6.167  19.537  20.381  0.00  0.00    +0.000 HD
ENDBRANCH   8  27
BRANCH  19  29
ATOM     29  O   UNL     1      12.333  14.662  16.721  0.00  0.00    +0.000 OA
ATOM     30  H   UNL     1      12.724  14.193  15.964  0.00  0.00    +0.000 HD
ENDBRANCH  19  29
BRANCH   1  31
ATOM     31  O   UNL     1       5.658  16.101  19.342  0.00  0.00    +0.000 OA
BRANCH  31  35
ATOM     32  C   UNL     1       2.413  17.388  17.091  0.00  0.00    +0.000 C 
ATOM     33  C   UNL     1       3.221  16.384  17.912  0.00  0.00    +0.000 C 
ATOM     34  O   UNL     1       3.516  16.964  19.202  0.00  0.00    +0.000 OA
ATOM     35  C   UNL     1       4.405  16.141  19.994  0.00  0.00    +0.000 C 
ATOM     36  C   UNL     1       3.764  14.781  20.245  0.00  0.00    +0.000 C 
ATOM     37  C   UNL     1       3.270  14.111  18.965  0.00  0.00    +0.000 C 
ATOM     38  C   UNL     1       2.444  15.075  18.120  0.00  0.00    +0.000 C 
BRANCH  38  39
ATOM     39  O   UNL     1       1.209  15.333  18.803  0.00  0.00    +0.000 OA
ATOM     40  H   UNL     1       0.551  15.542  18.114  0.00  0.00    +0.000 HD
ENDBRANCH  38  39
ENDBRANCH  31  35
ENDBRANCH   1  31
TORSDOF 7
ENDMDL
MODEL 2
REMARK VINA RESULT:      -6.5      5.919     11.266
REMARK  Name = 
REMARK  9 active torsions:
REMARK  status: ('A' for Active; 'I' for Inactive)
REMARK    1  A    between atoms: C_1  and  C_2
REMARK    2  A    between atoms: C_4  and  O_5
REMARK    3  A    between atoms: O_5  and  C_6
REMARK    4  A    between atoms: C_9  and  O_10
REMARK    5  A    between atoms: C_11  and  C_12
REMARK    6  A    between atoms: C_11  and  O_13
REMARK    7  A    between atoms: C_15  and  O_16
REMARK    8  A    between atoms: C_27  and  O_28
REMARK    9  A    between atoms: C_34  and  O_35
REMARK                            x       y       z     vdW  Elec       q    Type
REMARK                         _______ _______ _______ _____ _____    ______ ____
ROOT
ATOM      1  C   UNL     1      -0.530  12.062  19.776  0.00  0.00    +0.000 C 
ATOM      2  C   UNL     1      -0.876  11.291  21.094  0.00  0.00    +0.000 C 
ATOM      3  O   UNL     1      -1.255  11.842  22.132  0.00  0.00    +0.000 OA
ATOM      4  C   UNL     1      -0.718   9.757  21.089  0.00  0.00    +0.000 C 
ATOM      5  C   UNL     1       0.799   9.612  21.026  0.00  0.00    +0.000 C 
ATOM      6  C   UNL     1       1.243   8.178  21.355  0.00  0.00    +0.000 C 
ATOM      7  C   UNL     1       1.316  10.150  19.664  0.00  0.00    +0.000 C 
ATOM      8  C   UNL     1       0.347  11.100  18.843  0.00  0.00    +0.000 C 
ATOM      9  C   UNL     1      -0.476  10.384  17.780  0.00  0.00    +0.000 C 
ATOM     10  C   UNL     1      -1.779  10.614  17.549  0.00  0.00    +0.000 C 
ATOM     11  C   UNL     1      -2.571  11.518  18.360  0.00  0.00    +0.000 C 
ATOM     12  C   UNL     1      -1.990  12.223  19.338  0.00  0.00    +0.000 C 
ATOM     13  C   UNL     1      -2.840  13.141  20.156  0.00  0.00    +0.000 C 
ATOM     14  O   UNL     1      -2.443  14.165  20.683  0.00  0.00    +0.000 OA
ATOM     15  C   UNL     1      -4.215  12.698  20.379  0.00  0.00    +0.000 A 
ATOM     16  C   UNL     1      -4.849  13.016  21.587  0.00  0.00    +0.000 A 
ATOM     17  C   UNL     1      -6.170  12.635  21.787  0.00  0.00    +0.000 A 
ATOM     18  C   UNL     1      -6.854  11.975  20.766  0.00  0.00    +0.000 A 
ATOM     19  C   UNL     1      -6.201  11.648  19.567  0.00  0.00    +0.000 A 
ATOM     20  C   UNL     1      -4.857  11.992  19.369  0.00  0.00    +0.000 A 
ATOM     21  C   UNL     1      -4.056  11.605  18.173  0.00  0.00    +0.000 C 
ATOM     22  O   UNL     1      -4.565  11.354  17.085  0.00  0.00    +0.000 OA
ENDROOT
BRANCH   4  23
ATOM     23  O   UNL     1      -1.385   8.989  20.109  0.00  0.00    +0.000 OA
ATOM     24  H   UNL     1      -1.444   9.468  19.260  0.00  0.00    +0.000 HD
ENDBRANCH   4  23
BRANCH   5  25
ATOM     25  O   UNL     1       1.391  10.418  22.061  0.00  0.00    +0.000 OA
ATOM     26  H   UNL     1       1.571   9.862  22.846  0.00  0.00    +0.000 HD
ENDBRANCH   5  25
BRANCH   8  27
ATOM     27  O   UNL     1       1.248  11.856  17.998  0.00  0.00    +0.000 OA
ATOM     28  H   UNL     1       0.772  12.047  17.166  0.00  0.00    +0.000 HD
ENDBRANCH   8  27
BRANCH  19  29
ATOM     29  O   UNL     1      -6.893  10.970  18.610  0.00  0.00    +0.000 OA
ATOM     30  H   UNL     1      -7.830  11.227  18.637  0.00  0.00    +0.000 HD
ENDBRANCH  19  29
BRANCH   1  31
ATOM     31  O   UNL     1      -0.081  13.405  19.692  0.00  0.00    +0.000 OA
BRANCH  31  35
ATOM     32  C   UNL     1       3.155  15.159  17.769  0.00  0.00    +0.000 C 
ATOM     33  C   UNL     1       1.926  15.137  18.676  0.00  0.00    +0.000 C 
ATOM     34  O   UNL     1       2.115  14.133  19.697  0.00  0.00    +0.000 OA
ATOM     35  C   UNL     1       0.936  13.938  20.514  0.00  0.00    +0.000 C 
ATOM     36  C   UNL     1       0.579  15.241  21.222  0.00  0.00    +0.000 C 
ATOM     37  C   UNL     1       0.487  16.430  20.269  0.00  0.00    +0.000 C 
ATOM     38  C   UNL     1       1.704  16.499  19.353  0.00  0.00    +0.000 C 
BRANCH  38  39
ATOM     39  O   UNL     1       2.847  16.854  20.143  0.00  0.00    +0.000 OA
ATOM     40  H   UNL     1       3.132  16.038  20.597  0.00  0.00    +0.000 HD
ENDBRANCH  38  39
ENDBRANCH  31  35
ENDBRANCH   1  31
TORSDOF 7
ENDMDL
MODEL 3
REMARK VINA RESULT:      -6.3      5.810     11.089
REMARK  Name = 
REMARK  9 active torsions:
REMARK  status: ('A' for Active; 'I' for Inactive)
REMARK    1  A    between atoms: C_1  and  C_2
REMARK    2  A    between atoms: C_4  and  O_5
REMARK    3  A    between atoms: O_5  and  C_6
REMARK    4  A    between atoms: C_9  and  O_10
REMARK    5  A    between atoms: C_11  and  C_12
REMARK    6  A    between atoms: C_11  and  O_13
REMARK    7  A    between atoms: C_15  and  O_16
REMARK    8  A    between atoms: C_27  and  O_28
REMARK    9  A    between atoms: C_34  and  O_35
REMARK                            x       y       z     vdW  Elec       q    Type
REMARK                         _______ _______ _______ _____ _____    ______ ____
ROOT
ATOM      1  C   UNL     1      -0.228  12.287  20.432  0.00  0.00    +0.000 C 
ATOM      2  C   UNL     1      -0.368  11.404  21.717  0.00  0.00    +0.000 C 
ATOM      3  O   UNL     1      -0.411  11.863  22.864  0.00  0.00    +0.000 OA
ATOM      4  C   UNL     1      -0.442   9.875  21.532  0.00  0.00    +0.000 C 
ATOM      5  C   UNL     1       0.981   9.558  21.084  0.00  0.00    +0.000 C 
ATOM      6  C   UNL     1       1.274   8.052  21.159  0.00  0.00    +0.000 C 
ATOM      7  C   UNL     1       1.242  10.196  19.692  0.00  0.00    +0.000 C 
ATOM      8  C   UNL     1       0.258  11.352  19.227  0.00  0.00    +0.000 C 
ATOM      9  C   UNL     1      -0.884  10.878  18.338  0.00  0.00    +0.000 C 
ATOM     10  C   UNL     1      -2.157  11.290  18.458  0.00  0.00    +0.000 C 
ATOM     11  C   UNL     1      -2.598  12.173  19.520  0.00  0.00    +0.000 C 
ATOM     12  C   UNL     1      -1.709  12.675  20.385  0.00  0.00    +0.000 C 
ATOM     13  C   UNL     1      -2.202  13.579  21.468  0.00  0.00    +0.000 C 
ATOM     14  O   UNL     1      -1.549  14.474  21.973  0.00  0.00    +0.000 OA
ATOM     15  C   UNL     1      -3.538  13.281  21.981  0.00  0.00    +0.000 A 
ATOM     16  C   UNL     1      -3.821  13.519  23.333  0.00  0.00    +0.000 A 
ATOM     17  C   UNL     1      -5.100  13.276  23.817  0.00  0.00    +0.000 A 
ATOM     18  C   UNL     1      -6.092  12.836  22.939  0.00  0.00    +0.000 A 
ATOM     19  C   UNL     1      -5.790  12.586  21.592  0.00  0.00    +0.000 A 
ATOM     20  C   UNL     1      -4.493  12.788  21.100  0.00  0.00    +0.000 A 
ATOM     21  C   UNL     1      -4.057  12.461  19.713  0.00  0.00    +0.000 C 
ATOM     22  O   UNL     1      -4.835  12.410  18.767  0.00  0.00    +0.000 OA
ENDROOT
BRANCH   4  23
ATOM     23  O   UNL     1      -1.423   9.321  20.680  0.00  0.00    +0.000 OA
ATOM     24  H   UNL     1      -2.057  10.000  20.379  0.00  0.00    +0.000 HD
ENDBRANCH   4  23
BRANCH   5  25
ATOM     25  O   UNL     1       1.909  10.152  22.010  0.00  0.00    +0.000 OA
ATOM     26  H   UNL     1       1.417  10.660  22.686  0.00  0.00    +0.000 HD
ENDBRANCH   5  25
BRANCH   8  27
ATOM     27  O   UNL     1       1.040  12.093  18.259  0.00  0.00    +0.000 OA
ATOM     28  H   UNL     1       0.623  11.957  17.386  0.00  0.00    +0.000 HD
ENDBRANCH   8  27
BRANCH  19  29
ATOM     29  O   UNL     1      -6.777  12.121  20.776  0.00  0.00    +0.000 OA
ATOM     30  H   UNL     1      -7.456  12.806  20.658  0.00  0.00    +0.000 HD
ENDBRANCH  19  29
BRANCH   1  31
ATOM     31  O   UNL     1       0.382  13.566  20.365  0.00  0.00    +0.000 OA
BRANCH  31  35
ATOM     32  C   UNL     1       3.154  15.233  17.760  0.00  0.00    +0.000 C 
ATOM     33  C   UNL     1       2.250  15.204  18.992  0.00  0.00    +0.000 C 
ATOM     34  O   UNL     1       2.570  14.037  19.780  0.00  0.00    +0.000 OA
ATOM     35  C   UNL     1       1.662  13.848  20.891  0.00  0.00    +0.000 C 
ATOM     36  C   UNL     1       1.727  15.054  21.822  0.00  0.00    +0.000 C 
ATOM     37  C   UNL     1       1.547  16.381  21.089  0.00  0.00    +0.000 C 
ATOM     38  C   UNL     1       2.444  16.459  19.858  0.00  0.00    +0.000 C 
BRANCH  38  39
ATOM     39  O   UNL     1       3.807  16.556  20.295  0.00  0.00    +0.000 OA
ATOM     40  H   UNL     1       4.119  15.641  20.431  0.00  0.00    +0.000 HD
ENDBRANCH  38  39
ENDBRANCH  31  35
ENDBRANCH   1  31
TORSDOF 7
ENDMDL
MODEL 4
REMARK VINA RESULT:      -6.3      7.094      9.657
REMARK  Name = 
REMARK  9 active torsions:
REMARK  status: ('A' for Active; 'I' for Inactive)
REMARK    1  A    between atoms: C_1  and  C_2
REMARK    2  A    between atoms: C_4  and  O_5
REMARK    3  A    between atoms: O_5  and  C_6
REMARK    4  A    between atoms: C_9  and  O_10
REMARK    5  A    between atoms: C_11  and  C_12
REMARK    6  A    between atoms: C_11  and  O_13
REMARK    7  A    between atoms: C_15  and  O_16
REMARK    8  A    between atoms: C_27  and  O_28
REMARK    9  A    between atoms: C_34  and  O_35
REMARK                            x       y       z     vdW  Elec       q    Type
REMARK                         _______ _______ _______ _____ _____    ______ ____
ROOT
ATOM      1  C   UNL     1      -1.448  14.822  21.197  0.00  0.00    +0.000 C 
ATOM      2  C   UNL     1      -0.376  14.763  22.336  0.00  0.00    +0.000 C 
ATOM      3  O   UNL     1      -0.583  14.269  23.449  0.00  0.00    +0.000 OA
ATOM      4  C   UNL     1       1.011  15.373  22.047  0.00  0.00    +0.000 C 
ATOM      5  C   UNL     1       0.681  16.861  21.999  0.00  0.00    +0.000 C 
ATOM      6  C   UNL     1       1.950  17.723  22.064  0.00  0.00    +0.000 C 
ATOM      7  C   UNL     1      -0.234  17.151  20.777  0.00  0.00    +0.000 C 
ATOM      8  C   UNL     1      -0.987  15.917  20.123  0.00  0.00    +0.000 C 
ATOM      9  C   UNL     1      -0.270  15.313  18.923  0.00  0.00    +0.000 C 
ATOM     10  C   UNL     1      -0.138  13.994  18.703  0.00  0.00    +0.000 C 
ATOM     11  C   UNL     1      -0.594  12.994  19.649  0.00  0.00    +0.000 C 
ATOM     12  C   UNL     1      -1.244  13.368  20.758  0.00  0.00    +0.000 C 
ATOM     13  C   UNL     1      -1.695  12.308  21.710  0.00  0.00    +0.000 C 
ATOM     14  O   UNL     1      -2.672  12.397  22.431  0.00  0.00    +0.000 OA
ATOM     15  C   UNL     1      -0.827  11.136  21.808  0.00  0.00    +0.000 A 
ATOM     16  C   UNL     1      -0.708  10.474  23.037  0.00  0.00    +0.000 A 
ATOM     17  C   UNL     1       0.082   9.334  23.126  0.00  0.00    +0.000 A 
ATOM     18  C   UNL     1       0.713   8.847  21.980  0.00  0.00    +0.000 A 
ATOM     19  C   UNL     1       0.598   9.531  20.760  0.00  0.00    +0.000 A 
ATOM     20  C   UNL     1      -0.164  10.703  20.666  0.00  0.00    +0.000 A 
ATOM     21  C   UNL     1      -0.266  11.545  19.441  0.00  0.00    +0.000 C 
ATOM     22  O   UNL     1      -0.082  11.102  18.313  0.00  0.00    +0.000 OA
ENDROOT
BRANCH   4  23
ATOM     23  O   UNL     1       1.745  14.936  20.921  0.00  0.00    +0.000 OA
ATOM     24  H   UNL     1       1.700  13.966  20.821  0.00  0.00    +0.000 HD
ENDBRANCH   4  23
BRANCH   5  25
ATOM     25  O   UNL     1      -0.057  17.217  23.182  0.00  0.00    +0.000 OA
ATOM     26  H   UNL     1      -0.545  16.435  23.511  0.00  0.00    +0.000 HD
ENDBRANCH   5  25
BRANCH   8  27
ATOM     27  O   UNL     1      -2.122  16.524  19.460  0.00  0.00    +0.000 OA
ATOM     28  H   UNL     1      -1.981  17.490  19.473  0.00  0.00    +0.000 HD
ENDBRANCH   8  27
BRANCH  19  29
ATOM     29  O   UNL     1       1.260   9.043  19.674  0.00  0.00    +0.000 OA
ATOM     30  H   UNL     1       0.926   9.469  18.866  0.00  0.00    +0.000 HD
ENDBRANCH  19  29
BRANCH   1  31
ATOM     31  O   UNL     1      -2.855  14.846  21.379  0.00  0.00    +0.000 OA
BRANCH  31  35
ATOM     32  C   UNL     1      -6.973  14.459  21.750  0.00  0.00    +0.000 C 
ATOM     33  C   UNL     1      -5.538  14.567  22.263  0.00  0.00    +0.000 C 
ATOM     34  O   UNL     1      -4.943  15.775  21.739  0.00  0.00    +0.000 OA
ATOM     35  C   UNL     1      -3.535  15.884  22.053  0.00  0.00    +0.000 C 
ATOM     36  C   UNL     1      -3.344  15.907  23.566  0.00  0.00    +0.000 C 
ATOM     37  C   UNL     1      -4.051  14.752  24.271  0.00  0.00    +0.000 C 
ATOM     38  C   UNL     1      -5.495  14.617  23.799  0.00  0.00    +0.000 C 
BRANCH  38  39
ATOM     39  O   UNL     1      -6.238  15.746  24.281  0.00  0.00    +0.000 OA
ATOM     40  H   UNL     1      -7.017  15.385  24.745  0.00  0.00    +0.000 HD
ENDBRANCH  38  39
ENDBRANCH  31  35
ENDBRANCH   1  31
TORSDOF 7
ENDMDL
MODEL 5
REMARK VINA RESULT:      -6.3      2.258      5.663
REMARK  Name = 
REMARK  9 active torsions:
REMARK  status: ('A' for Active; 'I' for Inactive)
REMARK    1  A    between atoms: C_1  and  C_2
REMARK    2  A    between atoms: C_4  and  O_5
REMARK    3  A    between atoms: O_5  and  C_6
REMARK    4  A    between atoms: C_9  and  O_10
REMARK    5  A    between atoms: C_11  and  C_12
REMARK    6  A    between atoms: C_11  and  O_13
REMARK    7  A    between atoms: C_15  and  O_16
REMARK    8  A    between atoms: C_27  and  O_28
REMARK    9  A    between atoms: C_34  and  O_35
REMARK                            x       y       z     vdW  Elec       q    Type
REMARK                         _______ _______ _______ _____ _____    ______ ____
ROOT
ATOM      1  C   UNL     1       8.173  14.314  19.721  0.00  0.00    +0.000 C 
ATOM      2  C   UNL     1       9.170  15.423  20.197  0.00  0.00    +0.000 C 
ATOM      3  O   UNL     1       8.815  16.500  20.688  0.00  0.00    +0.000 OA
ATOM      4  C   UNL     1      10.678  15.153  20.027  0.00  0.00    +0.000 C 
ATOM      5  C   UNL     1      10.826  15.223  18.511  0.00  0.00    +0.000 C 
ATOM      6  C   UNL     1      12.300  15.327  18.092  0.00  0.00    +0.000 C 
ATOM      7  C   UNL     1      10.052  14.046  17.857  0.00  0.00    +0.000 C 
ATOM      8  C   UNL     1       8.956  13.317  18.743  0.00  0.00    +0.000 C 
ATOM      9  C   UNL     1       9.454  12.060  19.443  0.00  0.00    +0.000 C 
ATOM     10  C   UNL     1       9.171  11.739  20.717  0.00  0.00    +0.000 C 
ATOM     11  C   UNL     1       8.423  12.616  21.597  0.00  0.00    +0.000 C 
ATOM     12  C   UNL     1       7.917  13.763  21.128  0.00  0.00    +0.000 C 
ATOM     13  C   UNL     1       7.156  14.642  22.067  0.00  0.00    +0.000 C 
ATOM     14  O   UNL     1       6.252  15.387  21.736  0.00  0.00    +0.000 OA
ATOM     15  C   UNL     1       7.616  14.634  23.454  0.00  0.00    +0.000 A 
ATOM     16  C   UNL     1       7.519  15.806  24.214  0.00  0.00    +0.000 A 
ATOM     17  C   UNL     1       7.916  15.793  25.545  0.00  0.00    +0.000 A 
ATOM     18  C   UNL     1       8.369  14.602  26.113  0.00  0.00    +0.000 A 
ATOM     19  C   UNL     1       8.477  13.439  25.334  0.00  0.00    +0.000 A 
ATOM     20  C   UNL     1       8.117  13.449  23.980  0.00  0.00    +0.000 A 
ATOM     21  C   UNL     1       8.286  12.293  23.055  0.00  0.00    +0.000 C 
ATOM     22  O   UNL     1       8.327  11.131  23.444  0.00  0.00    +0.000 OA
ENDROOT
BRANCH   4  23
ATOM     23  O   UNL     1      11.245  13.982  20.581  0.00  0.00    +0.000 OA
ATOM     24  H   UNL     1      12.149  14.146  20.908  0.00  0.00    +0.000 HD
ENDBRANCH   4  23
BRANCH   5  25
ATOM     25  O   UNL     1      10.231  16.445  18.037  0.00  0.00    +0.000 OA
ATOM     26  H   UNL     1       9.546  16.742  18.669  0.00  0.00    +0.000 HD
ENDBRANCH   5  25
BRANCH   8  27
ATOM     27  O   UNL     1       8.067  12.725  17.764  0.00  0.00    +0.000 OA
ATOM     28  H   UNL     1       7.201  12.601  18.198  0.00  0.00    +0.000 HD
ENDBRANCH   8  27
BRANCH  19  29
ATOM     29  O   UNL     1       8.958  12.305  25.917  0.00  0.00    +0.000 OA
ATOM     30  H   UNL     1       8.555  12.188  26.793  0.00  0.00    +0.000 HD
ENDBRANCH  19  29
BRANCH   1  31
ATOM     31  O   UNL     1       6.843  14.527  19.277  0.00  0.00    +0.000 OA
BRANCH  31  35
ATOM     32  C   UNL     1       2.960  14.272  17.825  0.00  0.00    +0.000 C 
ATOM     33  C   UNL     1       4.153  14.966  18.480  0.00  0.00    +0.000 C 
ATOM     34  O   UNL     1       5.292  14.873  17.595  0.00  0.00    +0.000 OA
ATOM     35  C   UNL     1       6.508  15.374  18.197  0.00  0.00    +0.000 C 
ATOM     36  C   UNL     1       6.337  16.846  18.560  0.00  0.00    +0.000 C 
ATOM     37  C   UNL     1       5.079  17.112  19.383  0.00  0.00    +0.000 C 
ATOM     38  C   UNL     1       3.857  16.448  18.757  0.00  0.00    +0.000 C 
BRANCH  38  39
ATOM     39  O   UNL     1       3.548  17.131  17.533  0.00  0.00    +0.000 OA
ATOM     40  H   UNL     1       3.351  16.439  16.873  0.00  0.00    +0.000 HD
ENDBRANCH  38  39
ENDBRANCH  31  35
ENDBRANCH   1  31
TORSDOF 7
ENDMDL
MODEL 6
REMARK VINA RESULT:      -6.3      7.039      9.544
REMARK  Name = 
REMARK  9 active torsions:
REMARK  status: ('A' for Active; 'I' for Inactive)
REMARK    1  A    between atoms: C_1  and  C_2
REMARK    2  A    between atoms: C_4  and  O_5
REMARK    3  A    between atoms: O_5  and  C_6
REMARK    4  A    between atoms: C_9  and  O_10
REMARK    5  A    between atoms: C_11  and  C_12
REMARK    6  A    between atoms: C_11  and  O_13
REMARK    7  A    between atoms: C_15  and  O_16
REMARK    8  A    between atoms: C_27  and  O_28
REMARK    9  A    between atoms: C_34  and  O_35
REMARK                            x       y       z     vdW  Elec       q    Type
REMARK                         _______ _______ _______ _____ _____    ______ ____
ROOT
ATOM      1  C   UNL     1      -1.400  14.895  21.117  0.00  0.00    +0.000 C 
ATOM      2  C   UNL     1      -0.377  14.844  22.301  0.00  0.00    +0.000 C 
ATOM      3  O   UNL     1      -0.641  14.384  23.417  0.00  0.00    +0.000 OA
ATOM      4  C   UNL     1       1.034  15.414  22.054  0.00  0.00    +0.000 C 
ATOM      5  C   UNL     1       0.740  16.908  21.954  0.00  0.00    +0.000 C 
ATOM      6  C   UNL     1       2.025  17.743  22.050  0.00  0.00    +0.000 C 
ATOM      7  C   UNL     1      -0.116  17.185  20.688  0.00  0.00    +0.000 C 
ATOM      8  C   UNL     1      -0.870  15.950  20.035  0.00  0.00    +0.000 C 
ATOM      9  C   UNL     1      -0.118  15.299  18.882  0.00  0.00    +0.000 C 
ATOM     10  C   UNL     1      -0.008  13.973  18.703  0.00  0.00    +0.000 C 
ATOM     11  C   UNL     1      -0.525  13.008  19.654  0.00  0.00    +0.000 C 
ATOM     12  C   UNL     1      -1.211  13.426  20.724  0.00  0.00    +0.000 C 
ATOM     13  C   UNL     1      -1.725  12.402  21.685  0.00  0.00    +0.000 C 
ATOM     14  O   UNL     1      -2.729  12.531  22.361  0.00  0.00    +0.000 OA
ATOM     15  C   UNL     1      -0.890  11.214  21.849  0.00  0.00    +0.000 A 
ATOM     16  C   UNL     1      -0.836  10.582  23.098  0.00  0.00    +0.000 A 
ATOM     17  C   UNL     1      -0.077   9.429  23.250  0.00  0.00    +0.000 A 
ATOM     18  C   UNL     1       0.589   8.898  22.144  0.00  0.00    +0.000 A 
ATOM     19  C   UNL     1       0.540   9.551  20.903  0.00  0.00    +0.000 A 
ATOM     20  C   UNL     1      -0.190  10.736  20.747  0.00  0.00    +0.000 A 
ATOM     21  C   UNL     1      -0.223  11.548  19.497  0.00  0.00    +0.000 C 
ATOM     22  O   UNL     1      -0.003  11.071  18.389  0.00  0.00    +0.000 OA
ENDROOT
BRANCH   4  23
ATOM     23  O   UNL     1       1.803  14.932  20.972  0.00  0.00    +0.000 OA
ATOM     24  H   UNL     1       1.258  14.816  20.171  0.00  0.00    +0.000 HD
ENDBRANCH   4  23
BRANCH   5  25
ATOM     25  O   UNL     1      -0.037  17.312  23.096  0.00  0.00    +0.000 OA
ATOM     26  H   UNL     1      -0.968  17.445  22.827  0.00  0.00    +0.000 HD
ENDBRANCH   5  25
BRANCH   8  27
ATOM     27  O   UNL     1      -1.963  16.564  19.311  0.00  0.00    +0.000 OA
ATOM     28  H   UNL     1      -2.309  15.895  18.689  0.00  0.00    +0.000 HD
ENDBRANCH   8  27
BRANCH  19  29
ATOM     29  O   UNL     1       1.234   9.020  19.858  0.00  0.00    +0.000 OA
ATOM     30  H   UNL     1       0.688   8.359  19.401  0.00  0.00    +0.000 HD
ENDBRANCH  19  29
BRANCH   1  31
ATOM     31  O   UNL     1      -2.812  14.955  21.240  0.00  0.00    +0.000 OA
BRANCH  31  35
ATOM     32  C   UNL     1      -5.889  16.989  19.331  0.00  0.00    +0.000 C 
ATOM     33  C   UNL     1      -5.280  16.073  20.392  0.00  0.00    +0.000 C 
ATOM     34  O   UNL     1      -4.220  16.782  21.070  0.00  0.00    +0.000 OA
ATOM     35  C   UNL     1      -3.487  15.942  21.992  0.00  0.00    +0.000 C 
ATOM     36  C   UNL     1      -4.430  15.405  23.063  0.00  0.00    +0.000 C 
ATOM     37  C   UNL     1      -5.680  14.749  22.481  0.00  0.00    +0.000 C 
ATOM     38  C   UNL     1      -6.330  15.637  21.426  0.00  0.00    +0.000 C 
BRANCH  38  39
ATOM     39  O   UNL     1      -6.889  16.785  22.081  0.00  0.00    +0.000 OA
ATOM     40  H   UNL     1      -6.172  17.445  22.138  0.00  0.00    +0.000 HD
ENDBRANCH  38  39
ENDBRANCH  31  35
ENDBRANCH   1  31
TORSDOF 7
ENDMDL
MODEL 7
REMARK VINA RESULT:      -6.2      4.843      8.370
REMARK  Name = 
REMARK  9 active torsions:
REMARK  status: ('A' for Active; 'I' for Inactive)
REMARK    1  A    between atoms: C_1  and  C_2
REMARK    2  A    between atoms: C_4  and  O_5
REMARK    3  A    between atoms: O_5  and  C_6
REMARK    4  A    between atoms: C_9  and  O_10
REMARK    5  A    between atoms: C_11  and  C_12
REMARK    6  A    between atoms: C_11  and  O_13
REMARK    7  A    between atoms: C_15  and  O_16
REMARK    8  A    between atoms: C_27  and  O_28
REMARK    9  A    between atoms: C_34  and  O_35
REMARK                            x       y       z     vdW  Elec       q    Type
REMARK                         _______ _______ _______ _____ _____    ______ ____
ROOT
ATOM      1  C   UNL     1      -1.090  13.949  20.166  0.00  0.00    +0.000 C 
ATOM      2  C   UNL     1      -0.026  13.683  21.283  0.00  0.00    +0.000 C 
ATOM      3  O   UNL     1       0.799  12.764  21.241  0.00  0.00    +0.000 OA
ATOM      4  C   UNL     1      -0.025  14.618  22.509  0.00  0.00    +0.000 C 
ATOM      5  C   UNL     1      -1.321  14.207  23.201  0.00  0.00    +0.000 C 
ATOM      6  C   UNL     1      -1.391  14.749  24.636  0.00  0.00    +0.000 C 
ATOM      7  C   UNL     1      -2.532  14.591  22.307  0.00  0.00    +0.000 C 
ATOM      8  C   UNL     1      -2.240  14.882  20.775  0.00  0.00    +0.000 C 
ATOM      9  C   UNL     1      -2.054  16.356  20.444  0.00  0.00    +0.000 C 
ATOM     10  C   UNL     1      -1.103  16.834  19.624  0.00  0.00    +0.000 C 
ATOM     11  C   UNL     1      -0.083  15.990  19.032  0.00  0.00    +0.000 C 
ATOM     12  C   UNL     1      -0.111  14.667  19.230  0.00  0.00    +0.000 C 
ATOM     13  C   UNL     1       0.959  13.830  18.606  0.00  0.00    +0.000 C 
ATOM     14  O   UNL     1       0.817  12.672  18.258  0.00  0.00    +0.000 OA
ATOM     15  C   UNL     1       2.273  14.462  18.499  0.00  0.00    +0.000 A 
ATOM     16  C   UNL     1       3.423  13.672  18.618  0.00  0.00    +0.000 A 
ATOM     17  C   UNL     1       4.674  14.259  18.475  0.00  0.00    +0.000 A 
ATOM     18  C   UNL     1       4.762  15.620  18.178  0.00  0.00    +0.000 A 
ATOM     19  C   UNL     1       3.601  16.402  18.080  0.00  0.00    +0.000 A 
ATOM     20  C   UNL     1       2.335  15.830  18.261  0.00  0.00    +0.000 A 
ATOM     21  C   UNL     1       1.057  16.596  18.269  0.00  0.00    +0.000 C 
ATOM     22  O   UNL     1       0.925  17.674  17.700  0.00  0.00    +0.000 OA
ENDROOT
BRANCH   4  23
ATOM     23  O   UNL     1       0.079  16.015  22.323  0.00  0.00    +0.000 OA
ATOM     24  H   UNL     1      -0.745  16.471  22.579  0.00  0.00    +0.000 HD
ENDBRANCH   4  23
BRANCH   5  25
ATOM     25  O   UNL     1      -1.337  12.776  23.356  0.00  0.00    +0.000 OA
ATOM     26  H   UNL     1      -1.114  12.352  22.503  0.00  0.00    +0.000 HD
ENDBRANCH   5  25
BRANCH   8  27
ATOM     27  O   UNL     1      -3.516  14.639  20.135  0.00  0.00    +0.000 OA
ATOM     28  H   UNL     1      -3.434  14.932  19.206  0.00  0.00    +0.000 HD
ENDBRANCH   8  27
BRANCH  19  29
ATOM     29  O   UNL     1       3.731  17.734  17.826  0.00  0.00    +0.000 OA
ATOM     30  H   UNL     1       3.023  18.027  17.229  0.00  0.00    +0.000 HD
ENDBRANCH  19  29
BRANCH   1  31
ATOM     31  O   UNL     1      -1.631  12.978  19.285  0.00  0.00    +0.000 OA
BRANCH  31  35
ATOM     32  C   UNL     1      -5.030  11.671  17.289  0.00  0.00    +0.000 C 
ATOM     33  C   UNL     1      -3.578  11.587  17.757  0.00  0.00    +0.000 C 
ATOM     34  O   UNL     1      -3.546  11.683  19.199  0.00  0.00    +0.000 OA
ATOM     35  C   UNL     1      -2.199  11.761  19.723  0.00  0.00    +0.000 C 
ATOM     36  C   UNL     1      -1.421  10.508  19.335  0.00  0.00    +0.000 C 
ATOM     37  C   UNL     1      -1.492  10.203  17.840  0.00  0.00    +0.000 C 
ATOM     38  C   UNL     1      -2.927  10.262  17.331  0.00  0.00    +0.000 C 
BRANCH  38  39
ATOM     39  O   UNL     1      -3.650   9.152  17.884  0.00  0.00    +0.000 OA
ATOM     40  H   UNL     1      -3.237   8.346  17.521  0.00  0.00    +0.000 HD
ENDBRANCH  38  39
ENDBRANCH  31  35
ENDBRANCH   1  31
TORSDOF 7
ENDMDL
MODEL 8
REMARK VINA RESULT:      -6.2      5.128      9.032
REMARK  Name = 
REMARK  9 active torsions:
REMARK  status: ('A' for Active; 'I' for Inactive)
REMARK    1  A    between atoms: C_1  and  C_2
REMARK    2  A    between atoms: C_4  and  O_5
REMARK    3  A    between atoms: O_5  and  C_6
REMARK    4  A    between atoms: C_9  and  O_10
REMARK    5  A    between atoms: C_11  and  C_12
REMARK    6  A    between atoms: C_11  and  O_13
REMARK    7  A    between atoms: C_15  and  O_16
REMARK    8  A    between atoms: C_27  and  O_28
REMARK    9  A    between atoms: C_34  and  O_35
REMARK                            x       y       z     vdW  Elec       q    Type
REMARK                         _______ _______ _______ _____ _____    ______ ____
ROOT
ATOM      1  C   UNL     1      -1.563  13.784  20.594  0.00  0.00    +0.000 C 
ATOM      2  C   UNL     1      -0.789  13.511  21.927  0.00  0.00    +0.000 C 
ATOM      3  O   UNL     1       0.141  12.704  22.028  0.00  0.00    +0.000 OA
ATOM      4  C   UNL     1      -1.228  14.289  23.184  0.00  0.00    +0.000 C 
ATOM      5  C   UNL     1      -2.585  13.654  23.470  0.00  0.00    +0.000 C 
ATOM      6  C   UNL     1      -3.090  14.012  24.876  0.00  0.00    +0.000 C 
ATOM      7  C   UNL     1      -3.574  14.001  22.323  0.00  0.00    +0.000 C 
ATOM      8  C   UNL     1      -2.950  14.501  20.953  0.00  0.00    +0.000 C 
ATOM      9  C   UNL     1      -2.895  16.016  20.808  0.00  0.00    +0.000 C 
ATOM     10  C   UNL     1      -1.845  16.692  20.313  0.00  0.00    +0.000 C 
ATOM     11  C   UNL     1      -0.601  16.046  19.943  0.00  0.00    +0.000 C 
ATOM     12  C   UNL     1      -0.492  14.714  20.015  0.00  0.00    +0.000 C 
ATOM     13  C   UNL     1       0.808  14.084  19.629  0.00  0.00    +0.000 C 
ATOM     14  O   UNL     1       0.922  12.966  19.160  0.00  0.00    +0.000 OA
ATOM     15  C   UNL     1       2.004  14.869  19.928  0.00  0.00    +0.000 A 
ATOM     16  C   UNL     1       3.187  14.206  20.280  0.00  0.00    +0.000 A 
ATOM     17  C   UNL     1       4.338  14.945  20.524  0.00  0.00    +0.000 A 
ATOM     18  C   UNL     1       4.305  16.332  20.377  0.00  0.00    +0.000 A 
ATOM     19  C   UNL     1       3.108  16.984  20.040  0.00  0.00    +0.000 A 
ATOM     20  C   UNL     1       1.931  16.253  19.830  0.00  0.00    +0.000 A 
ATOM     21  C   UNL     1       0.598  16.863  19.564  0.00  0.00    +0.000 C 
ATOM     22  O   UNL     1       0.463  17.979  19.073  0.00  0.00    +0.000 OA
ENDROOT
BRANCH   4  23
ATOM     23  O   UNL     1      -1.278  15.701  23.150  0.00  0.00    +0.000 OA
ATOM     24  H   UNL     1      -2.118  16.018  22.768  0.00  0.00    +0.000 HD
ENDBRANCH   4  23
BRANCH   5  25
ATOM     25  O   UNL     1      -2.439  12.223  23.494  0.00  0.00    +0.000 OA
ATOM     26  H   UNL     1      -3.302  11.809  23.700  0.00  0.00    +0.000 HD
ENDBRANCH   5  25
BRANCH   8  27
ATOM     27  O   UNL     1      -3.976  14.192  19.979  0.00  0.00    +0.000 OA
ATOM     28  H   UNL     1      -4.766  14.714  20.217  0.00  0.00    +0.000 HD
ENDBRANCH   8  27
BRANCH  19  29
ATOM     29  O   UNL     1       3.110  18.343  19.943  0.00  0.00    +0.000 OA
ATOM     30  H   UNL     1       2.481  18.624  19.258  0.00  0.00    +0.000 HD
ENDBRANCH  19  29
BRANCH   1  31
ATOM     31  O   UNL     1      -1.723  12.868  19.523  0.00  0.00    +0.000 OA
BRANCH  31  35
ATOM     32  C   UNL     1      -4.710  11.714  16.878  0.00  0.00    +0.000 C 
ATOM     33  C   UNL     1      -3.333  11.636  17.535  0.00  0.00    +0.000 C 
ATOM     34  O   UNL     1      -3.503  11.500  18.963  0.00  0.00    +0.000 OA
ATOM     35  C   UNL     1      -2.249  11.567  19.683  0.00  0.00    +0.000 C 
ATOM     36  C   UNL     1      -1.331  10.438  19.227  0.00  0.00    +0.000 C 
ATOM     37  C   UNL     1      -1.176  10.375  17.710  0.00  0.00    +0.000 C 
ATOM     38  C   UNL     1      -2.530  10.435  17.012  0.00  0.00    +0.000 C 
BRANCH  38  39
ATOM     39  O   UNL     1      -3.232   9.213  17.279  0.00  0.00    +0.000 OA
ATOM     40  H   UNL     1      -2.722   8.746  17.967  0.00  0.00    +0.000 HD
ENDBRANCH  38  39
ENDBRANCH  31  35
ENDBRANCH   1  31
TORSDOF 7
ENDMDL
MODEL 9
REMARK VINA RESULT:      -6.2      7.035     11.345
REMARK  Name = 
REMARK  9 active torsions:
REMARK  status: ('A' for Active; 'I' for Inactive)
REMARK    1  A    between atoms: C_1  and  C_2
REMARK    2  A    between atoms: C_4  and  O_5
REMARK    3  A    between atoms: O_5  and  C_6
REMARK    4  A    between atoms: C_9  and  O_10
REMARK    5  A    between atoms: C_11  and  C_12
REMARK    6  A    between atoms: C_11  and  O_13
REMARK    7  A    between atoms: C_15  and  O_16
REMARK    8  A    between atoms: C_27  and  O_28
REMARK    9  A    between atoms: C_34  and  O_35
REMARK                            x       y       z     vdW  Elec       q    Type
REMARK                         _______ _______ _______ _____ _____    ______ ____
ROOT
ATOM      1  C   UNL     1      -1.037  13.176  19.873  0.00  0.00    +0.000 C 
ATOM      2  C   UNL     1      -0.496  12.263  21.024  0.00  0.00    +0.000 C 
ATOM      3  O   UNL     1      -0.140  12.689  22.128  0.00  0.00    +0.000 OA
ATOM      4  C   UNL     1      -0.391  10.749  20.750  0.00  0.00    +0.000 C 
ATOM      5  C   UNL     1       0.756  10.706  19.745  0.00  0.00    +0.000 C 
ATOM      6  C   UNL     1       1.293   9.278  19.563  0.00  0.00    +0.000 C 
ATOM      7  C   UNL     1       0.319  11.401  18.426  0.00  0.00    +0.000 C 
ATOM      8  C   UNL     1      -0.942  12.363  18.496  0.00  0.00    +0.000 C 
ATOM      9  C   UNL     1      -2.254  11.701  18.099  0.00  0.00    +0.000 C 
ATOM     10  C   UNL     1      -3.416  11.871  18.752  0.00  0.00    +0.000 C 
ATOM     11  C   UNL     1      -3.521  12.642  19.975  0.00  0.00    +0.000 C 
ATOM     12  C   UNL     1      -2.451  13.286  20.455  0.00  0.00    +0.000 C 
ATOM     13  C   UNL     1      -2.597  14.068  21.720  0.00  0.00    +0.000 C 
ATOM     14  O   UNL     1      -1.948  15.060  22.000  0.00  0.00    +0.000 OA
ATOM     15  C   UNL     1      -3.539  13.522  22.695  0.00  0.00    +0.000 A 
ATOM     16  C   UNL     1      -3.281  13.683  24.062  0.00  0.00    +0.000 A 
ATOM     17  C   UNL     1      -4.193  13.203  24.993  0.00  0.00    +0.000 A 
ATOM     18  C   UNL     1      -5.372  12.602  24.548  0.00  0.00    +0.000 A 
ATOM     19  C   UNL     1      -5.609  12.431  23.176  0.00  0.00    +0.000 A 
ATOM     20  C   UNL     1      -4.678  12.875  22.228  0.00  0.00    +0.000 A 
ATOM     21  C   UNL     1      -4.800  12.654  20.759  0.00  0.00    +0.000 C 
ATOM     22  O   UNL     1      -5.877  12.476  20.201  0.00  0.00    +0.000 OA
ENDROOT
BRANCH   4  23
ATOM     23  O   UNL     1      -1.531  10.038  20.314  0.00  0.00    +0.000 OA
ATOM     24  H   UNL     1      -2.340  10.357  20.756  0.00  0.00    +0.000 HD
ENDBRANCH   4  23
BRANCH   5  25
ATOM     25  O   UNL     1       1.872  11.446  20.272  0.00  0.00    +0.000 OA
ATOM     26  H   UNL     1       2.052  11.156  21.189  0.00  0.00    +0.000 HD
ENDBRANCH   5  25
BRANCH   8  27
ATOM     27  O   UNL     1      -0.755  13.250  17.367  0.00  0.00    +0.000 OA
ATOM     28  H   UNL     1      -0.856  12.713  16.558  0.00  0.00    +0.000 HD
ENDBRANCH   8  27
BRANCH  19  29
ATOM     29  O   UNL     1      -6.754  11.805  22.784  0.00  0.00    +0.000 OA
ATOM     30  H   UNL     1      -6.605  11.340  21.945  0.00  0.00    +0.000 HD
ENDBRANCH  19  29
BRANCH   1  31
ATOM     31  O   UNL     1      -0.724  14.546  19.681  0.00  0.00    +0.000 OA
BRANCH  31  35
ATOM     32  C   UNL     1      -0.357  17.923  17.291  0.00  0.00    +0.000 C 
ATOM     33  C   UNL     1      -0.226  17.116  18.583  0.00  0.00    +0.000 C 
ATOM     34  O   UNL     1       0.536  15.919  18.311  0.00  0.00    +0.000 OA
ATOM     35  C   UNL     1       0.585  15.019  19.443  0.00  0.00    +0.000 C 
ATOM     36  C   UNL     1       1.245  15.717  20.628  0.00  0.00    +0.000 C 
ATOM     37  C   UNL     1       0.625  17.076  20.938  0.00  0.00    +0.000 C 
ATOM     38  C   UNL     1       0.488  17.923  19.678  0.00  0.00    +0.000 C 
BRANCH  38  39
ATOM     39  O   UNL     1       1.802  18.301  19.241  0.00  0.00    +0.000 OA
ATOM     40  H   UNL     1       2.175  17.523  18.784  0.00  0.00    +0.000 HD
ENDBRANCH  38  39
ENDBRANCH  31  35
ENDBRANCH   1  31
TORSDOF 7
ENDMDL
