MODEL 1
REMARK VINA RESULT:      -7.0      0.000      0.000
REMARK  Name = 
REMARK  3 active torsions:
REMARK  status: ('A' for Active; 'I' for Inactive)
REMARK    1  A    between atoms: C_2  and  C_11
REMARK    2  A    between atoms: N_3  and  N_4
REMARK    3  A    between atoms: C_5  and  C_6
REMARK                            x       y       z     vdW  Elec       q    Type
REMARK                         _______ _______ _______ _____ _____    ______ ____
ROOT
ATOM      1  O   UNL     1       2.363   3.215  16.412  0.00  0.00    +0.000 OA
ATOM      2  C   UNL     1       3.052   3.591  17.358  0.00  0.00    +0.000 C 
ATOM      3  N   UNL     1       4.286   4.219  17.251  0.00  0.00    +0.000 N 
ATOM      4  H   UNL     1       4.865   4.393  18.064  0.00  0.00    +0.000 HD
ENDROOT
BRANCH   2   5
ATOM      5  C   UNL     1       2.562   3.341  18.739  0.00  0.00    +0.000 A 
ATOM      6  C   UNL     1       3.471   2.836  19.684  0.00  0.00    +0.000 A 
ATOM      7  C   UNL     1       3.047   2.554  20.983  0.00  0.00    +0.000 A 
ATOM      8  C   UNL     1       1.717   2.765  21.329  0.00  0.00    +0.000 A 
ATOM      9  F   UNL     1       1.305   2.483  22.572  0.00  0.00    +0.000 F 
ATOM     10  C   UNL     1       0.802   3.251  20.400  0.00  0.00    +0.000 A 
ATOM     11  C   UNL     1       1.221   3.540  19.099  0.00  0.00    +0.000 A 
ENDBRANCH   2   5
BRANCH   3  12
ATOM     12  N   UNL     1       4.776   4.466  16.005  0.00  0.00    +0.000 NA
ATOM     13  C   UNL     1       5.970   4.041  15.738  0.00  0.00    +0.000 C 
BRANCH  13  14
ATOM     14  C   UNL     1       6.517   4.265  14.431  0.00  0.00    +0.000 A 
ATOM     15  C   UNL     1       6.256   3.662  13.215  0.00  0.00    +0.000 A 
ATOM     16  C   UNL     1       7.117   4.265  12.271  0.00  0.00    +0.000 A 
ATOM     17  C   UNL     1       7.844   5.204  12.964  0.00  0.00    +0.000 A 
ATOM     18  O   UNL     1       7.485   5.217  14.276  0.00  0.00    +0.000 OA
ENDBRANCH  13  14
ENDBRANCH   3  12
TORSDOF 3
ENDMDL
MODEL 2
REMARK VINA RESULT:      -6.9      0.274      1.201
REMARK  Name = 
REMARK  3 active torsions:
REMARK  status: ('A' for Active; 'I' for Inactive)
REMARK    1  A    between atoms: C_2  and  C_11
REMARK    2  A    between atoms: N_3  and  N_4
REMARK    3  A    between atoms: C_5  and  C_6
REMARK                            x       y       z     vdW  Elec       q    Type
REMARK                         _______ _______ _______ _____ _____    ______ ____
ROOT
ATOM      1  O   UNL     1       2.176   3.533  16.475  0.00  0.00    +0.000 OA
ATOM      2  C   UNL     1       3.010   3.500  17.377  0.00  0.00    +0.000 C 
ATOM      3  N   UNL     1       4.376   3.686  17.212  0.00  0.00    +0.000 N 
ATOM      4  H   UNL     1       5.029   3.523  17.970  0.00  0.00    +0.000 HD
ENDROOT
BRANCH   2   5
ATOM      5  C   UNL     1       2.551   3.212  18.761  0.00  0.00    +0.000 A 
ATOM      6  C   UNL     1       1.175   3.297  19.035  0.00  0.00    +0.000 A 
ATOM      7  C   UNL     1       0.702   3.069  20.328  0.00  0.00    +0.000 A 
ATOM      8  C   UNL     1       1.605   2.770  21.342  0.00  0.00    +0.000 A 
ATOM      9  F   UNL     1       1.153   2.562  22.586  0.00  0.00    +0.000 F 
ATOM     10  C   UNL     1       2.971   2.696  21.089  0.00  0.00    +0.000 A 
ATOM     11  C   UNL     1       3.450   2.919  19.796  0.00  0.00    +0.000 A 
ENDBRANCH   2   5
BRANCH   3  12
ATOM     12  N   UNL     1       4.844   3.949  15.961  0.00  0.00    +0.000 NA
ATOM     13  C   UNL     1       6.118   4.139  15.827  0.00  0.00    +0.000 C 
BRANCH  13  14
ATOM     14  C   UNL     1       6.654   4.401  14.523  0.00  0.00    +0.000 A 
ATOM     15  C   UNL     1       6.340   3.879  13.283  0.00  0.00    +0.000 A 
ATOM     16  C   UNL     1       7.217   4.484  12.354  0.00  0.00    +0.000 A 
ATOM     17  C   UNL     1       8.005   5.344  13.080  0.00  0.00    +0.000 A 
ATOM     18  O   UNL     1       7.670   5.307  14.398  0.00  0.00    +0.000 OA
ENDBRANCH  13  14
ENDBRANCH   3  12
TORSDOF 3
ENDMDL
MODEL 3
REMARK VINA RESULT:      -6.9      1.250      1.323
REMARK  Name = 
REMARK  3 active torsions:
REMARK  status: ('A' for Active; 'I' for Inactive)
REMARK    1  A    between atoms: C_2  and  C_11
REMARK    2  A    between atoms: N_3  and  N_4
REMARK    3  A    between atoms: C_5  and  C_6
REMARK                            x       y       z     vdW  Elec       q    Type
REMARK                         _______ _______ _______ _____ _____    ______ ____
ROOT
ATOM      1  O   UNL     1       3.689   5.771  17.374  0.00  0.00    +0.000 OA
ATOM      2  C   UNL     1       4.037   4.699  17.864  0.00  0.00    +0.000 C 
ATOM      3  N   UNL     1       5.099   3.922  17.419  0.00  0.00    +0.000 N 
ATOM      4  H   UNL     1       5.262   2.990  17.780  0.00  0.00    +0.000 HD
ENDROOT
BRANCH   2   5
ATOM      5  C   UNL     1       3.260   4.152  19.007  0.00  0.00    +0.000 A 
ATOM      6  C   UNL     1       2.765   2.842  18.907  0.00  0.00    +0.000 A 
ATOM      7  C   UNL     1       2.001   2.299  19.941  0.00  0.00    +0.000 A 
ATOM      8  C   UNL     1       1.725   3.072  21.063  0.00  0.00    +0.000 A 
ATOM      9  F   UNL     1       0.982   2.557  22.051  0.00  0.00    +0.000 F 
ATOM     10  C   UNL     1       2.197   4.376  21.171  0.00  0.00    +0.000 A 
ATOM     11  C   UNL     1       2.966   4.923  20.141  0.00  0.00    +0.000 A 
ENDBRANCH   2   5
BRANCH   3  12
ATOM     12  N   UNL     1       5.838   4.382  16.372  0.00  0.00    +0.000 NA
ATOM     13  C   UNL     1       5.742   3.746  15.248  0.00  0.00    +0.000 C 
BRANCH  13  14
ATOM     14  C   UNL     1       6.490   4.208  14.115  0.00  0.00    +0.000 A 
ATOM     15  C   UNL     1       6.454   3.839  12.784  0.00  0.00    +0.000 A 
ATOM     16  C   UNL     1       7.438   4.609  12.123  0.00  0.00    +0.000 A 
ATOM     17  C   UNL     1       8.007   5.406  13.087  0.00  0.00    +0.000 A 
ATOM     18  O   UNL     1       7.436   5.176  14.300  0.00  0.00    +0.000 OA
ENDBRANCH  13  14
ENDBRANCH   3  12
TORSDOF 3
ENDMDL
MODEL 4
REMARK VINA RESULT:      -6.9      1.185      1.201
REMARK  Name = 
REMARK  3 active torsions:
REMARK  status: ('A' for Active; 'I' for Inactive)
REMARK    1  A    between atoms: C_2  and  C_11
REMARK    2  A    between atoms: N_3  and  N_4
REMARK    3  A    between atoms: C_5  and  C_6
REMARK                            x       y       z     vdW  Elec       q    Type
REMARK                         _______ _______ _______ _____ _____    ______ ____
ROOT
ATOM      1  O   UNL     1       3.457   6.114  17.537  0.00  0.00    +0.000 OA
ATOM      2  C   UNL     1       3.521   4.898  17.704  0.00  0.00    +0.000 C 
ATOM      3  N   UNL     1       4.242   4.017  16.908  0.00  0.00    +0.000 N 
ATOM      4  H   UNL     1       4.158   3.014  17.017  0.00  0.00    +0.000 HD
ENDROOT
BRANCH   2   5
ATOM      5  C   UNL     1       2.754   4.291  18.823  0.00  0.00    +0.000 A 
ATOM      6  C   UNL     1       3.057   4.697  20.133  0.00  0.00    +0.000 A 
ATOM      7  C   UNL     1       2.386   4.129  21.216  0.00  0.00    +0.000 A 
ATOM      8  C   UNL     1       1.425   3.151  20.987  0.00  0.00    +0.000 A 
ATOM      9  F   UNL     1       0.788   2.596  22.027  0.00  0.00    +0.000 F 
ATOM     10  C   UNL     1       1.124   2.729  19.696  0.00  0.00    +0.000 A 
ATOM     11  C   UNL     1       1.789   3.297  18.608  0.00  0.00    +0.000 A 
ENDBRANCH   2   5
BRANCH   3  12
ATOM     12  N   UNL     1       4.959   4.528  15.869  0.00  0.00    +0.000 NA
ATOM     13  C   UNL     1       5.761   3.726  15.245  0.00  0.00    +0.000 C 
BRANCH  13  14
ATOM     14  C   UNL     1       6.521   4.218  14.133  0.00  0.00    +0.000 A 
ATOM     15  C   UNL     1       6.502   3.884  12.793  0.00  0.00    +0.000 A 
ATOM     16  C   UNL     1       7.492   4.672  12.164  0.00  0.00    +0.000 A 
ATOM     17  C   UNL     1       8.048   5.445  13.155  0.00  0.00    +0.000 A 
ATOM     18  O   UNL     1       7.463   5.183  14.355  0.00  0.00    +0.000 OA
ENDBRANCH  13  14
ENDBRANCH   3  12
TORSDOF 3
ENDMDL
MODEL 5
REMARK VINA RESULT:      -6.7      1.239      1.379
REMARK  Name = 
REMARK  3 active torsions:
REMARK  status: ('A' for Active; 'I' for Inactive)
REMARK    1  A    between atoms: C_2  and  C_11
REMARK    2  A    between atoms: N_3  and  N_4
REMARK    3  A    between atoms: C_5  and  C_6
REMARK                            x       y       z     vdW  Elec       q    Type
REMARK                         _______ _______ _______ _____ _____    ______ ____
ROOT
ATOM      1  O   UNL     1       3.802   5.653  17.440  0.00  0.00    +0.000 OA
ATOM      2  C   UNL     1       4.037   4.553  17.933  0.00  0.00    +0.000 C 
ATOM      3  N   UNL     1       5.035   3.683  17.513  0.00  0.00    +0.000 N 
ATOM      4  H   UNL     1       5.102   2.739  17.873  0.00  0.00    +0.000 HD
ENDROOT
BRANCH   2   5
ATOM      5  C   UNL     1       3.183   4.076  19.052  0.00  0.00    +0.000 A 
ATOM      6  C   UNL     1       3.724   3.138  19.947  0.00  0.00    +0.000 A 
ATOM      7  C   UNL     1       2.946   2.637  20.992  0.00  0.00    +0.000 A 
ATOM      8  C   UNL     1       1.631   3.065  21.131  0.00  0.00    +0.000 A 
ATOM      9  F   UNL     1       0.880   2.576  22.126  0.00  0.00    +0.000 F 
ATOM     10  C   UNL     1       1.077   3.983  20.244  0.00  0.00    +0.000 A 
ATOM     11  C   UNL     1       1.851   4.492  19.199  0.00  0.00    +0.000 A 
ENDBRANCH   2   5
BRANCH   3  12
ATOM     12  N   UNL     1       5.842   4.076  16.488  0.00  0.00    +0.000 NA
ATOM     13  C   UNL     1       5.509   3.710  15.292  0.00  0.00    +0.000 C 
BRANCH  13  14
ATOM     14  C   UNL     1       6.321   4.118  14.182  0.00  0.00    +0.000 A 
ATOM     15  C   UNL     1       7.278   5.108  14.065  0.00  0.00    +0.000 A 
ATOM     16  C   UNL     1       7.730   5.078  12.726  0.00  0.00    +0.000 A 
ATOM     17  C   UNL     1       7.030   4.068  12.111  0.00  0.00    +0.000 A 
ATOM     18  O   UNL     1       6.175   3.474  12.986  0.00  0.00    +0.000 OA
ENDBRANCH  13  14
ENDBRANCH   3  12
TORSDOF 3
ENDMDL
MODEL 6
REMARK VINA RESULT:      -6.6      3.562      7.792
REMARK  Name = 
REMARK  3 active torsions:
REMARK  status: ('A' for Active; 'I' for Inactive)
REMARK    1  A    between atoms: C_2  and  C_11
REMARK    2  A    between atoms: N_3  and  N_4
REMARK    3  A    between atoms: C_5  and  C_6
REMARK                            x       y       z     vdW  Elec       q    Type
REMARK                         _______ _______ _______ _____ _____    ______ ____
ROOT
ATOM      1  O   UNL     1       4.883   5.762  16.528  0.00  0.00    +0.000 OA
ATOM      2  C   UNL     1       5.157   4.638  16.112  0.00  0.00    +0.000 C 
ATOM      3  N   UNL     1       4.907   3.451  16.787  0.00  0.00    +0.000 N 
ATOM      4  H   UNL     1       5.267   2.564  16.453  0.00  0.00    +0.000 HD
ENDROOT
BRANCH   2   5
ATOM      5  C   UNL     1       5.836   4.513  14.795  0.00  0.00    +0.000 A 
ATOM      6  C   UNL     1       5.255   3.678  13.826  0.00  0.00    +0.000 A 
ATOM      7  C   UNL     1       5.875   3.503  12.589  0.00  0.00    +0.000 A 
ATOM      8  C   UNL     1       7.077   4.151  12.330  0.00  0.00    +0.000 A 
ATOM      9  F   UNL     1       7.680   3.975  11.147  0.00  0.00    +0.000 F 
ATOM     10  C   UNL     1       7.672   4.970  13.285  0.00  0.00    +0.000 A 
ATOM     11  C   UNL     1       7.053   5.153  14.524  0.00  0.00    +0.000 A 
ENDBRANCH   2   5
BRANCH   3  12
ATOM     12  N   UNL     1       4.289   3.517  17.998  0.00  0.00    +0.000 NA
ATOM     13  C   UNL     1       3.302   2.706  18.210  0.00  0.00    +0.000 C 
BRANCH  13  14
ATOM     14  C   UNL     1       2.635   2.730  19.480  0.00  0.00    +0.000 A 
ATOM     15  C   UNL     1       1.298   2.845  19.808  0.00  0.00    +0.000 A 
ATOM     16  C   UNL     1       1.225   2.842  21.219  0.00  0.00    +0.000 A 
ATOM     17  C   UNL     1       2.519   2.717  21.667  0.00  0.00    +0.000 A 
ATOM     18  O   UNL     1       3.384   2.643  20.620  0.00  0.00    +0.000 OA
ENDBRANCH  13  14
ENDBRANCH   3  12
TORSDOF 3
ENDMDL
MODEL 7
REMARK VINA RESULT:      -6.6      0.744      1.509
REMARK  Name = 
REMARK  3 active torsions:
REMARK  status: ('A' for Active; 'I' for Inactive)
REMARK    1  A    between atoms: C_2  and  C_11
REMARK    2  A    between atoms: N_3  and  N_4
REMARK    3  A    between atoms: C_5  and  C_6
REMARK                            x       y       z     vdW  Elec       q    Type
REMARK                         _______ _______ _______ _____ _____    ______ ____
ROOT
ATOM      1  O   UNL     1       2.508   3.487  16.422  0.00  0.00    +0.000 OA
ATOM      2  C   UNL     1       3.186   3.723  17.419  0.00  0.00    +0.000 C 
ATOM      3  N   UNL     1       4.459   4.281  17.408  0.00  0.00    +0.000 N 
ATOM      4  H   UNL     1       5.020   4.337  18.249  0.00  0.00    +0.000 HD
ENDROOT
BRANCH   2   5
ATOM      5  C   UNL     1       2.639   3.368  18.755  0.00  0.00    +0.000 A 
ATOM      6  C   UNL     1       1.263   3.547  18.977  0.00  0.00    +0.000 A 
ATOM      7  C   UNL     1       0.711   3.259  20.226  0.00  0.00    +0.000 A 
ATOM      8  C   UNL     1       1.537   2.807  21.249  0.00  0.00    +0.000 A 
ATOM      9  F   UNL     1       1.010   2.542  22.452  0.00  0.00    +0.000 F 
ATOM     10  C   UNL     1       2.903   2.638  21.048  0.00  0.00    +0.000 A 
ATOM     11  C   UNL     1       3.461   2.920  19.799  0.00  0.00    +0.000 A 
ENDBRANCH   2   5
BRANCH   3  12
ATOM     12  N   UNL     1       5.002   4.620  16.207  0.00  0.00    +0.000 NA
ATOM     13  C   UNL     1       5.812   3.773  15.657  0.00  0.00    +0.000 C 
BRANCH  13  14
ATOM     14  C   UNL     1       6.393   4.083  14.382  0.00  0.00    +0.000 A 
ATOM     15  C   UNL     1       7.303   5.051  14.004  0.00  0.00    +0.000 A 
ATOM     16  C   UNL     1       7.489   4.909  12.610  0.00  0.00    +0.000 A 
ATOM     17  C   UNL     1       6.689   3.859  12.225  0.00  0.00    +0.000 A 
ATOM     18  O   UNL     1       6.022   3.346  13.293  0.00  0.00    +0.000 OA
ENDBRANCH  13  14
ENDBRANCH   3  12
TORSDOF 3
ENDMDL
MODEL 8
REMARK VINA RESULT:      -6.6      1.246      1.666
REMARK  Name = 
REMARK  3 active torsions:
REMARK  status: ('A' for Active; 'I' for Inactive)
REMARK    1  A    between atoms: C_2  and  C_11
REMARK    2  A    between atoms: N_3  and  N_4
REMARK    3  A    between atoms: C_5  and  C_6
REMARK                            x       y       z     vdW  Elec       q    Type
REMARK                         _______ _______ _______ _____ _____    ______ ____
ROOT
ATOM      1  O   UNL     1       4.495   5.947  18.168  0.00  0.00    +0.000 OA
ATOM      2  C   UNL     1       4.177   4.763  18.078  0.00  0.00    +0.000 C 
ATOM      3  N   UNL     1       4.521   3.918  17.031  0.00  0.00    +0.000 N 
ATOM      4  H   UNL     1       4.127   2.988  16.948  0.00  0.00    +0.000 HD
ENDROOT
BRANCH   2   5
ATOM      5  C   UNL     1       3.334   4.169  19.148  0.00  0.00    +0.000 A 
ATOM      6  C   UNL     1       2.100   4.777  19.434  0.00  0.00    +0.000 A 
ATOM      7  C   UNL     1       1.290   4.274  20.454  0.00  0.00    +0.000 A 
ATOM      8  C   UNL     1       1.722   3.177  21.190  0.00  0.00    +0.000 A 
ATOM      9  F   UNL     1       0.951   2.701  22.177  0.00  0.00    +0.000 F 
ATOM     10  C   UNL     1       2.948   2.573  20.927  0.00  0.00    +0.000 A 
ATOM     11  C   UNL     1       3.760   3.069  19.905  0.00  0.00    +0.000 A 
ENDBRANCH   2   5
BRANCH   3  12
ATOM     12  N   UNL     1       5.292   4.419  16.026  0.00  0.00    +0.000 NA
ATOM     13  C   UNL     1       5.577   3.629  15.041  0.00  0.00    +0.000 C 
BRANCH  13  14
ATOM     14  C   UNL     1       6.371   4.122  13.953  0.00  0.00    +0.000 A 
ATOM     15  C   UNL     1       6.453   3.731  12.631  0.00  0.00    +0.000 A 
ATOM     16  C   UNL     1       7.428   4.555  12.024  0.00  0.00    +0.000 A 
ATOM     17  C   UNL     1       7.876   5.403  13.009  0.00  0.00    +0.000 A 
ATOM     18  O   UNL     1       7.238   5.153  14.184  0.00  0.00    +0.000 OA
ENDBRANCH  13  14
ENDBRANCH   3  12
TORSDOF 3
ENDMDL
MODEL 9
REMARK VINA RESULT:      -6.5      6.520      7.924
REMARK  Name = 
REMARK  3 active torsions:
REMARK  status: ('A' for Active; 'I' for Inactive)
REMARK    1  A    between atoms: C_2  and  C_11
REMARK    2  A    between atoms: N_3  and  N_4
REMARK    3  A    between atoms: C_5  and  C_6
REMARK                            x       y       z     vdW  Elec       q    Type
REMARK                         _______ _______ _______ _____ _____    ______ ____
ROOT
ATOM      1  O   UNL     1       7.851   6.321  19.038  0.00  0.00    +0.000 OA
ATOM      2  C   UNL     1       7.596   6.865  17.966  0.00  0.00    +0.000 C 
ATOM      3  N   UNL     1       7.914   8.177  17.638  0.00  0.00    +0.000 N 
ATOM      4  H   UNL     1       7.569   8.610  16.790  0.00  0.00    +0.000 HD
ENDROOT
BRANCH   2   5
ATOM      5  C   UNL     1       6.865   6.090  16.929  0.00  0.00    +0.000 A 
ATOM      6  C   UNL     1       7.357   4.822  16.578  0.00  0.00    +0.000 A 
ATOM      7  C   UNL     1       6.723   4.074  15.586  0.00  0.00    +0.000 A 
ATOM      8  C   UNL     1       5.609   4.600  14.941  0.00  0.00    +0.000 A 
ATOM      9  F   UNL     1       5.006   3.888  13.980  0.00  0.00    +0.000 F 
ATOM     10  C   UNL     1       5.118   5.859  15.269  0.00  0.00    +0.000 A 
ATOM     11  C   UNL     1       5.746   6.612  16.264  0.00  0.00    +0.000 A 
ENDBRANCH   2   5
BRANCH   3  12
ATOM     12  N   UNL     1       8.582   8.926  18.558  0.00  0.00    +0.000 NA
ATOM     13  C   UNL     1       8.908  10.133  18.222  0.00  0.00    +0.000 C 
BRANCH  13  14
ATOM     14  C   UNL     1       9.596  10.963  19.168  0.00  0.00    +0.000 A 
ATOM     15  C   UNL     1       9.481  11.074  20.540  0.00  0.00    +0.000 A 
ATOM     16  C   UNL     1      10.391  12.078  20.943  0.00  0.00    +0.000 A 
ATOM     17  C   UNL     1      11.011  12.512  19.796  0.00  0.00    +0.000 A 
ATOM     18  O   UNL     1      10.541  11.839  18.712  0.00  0.00    +0.000 OA
ENDBRANCH  13  14
ENDBRANCH   3  12
TORSDOF 3
ENDMDL
