MODEL 1
REMARK VINA RESULT:      -6.7      0.000      0.000
REMARK  Name = 
REMARK  7 active torsions:
REMARK  status: ('A' for Active; 'I' for Inactive)
REMARK    1  A    between atoms: C_1  and  O_2
REMARK    2  A    between atoms: O_2  and  C_3
REMARK    3  A    between atoms: C_8  and  O_9
REMARK    4  A    between atoms: O_9  and  C_10
REMARK    5  A    between atoms: N_16  and  C_17
REMARK    6  A    between atoms: C_20  and  N_21
REMARK    7  A    between atoms: C_26  and  C_27
REMARK                            x       y       z     vdW  Elec       q    Type
REMARK                         _______ _______ _______ _____ _____    ______ ____
ROOT
ATOM      1  C   UNL     1       3.007  13.896  19.409  0.00  0.00    +0.000 A 
ATOM      2  C   UNL     1       3.952  14.217  18.407  0.00  0.00    +0.000 A 
ATOM      3  C   UNL     1       4.978  15.099  18.703  0.00  0.00    +0.000 A 
ATOM      4  C   UNL     1       4.997  15.679  19.978  0.00  0.00    +0.000 A 
ATOM      5  C   UNL     1       4.010  15.500  20.940  0.00  0.00    +0.000 A 
ATOM      6  C   UNL     1       3.021  14.553  20.669  0.00  0.00    +0.000 A 
ATOM      7  C   UNL     1       6.379  15.521  20.356  0.00  0.00    +0.000 C 
ATOM      8  N   UNL     1       7.004  15.893  21.419  0.00  0.00    +0.000 NA
ATOM      9  N   UNL     1       8.185  15.109  21.380  0.00  0.00    +0.000 N 
ATOM     10  C   UNL     1       8.148  14.046  22.365  0.00  0.00    +0.000 C 
ATOM     11  O   UNL     1       8.923  13.101  22.418  0.00  0.00    +0.000 OA
ATOM     12  N   UNL     1       7.012  14.190  23.162  0.00  0.00    +0.000 N 
ATOM     13  C   UNL     1       8.488  14.791  19.919  0.00  0.00    +0.000 C 
ATOM     14  C   UNL     1       7.069  14.567  19.425  0.00  0.00    +0.000 C 
ATOM     15  C   UNL     1       6.402  15.036  18.135  0.00  0.00    +0.000 C 
ATOM     16  H   UNL     1       6.421  14.935  22.810  0.00  0.00    +0.000 HD
ENDROOT
BRANCH  12  17
ATOM     17  C   UNL     1       6.468  13.273  24.068  0.00  0.00    +0.000 A 
ATOM     18  C   UNL     1       6.335  11.922  23.777  0.00  0.00    +0.000 A 
ATOM     19  C   UNL     1       5.752  11.048  24.699  0.00  0.00    +0.000 A 
ATOM     20  C   UNL     1       5.268  11.548  25.918  0.00  0.00    +0.000 A 
ATOM     21  C   UNL     1       5.433  12.900  26.237  0.00  0.00    +0.000 A 
ATOM     22  C   UNL     1       6.047  13.754  25.316  0.00  0.00    +0.000 A 
BRANCH  20  23
ATOM     23  N   UNL     1       4.576  10.652  26.845  0.00  0.00    +0.000 N 
ATOM     24  O   UNL     1       3.656   9.952  26.398  0.00  0.00    +0.000 OA
ATOM     25  O   UNL     1       4.940  10.659  28.029  0.00  0.00    +0.000 OA
ENDBRANCH  20  23
ENDBRANCH  12  17
BRANCH  13  26
ATOM     26  C   UNL     1       9.490  13.681  19.661  0.00  0.00    +0.000 A 
ATOM     27  C   UNL     1       9.134  12.420  19.162  0.00  0.00    +0.000 A 
ATOM     28  C   UNL     1      10.104  11.429  19.062  0.00  0.00    +0.000 A 
ATOM     29  N   UNL     1      11.399  11.604  19.390  0.00  0.00    +0.000 NA
ATOM     30  C   UNL     1      11.737  12.828  19.844  0.00  0.00    +0.000 A 
ATOM     31  C   UNL     1      10.843  13.884  19.969  0.00  0.00    +0.000 A 
ENDBRANCH  13  26
BRANCH   1  33
ATOM     32  C   UNL     1       0.975  13.027  18.490  0.00  0.00    +0.000 C 
ATOM     33  O   UNL     1       2.253  12.800  19.065  0.00  0.00    +0.000 OA
ENDBRANCH   1  33
BRANCH   6  34
ATOM     34  O   UNL     1       2.223  14.073  21.676  0.00  0.00    +0.000 OA
ATOM     35  C   UNL     1       0.965  14.714  21.855  0.00  0.00    +0.000 C 
ENDBRANCH   6  34
TORSDOF 5
ENDMDL
MODEL 2
REMARK VINA RESULT:      -6.5      0.413      1.036
REMARK  Name = 
REMARK  7 active torsions:
REMARK  status: ('A' for Active; 'I' for Inactive)
REMARK    1  A    between atoms: C_1  and  O_2
REMARK    2  A    between atoms: O_2  and  C_3
REMARK    3  A    between atoms: C_8  and  O_9
REMARK    4  A    between atoms: O_9  and  C_10
REMARK    5  A    between atoms: N_16  and  C_17
REMARK    6  A    between atoms: C_20  and  N_21
REMARK    7  A    between atoms: C_26  and  C_27
REMARK                            x       y       z     vdW  Elec       q    Type
REMARK                         _______ _______ _______ _____ _____    ______ ____
ROOT
ATOM      1  C   UNL     1       2.993  13.984  19.395  0.00  0.00    +0.000 A 
ATOM      2  C   UNL     1       3.882  14.272  18.333  0.00  0.00    +0.000 A 
ATOM      3  C   UNL     1       4.945  15.131  18.556  0.00  0.00    +0.000 A 
ATOM      4  C   UNL     1       5.056  15.722  19.821  0.00  0.00    +0.000 A 
ATOM      5  C   UNL     1       4.127  15.576  20.844  0.00  0.00    +0.000 A 
ATOM      6  C   UNL     1       3.100  14.651  20.644  0.00  0.00    +0.000 A 
ATOM      7  C   UNL     1       6.456  15.533  20.115  0.00  0.00    +0.000 C 
ATOM      8  N   UNL     1       7.154  15.900  21.134  0.00  0.00    +0.000 NA
ATOM      9  N   UNL     1       8.310  15.086  21.031  0.00  0.00    +0.000 N 
ATOM     10  C   UNL     1       8.308  14.034  22.028  0.00  0.00    +0.000 C 
ATOM     11  O   UNL     1       9.063  13.071  22.043  0.00  0.00    +0.000 OA
ATOM     12  N   UNL     1       7.228  14.213  22.891  0.00  0.00    +0.000 N 
ATOM     13  C   UNL     1       8.515  14.747  19.558  0.00  0.00    +0.000 C 
ATOM     14  C   UNL     1       7.064  14.554  19.154  0.00  0.00    +0.000 C 
ATOM     15  C   UNL     1       6.330  15.027  17.903  0.00  0.00    +0.000 C 
ATOM     16  H   UNL     1       6.635  14.969  22.569  0.00  0.00    +0.000 HD
ENDROOT
BRANCH  12  17
ATOM     17  C   UNL     1       6.719  13.318  23.839  0.00  0.00    +0.000 A 
ATOM     18  C   UNL     1       6.486  11.979  23.556  0.00  0.00    +0.000 A 
ATOM     19  C   UNL     1       5.942  11.130  24.522  0.00  0.00    +0.000 A 
ATOM     20  C   UNL     1       5.599  11.644  25.782  0.00  0.00    +0.000 A 
ATOM     21  C   UNL     1       5.866  12.981  26.092  0.00  0.00    +0.000 A 
ATOM     22  C   UNL     1       6.439  13.809  25.122  0.00  0.00    +0.000 A 
BRANCH  20  23
ATOM     23  N   UNL     1       4.946  10.778  26.765  0.00  0.00    +0.000 N 
ATOM     24  O   UNL     1       5.573  10.495  27.797  0.00  0.00    +0.000 OA
ATOM     25  O   UNL     1       3.809  10.364  26.500  0.00  0.00    +0.000 OA
ENDBRANCH  20  23
ENDBRANCH  12  17
BRANCH  13  26
ATOM     26  C   UNL     1       9.472  13.610  19.251  0.00  0.00    +0.000 A 
ATOM     27  C   UNL     1      10.858  13.694  19.451  0.00  0.00    +0.000 A 
ATOM     28  C   UNL     1      11.669  12.642  19.038  0.00  0.00    +0.000 A 
ATOM     29  N   UNL     1      11.207  11.509  18.474  0.00  0.00    +0.000 NA
ATOM     30  C   UNL     1       9.871  11.428  18.311  0.00  0.00    +0.000 A 
ATOM     31  C   UNL     1       8.980  12.419  18.700  0.00  0.00    +0.000 A 
ENDBRANCH  13  26
BRANCH   1  33
ATOM     32  C   UNL     1       0.903  13.156  18.575  0.00  0.00    +0.000 C 
ATOM     33  O   UNL     1       2.193  12.904  19.110  0.00  0.00    +0.000 OA
ENDBRANCH   1  33
BRANCH   6  34
ATOM     34  O   UNL     1       2.355  14.201  21.704  0.00  0.00    +0.000 OA
ATOM     35  C   UNL     1       1.100  14.838  21.919  0.00  0.00    +0.000 C 
ENDBRANCH   6  34
TORSDOF 5
ENDMDL
MODEL 3
REMARK VINA RESULT:      -6.5      0.984      1.013
REMARK  Name = 
REMARK  7 active torsions:
REMARK  status: ('A' for Active; 'I' for Inactive)
REMARK    1  A    between atoms: C_1  and  O_2
REMARK    2  A    between atoms: O_2  and  C_3
REMARK    3  A    between atoms: C_8  and  O_9
REMARK    4  A    between atoms: O_9  and  C_10
REMARK    5  A    between atoms: N_16  and  C_17
REMARK    6  A    between atoms: C_20  and  N_21
REMARK    7  A    between atoms: C_26  and  C_27
REMARK                            x       y       z     vdW  Elec       q    Type
REMARK                         _______ _______ _______ _____ _____    ______ ____
ROOT
ATOM      1  C   UNL     1       3.576  14.507  19.706  0.00  0.00    +0.000 A 
ATOM      2  C   UNL     1       4.440  14.809  18.627  0.00  0.00    +0.000 A 
ATOM      3  C   UNL     1       5.572  15.571  18.862  0.00  0.00    +0.000 A 
ATOM      4  C   UNL     1       5.780  16.056  20.160  0.00  0.00    +0.000 A 
ATOM      5  C   UNL     1       4.884  15.901  21.212  0.00  0.00    +0.000 A 
ATOM      6  C   UNL     1       3.784  15.070  20.993  0.00  0.00    +0.000 A 
ATOM      7  C   UNL     1       7.172  15.746  20.375  0.00  0.00    +0.000 C 
ATOM      8  N   UNL     1       7.936  15.984  21.383  0.00  0.00    +0.000 NA
ATOM      9  N   UNL     1       9.023  15.099  21.169  0.00  0.00    +0.000 N 
ATOM     10  C   UNL     1       8.983  13.978  22.087  0.00  0.00    +0.000 C 
ATOM     11  O   UNL     1       9.663  12.965  21.998  0.00  0.00    +0.000 OA
ATOM     12  N   UNL     1       7.956  14.169  23.010  0.00  0.00    +0.000 N 
ATOM     13  C   UNL     1       9.142  14.858  19.667  0.00  0.00    +0.000 C 
ATOM     14  C   UNL     1       7.665  14.800  19.319  0.00  0.00    +0.000 C 
ATOM     15  C   UNL     1       6.918  15.417  18.139  0.00  0.00    +0.000 C 
ATOM     16  H   UNL     1       7.408  14.988  22.770  0.00  0.00    +0.000 HD
ENDROOT
BRANCH  12  17
ATOM     17  C   UNL     1       7.420  13.245  23.914  0.00  0.00    +0.000 A 
ATOM     18  C   UNL     1       6.480  12.292  23.542  0.00  0.00    +0.000 A 
ATOM     19  C   UNL     1       5.944  11.413  24.487  0.00  0.00    +0.000 A 
ATOM     20  C   UNL     1       6.339  11.514  25.830  0.00  0.00    +0.000 A 
ATOM     21  C   UNL     1       7.314  12.442  26.207  0.00  0.00    +0.000 A 
ATOM     22  C   UNL     1       7.862  13.294  25.243  0.00  0.00    +0.000 A 
BRANCH  20  23
ATOM     23  N   UNL     1       5.713  10.654  26.836  0.00  0.00    +0.000 N 
ATOM     24  O   UNL     1       4.529  10.328  26.664  0.00  0.00    +0.000 OA
ATOM     25  O   UNL     1       6.399  10.317  27.810  0.00  0.00    +0.000 OA
ENDBRANCH  20  23
ENDBRANCH  12  17
BRANCH  13  26
ATOM     26  C   UNL     1       9.998  13.682  19.236  0.00  0.00    +0.000 A 
ATOM     27  C   UNL     1       9.468  12.488  18.725  0.00  0.00    +0.000 A 
ATOM     28  C   UNL     1      10.323  11.423  18.460  0.00  0.00    +0.000 A 
ATOM     29  N   UNL     1      11.658  11.466  18.633  0.00  0.00    +0.000 NA
ATOM     30  C   UNL     1      12.160  12.627  19.099  0.00  0.00    +0.000 A 
ATOM     31  C   UNL     1      11.391  13.747  19.383  0.00  0.00    +0.000 A 
ENDBRANCH  13  26
BRANCH   1  33
ATOM     32  C   UNL     1       2.787  12.926  18.092  0.00  0.00    +0.000 C 
ATOM     33  O   UNL     1       2.687  13.512  19.381  0.00  0.00    +0.000 OA
ENDBRANCH   1  33
BRANCH   6  34
ATOM     34  O   UNL     1       3.051  14.595  22.052  0.00  0.00    +0.000 OA
ATOM     35  C   UNL     1       1.797  15.225  22.293  0.00  0.00    +0.000 C 
ENDBRANCH   6  34
TORSDOF 5
ENDMDL
MODEL 4
REMARK VINA RESULT:      -6.5      7.333     11.795
REMARK  Name = 
REMARK  7 active torsions:
REMARK  status: ('A' for Active; 'I' for Inactive)
REMARK    1  A    between atoms: C_1  and  O_2
REMARK    2  A    between atoms: O_2  and  C_3
REMARK    3  A    between atoms: C_8  and  O_9
REMARK    4  A    between atoms: O_9  and  C_10
REMARK    5  A    between atoms: N_16  and  C_17
REMARK    6  A    between atoms: C_20  and  N_21
REMARK    7  A    between atoms: C_26  and  C_27
REMARK                            x       y       z     vdW  Elec       q    Type
REMARK                         _______ _______ _______ _____ _____    ______ ____
ROOT
ATOM      1  C   UNL     1      -6.630  13.226  17.790  0.00  0.00    +0.000 A 
ATOM      2  C   UNL     1      -7.408  13.998  18.684  0.00  0.00    +0.000 A 
ATOM      3  C   UNL     1      -7.443  13.649  20.024  0.00  0.00    +0.000 A 
ATOM      4  C   UNL     1      -6.743  12.503  20.422  0.00  0.00    +0.000 A 
ATOM      5  C   UNL     1      -6.085  11.640  19.553  0.00  0.00    +0.000 A 
ATOM      6  C   UNL     1      -5.986  12.034  18.218  0.00  0.00    +0.000 A 
ATOM      7  C   UNL     1      -6.053  12.970  21.599  0.00  0.00    +0.000 C 
ATOM      8  N   UNL     1      -5.276  12.348  22.416  0.00  0.00    +0.000 NA
ATOM      9  N   UNL     1      -4.614  13.406  23.087  0.00  0.00    +0.000 N 
ATOM     10  C   UNL     1      -3.239  13.536  22.647  0.00  0.00    +0.000 C 
ATOM     11  O   UNL     1      -2.501  14.479  22.895  0.00  0.00    +0.000 OA
ATOM     12  N   UNL     1      -2.927  12.485  21.784  0.00  0.00    +0.000 N 
ATOM     13  C   UNL     1      -5.540  14.619  23.079  0.00  0.00    +0.000 C 
ATOM     14  C   UNL     1      -6.116  14.467  21.682  0.00  0.00    +0.000 C 
ATOM     15  C   UNL     1      -7.555  14.629  21.200  0.00  0.00    +0.000 C 
ATOM     16  H   UNL     1      -3.752  11.934  21.579  0.00  0.00    +0.000 HD
ENDROOT
BRANCH  12  17
ATOM     17  C   UNL     1      -1.806  12.348  20.957  0.00  0.00    +0.000 A 
ATOM     18  C   UNL     1      -1.804  12.743  19.626  0.00  0.00    +0.000 A 
ATOM     19  C   UNL     1      -0.673  12.552  18.827  0.00  0.00    +0.000 A 
ATOM     20  C   UNL     1       0.461  11.928  19.369  0.00  0.00    +0.000 A 
ATOM     21  C   UNL     1       0.484  11.563  20.719  0.00  0.00    +0.000 A 
ATOM     22  C   UNL     1      -0.646  11.789  21.511  0.00  0.00    +0.000 A 
BRANCH  20  23
ATOM     23  N   UNL     1       1.613  11.646  18.511  0.00  0.00    +0.000 N 
ATOM     24  O   UNL     1       1.820  10.468  18.187  0.00  0.00    +0.000 OA
ATOM     25  O   UNL     1       2.324  12.602  18.173  0.00  0.00    +0.000 OA
ENDBRANCH  20  23
ENDBRANCH  12  17
BRANCH  13  26
ATOM     26  C   UNL     1      -4.909  15.955  23.423  0.00  0.00    +0.000 A 
ATOM     27  C   UNL     1      -4.619  16.940  22.468  0.00  0.00    +0.000 A 
ATOM     28  C   UNL     1      -3.940  18.088  22.860  0.00  0.00    +0.000 A 
ATOM     29  N   UNL     1      -3.557  18.344  24.126  0.00  0.00    +0.000 NA
ATOM     30  C   UNL     1      -3.864  17.402  25.042  0.00  0.00    +0.000 A 
ATOM     31  C   UNL     1      -4.548  16.230  24.750  0.00  0.00    +0.000 A 
ENDBRANCH  13  26
BRANCH   1  33
ATOM     32  C   UNL     1      -7.223  15.031  16.335  0.00  0.00    +0.000 C 
ATOM     33  O   UNL     1      -6.455  13.864  16.586  0.00  0.00    +0.000 OA
ENDBRANCH   1  33
BRANCH   6  34
ATOM     34  O   UNL     1      -5.083  11.429  17.380  0.00  0.00    +0.000 OA
ATOM     35  C   UNL     1      -4.181  10.503  17.976  0.00  0.00    +0.000 C 
ENDBRANCH   6  34
TORSDOF 5
ENDMDL
MODEL 5
REMARK VINA RESULT:      -6.5      7.443     11.807
REMARK  Name = 
REMARK  7 active torsions:
REMARK  status: ('A' for Active; 'I' for Inactive)
REMARK    1  A    between atoms: C_1  and  O_2
REMARK    2  A    between atoms: O_2  and  C_3
REMARK    3  A    between atoms: C_8  and  O_9
REMARK    4  A    between atoms: O_9  and  C_10
REMARK    5  A    between atoms: N_16  and  C_17
REMARK    6  A    between atoms: C_20  and  N_21
REMARK    7  A    between atoms: C_26  and  C_27
REMARK                            x       y       z     vdW  Elec       q    Type
REMARK                         _______ _______ _______ _____ _____    ______ ____
ROOT
ATOM      1  C   UNL     1      -6.634  12.951  18.001  0.00  0.00    +0.000 A 
ATOM      2  C   UNL     1      -7.403  13.781  18.850  0.00  0.00    +0.000 A 
ATOM      3  C   UNL     1      -7.439  13.511  20.207  0.00  0.00    +0.000 A 
ATOM      4  C   UNL     1      -6.748  12.383  20.670  0.00  0.00    +0.000 A 
ATOM      5  C   UNL     1      -6.099  11.465  19.852  0.00  0.00    +0.000 A 
ATOM      6  C   UNL     1      -5.999  11.781  18.496  0.00  0.00    +0.000 A 
ATOM      7  C   UNL     1      -6.052  12.911  21.818  0.00  0.00    +0.000 C 
ATOM      8  N   UNL     1      -5.279  12.330  22.668  0.00  0.00    +0.000 NA
ATOM      9  N   UNL     1      -4.606  13.420  23.276  0.00  0.00    +0.000 N 
ATOM     10  C   UNL     1      -3.231  13.511  22.828  0.00  0.00    +0.000 C 
ATOM     11  O   UNL     1      -2.485  14.461  23.020  0.00  0.00    +0.000 OA
ATOM     12  N   UNL     1      -2.930  12.410  22.026  0.00  0.00    +0.000 N 
ATOM     13  C   UNL     1      -5.522  14.638  23.199  0.00  0.00    +0.000 C 
ATOM     14  C   UNL     1      -6.102  14.411  21.814  0.00  0.00    +0.000 C 
ATOM     15  C   UNL     1      -7.540  14.558  21.325  0.00  0.00    +0.000 C 
ATOM     16  H   UNL     1      -3.760  11.855  21.854  0.00  0.00    +0.000 HD
ENDROOT
BRANCH  12  17
ATOM     17  C   UNL     1      -1.811  12.216  21.207  0.00  0.00    +0.000 A 
ATOM     18  C   UNL     1      -1.617  12.918  20.025  0.00  0.00    +0.000 A 
ATOM     19  C   UNL     1      -0.504  12.664  19.220  0.00  0.00    +0.000 A 
ATOM     20  C   UNL     1       0.411  11.668  19.595  0.00  0.00    +0.000 A 
ATOM     21  C   UNL     1       0.246  10.983  20.804  0.00  0.00    +0.000 A 
ATOM     22  C   UNL     1      -0.858  11.271  21.612  0.00  0.00    +0.000 A 
BRANCH  20  23
ATOM     23  N   UNL     1       1.528  11.338  18.709  0.00  0.00    +0.000 N 
ATOM     24  O   UNL     1       2.282  12.258  18.359  0.00  0.00    +0.000 OA
ATOM     25  O   UNL     1       1.645  10.159  18.347  0.00  0.00    +0.000 OA
ENDBRANCH  20  23
ENDBRANCH  12  17
BRANCH  13  26
ATOM     26  C   UNL     1      -4.878  15.986  23.465  0.00  0.00    +0.000 A 
ATOM     27  C   UNL     1      -4.516  16.429  24.745  0.00  0.00    +0.000 A 
ATOM     28  C   UNL     1      -4.034  17.724  24.905  0.00  0.00    +0.000 A 
ATOM     29  N   UNL     1      -3.857  18.594  23.893  0.00  0.00    +0.000 NA
ATOM     30  C   UNL     1      -4.184  18.149  22.662  0.00  0.00    +0.000 A 
ATOM     31  C   UNL     1      -4.661  16.872  22.400  0.00  0.00    +0.000 A 
ENDBRANCH  13  26
BRANCH   1  33
ATOM     32  C   UNL     1      -7.380  14.510  16.346  0.00  0.00    +0.000 C 
ATOM     33  O   UNL     1      -6.455  13.517  16.762  0.00  0.00    +0.000 OA
ENDBRANCH   1  33
BRANCH   6  34
ATOM     34  O   UNL     1      -5.103  11.121  17.694  0.00  0.00    +0.000 OA
ATOM     35  C   UNL     1      -3.750  11.559  17.753  0.00  0.00    +0.000 C 
ENDBRANCH   6  34
TORSDOF 5
ENDMDL
MODEL 6
REMARK VINA RESULT:      -6.4      0.921      1.476
REMARK  Name = 
REMARK  7 active torsions:
REMARK  status: ('A' for Active; 'I' for Inactive)
REMARK    1  A    between atoms: C_1  and  O_2
REMARK    2  A    between atoms: O_2  and  C_3
REMARK    3  A    between atoms: C_8  and  O_9
REMARK    4  A    between atoms: O_9  and  C_10
REMARK    5  A    between atoms: N_16  and  C_17
REMARK    6  A    between atoms: C_20  and  N_21
REMARK    7  A    between atoms: C_26  and  C_27
REMARK                            x       y       z     vdW  Elec       q    Type
REMARK                         _______ _______ _______ _____ _____    ______ ____
ROOT
ATOM      1  C   UNL     1       3.745  14.474  19.077  0.00  0.00    +0.000 A 
ATOM      2  C   UNL     1       4.712  14.706  18.071  0.00  0.00    +0.000 A 
ATOM      3  C   UNL     1       5.809  15.500  18.359  0.00  0.00    +0.000 A 
ATOM      4  C   UNL     1       5.879  16.087  19.629  0.00  0.00    +0.000 A 
ATOM      5  C   UNL     1       4.882  15.999  20.594  0.00  0.00    +0.000 A 
ATOM      6  C   UNL     1       3.816  15.137  20.331  0.00  0.00    +0.000 A 
ATOM      7  C   UNL     1       7.244  15.815  20.007  0.00  0.00    +0.000 C 
ATOM      8  N   UNL     1       7.900  16.141  21.066  0.00  0.00    +0.000 NA
ATOM      9  N   UNL     1       9.009  15.258  21.032  0.00  0.00    +0.000 N 
ATOM     10  C   UNL     1       8.884  14.210  22.025  0.00  0.00    +0.000 C 
ATOM     11  O   UNL     1       9.577  13.204  22.085  0.00  0.00    +0.000 OA
ATOM     12  N   UNL     1       7.767  14.456  22.823  0.00  0.00    +0.000 N 
ATOM     13  C   UNL     1       9.282  14.905  19.573  0.00  0.00    +0.000 C 
ATOM     14  C   UNL     1       7.849  14.798  19.083  0.00  0.00    +0.000 C 
ATOM     15  C   UNL     1       7.222  15.312  17.790  0.00  0.00    +0.000 C 
ATOM     16  H   UNL     1       7.240  15.246  22.466  0.00  0.00    +0.000 HD
ENDROOT
BRANCH  12  17
ATOM     17  C   UNL     1       7.149  13.596  23.737  0.00  0.00    +0.000 A 
ATOM     18  C   UNL     1       7.126  13.845  25.103  0.00  0.00    +0.000 A 
ATOM     19  C   UNL     1       6.530  12.938  25.983  0.00  0.00    +0.000 A 
ATOM     20  C   UNL     1       5.974  11.750  25.483  0.00  0.00    +0.000 A 
ATOM     21  C   UNL     1       5.956  11.509  24.106  0.00  0.00    +0.000 A 
ATOM     22  C   UNL     1       6.531  12.441  23.237  0.00  0.00    +0.000 A 
BRANCH  20  23
ATOM     23  N   UNL     1       5.430  10.758  26.411  0.00  0.00    +0.000 N 
ATOM     24  O   UNL     1       4.282  10.338  26.203  0.00  0.00    +0.000 OA
ATOM     25  O   UNL     1       6.143  10.409  27.362  0.00  0.00    +0.000 OA
ENDBRANCH  20  23
ENDBRANCH  12  17
BRANCH  13  26
ATOM     26  C   UNL     1      10.186  13.712  19.323  0.00  0.00    +0.000 A 
ATOM     27  C   UNL     1      11.567  13.725  19.571  0.00  0.00    +0.000 A 
ATOM     28  C   UNL     1      12.333  12.623  19.208  0.00  0.00    +0.000 A 
ATOM     29  N   UNL     1      11.830  11.505  18.650  0.00  0.00    +0.000 NA
ATOM     30  C   UNL     1      10.498  11.492  18.440  0.00  0.00    +0.000 A 
ATOM     31  C   UNL     1       9.649  12.537  18.778  0.00  0.00    +0.000 A 
ENDBRANCH  13  26
BRANCH   1  33
ATOM     32  C   UNL     1       1.533  13.752  18.518  0.00  0.00    +0.000 C 
ATOM     33  O   UNL     1       2.900  13.444  18.742  0.00  0.00    +0.000 OA
ENDBRANCH   1  33
BRANCH   6  34
ATOM     34  O   UNL     1       2.982  14.734  21.344  0.00  0.00    +0.000 OA
ATOM     35  C   UNL     1       2.174  15.741  21.943  0.00  0.00    +0.000 C 
ENDBRANCH   6  34
TORSDOF 5
ENDMDL
MODEL 7
REMARK VINA RESULT:      -6.4      7.686     11.091
REMARK  Name = 
REMARK  7 active torsions:
REMARK  status: ('A' for Active; 'I' for Inactive)
REMARK    1  A    between atoms: C_1  and  O_2
REMARK    2  A    between atoms: O_2  and  C_3
REMARK    3  A    between atoms: C_8  and  O_9
REMARK    4  A    between atoms: O_9  and  C_10
REMARK    5  A    between atoms: N_16  and  C_17
REMARK    6  A    between atoms: C_20  and  N_21
REMARK    7  A    between atoms: C_26  and  C_27
REMARK                            x       y       z     vdW  Elec       q    Type
REMARK                         _______ _______ _______ _____ _____    ______ ____
ROOT
ATOM      1  C   UNL     1      -6.474  13.842  19.480  0.00  0.00    +0.000 A 
ATOM      2  C   UNL     1      -6.827  14.745  20.510  0.00  0.00    +0.000 A 
ATOM      3  C   UNL     1      -6.653  14.365  21.830  0.00  0.00    +0.000 A 
ATOM      4  C   UNL     1      -6.182  13.069  22.083  0.00  0.00    +0.000 A 
ATOM      5  C   UNL     1      -5.959  12.107  21.106  0.00  0.00    +0.000 A 
ATOM      6  C   UNL     1      -6.061  12.515  19.775  0.00  0.00    +0.000 A 
ATOM      7  C   UNL     1      -5.161  13.313  23.072  0.00  0.00    +0.000 C 
ATOM      8  N   UNL     1      -4.399  12.492  23.708  0.00  0.00    +0.000 NA
ATOM      9  N   UNL     1      -3.370  13.335  24.198  0.00  0.00    +0.000 N 
ATOM     10  C   UNL     1      -2.135  13.147  23.464  0.00  0.00    +0.000 C 
ATOM     11  O   UNL     1      -1.154  13.876  23.528  0.00  0.00    +0.000 OA
ATOM     12  N   UNL     1      -2.282  12.086  22.571  0.00  0.00    +0.000 N 
ATOM     13  C   UNL     1      -3.954  14.734  24.374  0.00  0.00    +0.000 C 
ATOM     14  C   UNL     1      -4.839  14.777  23.141  0.00  0.00    +0.000 C 
ATOM     15  C   UNL     1      -6.265  15.298  22.985  0.00  0.00    +0.000 C 
ATOM     16  H   UNL     1      -3.241  11.757  22.562  0.00  0.00    +0.000 HD
ENDROOT
BRANCH  12  17
ATOM     17  C   UNL     1      -1.435  11.714  21.520  0.00  0.00    +0.000 A 
ATOM     18  C   UNL     1      -1.578  12.213  20.232  0.00  0.00    +0.000 A 
ATOM     19  C   UNL     1      -0.732  11.785  19.205  0.00  0.00    +0.000 A 
ATOM     20  C   UNL     1       0.251  10.820  19.472  0.00  0.00    +0.000 A 
ATOM     21  C   UNL     1       0.428  10.341  20.775  0.00  0.00    +0.000 A 
ATOM     22  C   UNL     1      -0.407  10.803  21.796  0.00  0.00    +0.000 A 
BRANCH  20  23
ATOM     23  N   UNL     1       1.077  10.305  18.380  0.00  0.00    +0.000 N 
ATOM     24  O   UNL     1       0.717   9.257  17.825  0.00  0.00    +0.000 OA
ATOM     25  O   UNL     1       2.100  10.939  18.086  0.00  0.00    +0.000 OA
ENDBRANCH  20  23
ENDBRANCH  12  17
BRANCH  13  26
ATOM     26  C   UNL     1      -2.958  15.866  24.548  0.00  0.00    +0.000 A 
ATOM     27  C   UNL     1      -2.187  16.044  25.706  0.00  0.00    +0.000 A 
ATOM     28  C   UNL     1      -1.383  17.173  25.820  0.00  0.00    +0.000 A 
ATOM     29  N   UNL     1      -1.264  18.114  24.864  0.00  0.00    +0.000 NA
ATOM     30  C   UNL     1      -1.989  17.920  23.744  0.00  0.00    +0.000 A 
ATOM     31  C   UNL     1      -2.811  16.821  23.532  0.00  0.00    +0.000 A 
ENDBRANCH  13  26
BRANCH   1  33
ATOM     32  C   UNL     1      -6.846  15.814  18.176  0.00  0.00    +0.000 C 
ATOM     33  O   UNL     1      -6.416  14.464  18.256  0.00  0.00    +0.000 OA
ENDBRANCH   1  33
BRANCH   6  34
ATOM     34  O   UNL     1      -5.536  11.744  18.770  0.00  0.00    +0.000 OA
ATOM     35  C   UNL     1      -6.395  10.758  18.207  0.00  0.00    +0.000 C 
ENDBRANCH   6  34
TORSDOF 5
ENDMDL
MODEL 8
REMARK VINA RESULT:      -6.4      6.417      9.782
REMARK  Name = 
REMARK  7 active torsions:
REMARK  status: ('A' for Active; 'I' for Inactive)
REMARK    1  A    between atoms: C_1  and  O_2
REMARK    2  A    between atoms: O_2  and  C_3
REMARK    3  A    between atoms: C_8  and  O_9
REMARK    4  A    between atoms: O_9  and  C_10
REMARK    5  A    between atoms: N_16  and  C_17
REMARK    6  A    between atoms: C_20  and  N_21
REMARK    7  A    between atoms: C_26  and  C_27
REMARK                            x       y       z     vdW  Elec       q    Type
REMARK                         _______ _______ _______ _____ _____    ______ ____
ROOT
ATOM      1  C   UNL     1      -4.995  14.435  23.065  0.00  0.00    +0.000 A 
ATOM      2  C   UNL     1      -4.177  15.451  23.611  0.00  0.00    +0.000 A 
ATOM      3  C   UNL     1      -2.879  15.145  23.986  0.00  0.00    +0.000 A 
ATOM      4  C   UNL     1      -2.454  13.817  23.854  0.00  0.00    +0.000 A 
ATOM      5  C   UNL     1      -3.270  12.764  23.456  0.00  0.00    +0.000 A 
ATOM      6  C   UNL     1      -4.552  13.087  23.006  0.00  0.00    +0.000 A 
ATOM      7  C   UNL     1      -1.165  13.978  23.229  0.00  0.00    +0.000 C 
ATOM      8  N   UNL     1      -0.284  13.102  22.890  0.00  0.00    +0.000 NA
ATOM      9  N   UNL     1       0.537  13.817  21.982  0.00  0.00    +0.000 N 
ATOM     10  C   UNL     1       0.306  13.398  20.614  0.00  0.00    +0.000 C 
ATOM     11  O   UNL     1       0.713  13.978  19.617  0.00  0.00    +0.000 OA
ATOM     12  N   UNL     1      -0.565  12.309  20.603  0.00  0.00    +0.000 N 
ATOM     13  C   UNL     1       0.469  15.295  22.354  0.00  0.00    +0.000 C 
ATOM     14  C   UNL     1      -1.003  15.380  22.720  0.00  0.00    +0.000 C 
ATOM     15  C   UNL     1      -1.675  16.092  23.890  0.00  0.00    +0.000 C 
ATOM     16  H   UNL     1      -0.918  12.124  21.535  0.00  0.00    +0.000 HD
ENDROOT
BRANCH  12  17
ATOM     17  C   UNL     1      -1.230  11.743  19.508  0.00  0.00    +0.000 A 
ATOM     18  C   UNL     1      -0.708  10.679  18.784  0.00  0.00    +0.000 A 
ATOM     19  C   UNL     1      -1.389  10.170  17.675  0.00  0.00    +0.000 A 
ATOM     20  C   UNL     1      -2.597  10.759  17.273  0.00  0.00    +0.000 A 
ATOM     21  C   UNL     1      -3.151  11.804  18.019  0.00  0.00    +0.000 A 
ATOM     22  C   UNL     1      -2.471  12.281  19.144  0.00  0.00    +0.000 A 
BRANCH  20  23
ATOM     23  N   UNL     1      -3.266  10.286  16.060  0.00  0.00    +0.000 N 
ATOM     24  O   UNL     1      -4.392  10.739  15.805  0.00  0.00    +0.000 OA
ATOM     25  O   UNL     1      -2.675   9.447  15.368  0.00  0.00    +0.000 OA
ENDBRANCH  20  23
ENDBRANCH  12  17
BRANCH  13  26
ATOM     26  C   UNL     1       0.979  16.279  21.317  0.00  0.00    +0.000 A 
ATOM     27  C   UNL     1       0.135  17.063  20.517  0.00  0.00    +0.000 A 
ATOM     28  C   UNL     1       0.689  17.855  19.517  0.00  0.00    +0.000 A 
ATOM     29  N   UNL     1       2.010  17.949  19.274  0.00  0.00    +0.000 NA
ATOM     30  C   UNL     1       2.815  17.211  20.065  0.00  0.00    +0.000 A 
ATOM     31  C   UNL     1       2.358  16.400  21.095  0.00  0.00    +0.000 A 
ENDBRANCH  13  26
BRANCH   1  33
ATOM     32  C   UNL     1      -7.088  15.569  23.309  0.00  0.00    +0.000 C 
ATOM     33  O   UNL     1      -6.121  14.953  22.472  0.00  0.00    +0.000 OA
ENDBRANCH   1  33
BRANCH   6  34
ATOM     34  O   UNL     1      -5.286  12.176  22.290  0.00  0.00    +0.000 OA
ATOM     35  C   UNL     1      -5.461  12.447  20.903  0.00  0.00    +0.000 C 
ENDBRANCH   6  34
TORSDOF 5
ENDMDL
MODEL 9
REMARK VINA RESULT:      -6.4      7.379     11.673
REMARK  Name = 
REMARK  7 active torsions:
REMARK  status: ('A' for Active; 'I' for Inactive)
REMARK    1  A    between atoms: C_1  and  O_2
REMARK    2  A    between atoms: O_2  and  C_3
REMARK    3  A    between atoms: C_8  and  O_9
REMARK    4  A    between atoms: O_9  and  C_10
REMARK    5  A    between atoms: N_16  and  C_17
REMARK    6  A    between atoms: C_20  and  N_21
REMARK    7  A    between atoms: C_26  and  C_27
REMARK                            x       y       z     vdW  Elec       q    Type
REMARK                         _______ _______ _______ _____ _____    ______ ____
ROOT
ATOM      1  C   UNL     1      -6.614  13.137  18.009  0.00  0.00    +0.000 A 
ATOM      2  C   UNL     1      -7.342  13.970  18.891  0.00  0.00    +0.000 A 
ATOM      3  C   UNL     1      -7.358  13.671  20.243  0.00  0.00    +0.000 A 
ATOM      4  C   UNL     1      -6.691  12.515  20.667  0.00  0.00    +0.000 A 
ATOM      5  C   UNL     1      -6.085  11.597  19.817  0.00  0.00    +0.000 A 
ATOM      6  C   UNL     1      -6.003  11.939  18.466  0.00  0.00    +0.000 A 
ATOM      7  C   UNL     1      -5.958  12.998  21.812  0.00  0.00    +0.000 C 
ATOM      8  N   UNL     1      -5.185  12.377  22.633  0.00  0.00    +0.000 NA
ATOM      9  N   UNL     1      -4.469  13.434  23.250  0.00  0.00    +0.000 N 
ATOM     10  C   UNL     1      -3.101  13.497  22.775  0.00  0.00    +0.000 C 
ATOM     11  O   UNL     1      -2.324  14.420  22.972  0.00  0.00    +0.000 OA
ATOM     12  N   UNL     1      -2.847  12.405  21.945  0.00  0.00    +0.000 N 
ATOM     13  C   UNL     1      -5.350  14.679  23.218  0.00  0.00    +0.000 C 
ATOM     14  C   UNL     1      -5.964  14.499  21.840  0.00  0.00    +0.000 C 
ATOM     15  C   UNL     1      -7.407  14.696  21.384  0.00  0.00    +0.000 C 
ATOM     16  H   UNL     1      -3.697  11.878  21.778  0.00  0.00    +0.000 HD
ENDROOT
BRANCH  12  17
ATOM     17  C   UNL     1      -1.751  12.197  21.099  0.00  0.00    +0.000 A 
ATOM     18  C   UNL     1      -0.862  11.144  21.272  0.00  0.00    +0.000 A 
ATOM     19  C   UNL     1       0.241  10.997  20.426  0.00  0.00    +0.000 A 
ATOM     20  C   UNL     1       0.466  11.938  19.411  0.00  0.00    +0.000 A 
ATOM     21  C   UNL     1      -0.445  12.979  19.203  0.00  0.00    +0.000 A 
ATOM     22  C   UNL     1      -1.559  13.094  20.040  0.00  0.00    +0.000 A 
BRANCH  20  23
ATOM     23  N   UNL     1       1.668  11.836  18.581  0.00  0.00    +0.000 N 
ATOM     24  O   UNL     1       2.307  12.875  18.356  0.00  0.00    +0.000 OA
ATOM     25  O   UNL     1       1.966  10.719  18.137  0.00  0.00    +0.000 OA
ENDBRANCH  20  23
ENDBRANCH  12  17
BRANCH  13  26
ATOM     26  C   UNL     1      -4.663  16.002  23.498  0.00  0.00    +0.000 A 
ATOM     27  C   UNL     1      -4.334  16.928  22.497  0.00  0.00    +0.000 A 
ATOM     28  C   UNL     1      -3.607  18.064  22.835  0.00  0.00    +0.000 A 
ATOM     29  N   UNL     1      -3.212  18.363  24.087  0.00  0.00    +0.000 NA
ATOM     30  C   UNL     1      -3.556  17.480  25.047  0.00  0.00    +0.000 A 
ATOM     31  C   UNL     1      -4.290  16.325  24.811  0.00  0.00    +0.000 A 
ENDBRANCH  13  26
BRANCH   1  33
ATOM     32  C   UNL     1      -7.396  14.694  16.368  0.00  0.00    +0.000 C 
ATOM     33  O   UNL     1      -6.444  13.725  16.779  0.00  0.00    +0.000 OA
ENDBRANCH   1  33
BRANCH   6  34
ATOM     34  O   UNL     1      -5.143  11.272  17.632  0.00  0.00    +0.000 OA
ATOM     35  C   UNL     1      -3.751  11.454  17.872  0.00  0.00    +0.000 C 
ENDBRANCH   6  34
TORSDOF 5
ENDMDL
