MODEL 1
REMARK VINA RESULT:      -7.2      0.000      0.000
REMARK  Name = 
REMARK  11 active torsions:
REMARK  status: ('A' for Active; 'I' for Inactive)
REMARK    1  A    between atoms: C_1  and  O_2
REMARK    2  A    between atoms: O_2  and  C_3
REMARK    3  A    between atoms: C_6  and  C_7
REMARK    4  A    between atoms: C_7  and  C_8
REMARK    5  A    between atoms: C_8  and  N_9
REMARK    6  A    between atoms: C_13  and  O_14
REMARK    7  A    between atoms: O_14  and  C_15
REMARK    8  A    between atoms: C_16  and  O_17
REMARK    9  A    between atoms: O_17  and  C_18
REMARK   10  A    between atoms: C_19  and  O_20
REMARK   11  A    between atoms: O_20  and  C_21
REMARK                            x       y       z     vdW  Elec       q    Type
REMARK                         _______ _______ _______ _____ _____    ______ ____
ROOT
ATOM      1  N   UNL     1       2.190   8.632  18.348  0.00  0.00    +0.000 N 
ATOM      2  C   UNL     1       1.581   7.921  19.301  0.00  0.00    +0.000 A 
ATOM      3  C   UNL     1       2.283   6.925  19.928  0.00  0.00    +0.000 A 
ATOM      4  C   UNL     1       3.102   6.116  19.167  0.00  0.00    +0.000 A 
ATOM      5  C   UNL     1       3.397   4.774  19.518  0.00  0.00    +0.000 A 
ATOM      6  C   UNL     1       4.101   3.960  18.606  0.00  0.00    +0.000 A 
ATOM      7  C   UNL     1       4.551   4.473  17.377  0.00  0.00    +0.000 A 
ATOM      8  C   UNL     1       4.337   5.833  17.083  0.00  0.00    +0.000 A 
ATOM      9  C   UNL     1       3.568   6.671  17.948  0.00  0.00    +0.000 A 
ATOM     10  C   UNL     1       3.213   8.035  17.662  0.00  0.00    +0.000 A 
ENDROOT
BRANCH   5  11
ATOM     11  O   UNL     1       2.988   4.066  20.621  0.00  0.00    +0.000 OA
ATOM     12  C   UNL     1       1.643   3.788  20.947  0.00  0.00    +0.000 C 
ENDBRANCH   5  11
BRANCH   6  13
ATOM     13  O   UNL     1       4.163   2.625  18.955  0.00  0.00    +0.000 OA
ATOM     14  C   UNL     1       3.282   1.727  18.293  0.00  0.00    +0.000 C 
ENDBRANCH   6  13
BRANCH   7  15
ATOM     15  O   UNL     1       5.151   3.563  16.559  0.00  0.00    +0.000 OA
ATOM     16  C   UNL     1       5.916   3.936  15.430  0.00  0.00    +0.000 C 
ENDBRANCH   7  15
BRANCH   1  17
ATOM     17  C   UNL     1       1.691  10.020  18.068  0.00  0.00    +0.000 C 
BRANCH  17  18
ATOM     18  C   UNL     1       0.597  10.541  19.044  0.00  0.00    +0.000 C 
BRANCH  18  22
ATOM     19  C   UNL     1      -3.511  10.884  17.697  0.00  0.00    +0.000 A 
ATOM     20  C   UNL     1      -2.644   9.964  17.101  0.00  0.00    +0.000 A 
ATOM     21  C   UNL     1      -1.313   9.889  17.511  0.00  0.00    +0.000 A 
ATOM     22  C   UNL     1      -0.813  10.726  18.520  0.00  0.00    +0.000 A 
ATOM     23  C   UNL     1      -1.702  11.634  19.113  0.00  0.00    +0.000 A 
ATOM     24  C   UNL     1      -3.036  11.720  18.712  0.00  0.00    +0.000 A 
BRANCH  19  26
ATOM     25  C   UNL     1      -5.467  12.135  17.154  0.00  0.00    +0.000 C 
ATOM     26  O   UNL     1      -4.799  10.886  17.238  0.00  0.00    +0.000 OA
ENDBRANCH  19  26
ENDBRANCH  18  22
ENDBRANCH  17  18
ENDBRANCH   1  17
TORSDOF 7
ENDMDL
MODEL 2
REMARK VINA RESULT:      -6.9      1.030      2.931
REMARK  Name = 
REMARK  11 active torsions:
REMARK  status: ('A' for Active; 'I' for Inactive)
REMARK    1  A    between atoms: C_1  and  O_2
REMARK    2  A    between atoms: O_2  and  C_3
REMARK    3  A    between atoms: C_6  and  C_7
REMARK    4  A    between atoms: C_7  and  C_8
REMARK    5  A    between atoms: C_8  and  N_9
REMARK    6  A    between atoms: C_13  and  O_14
REMARK    7  A    between atoms: O_14  and  C_15
REMARK    8  A    between atoms: C_16  and  O_17
REMARK    9  A    between atoms: O_17  and  C_18
REMARK   10  A    between atoms: C_19  and  O_20
REMARK   11  A    between atoms: O_20  and  C_21
REMARK                            x       y       z     vdW  Elec       q    Type
REMARK                         _______ _______ _______ _____ _____    ______ ____
ROOT
ATOM      1  N   UNL     1       1.525   8.821  19.566  0.00  0.00    +0.000 N 
ATOM      2  C   UNL     1       2.375   8.737  18.540  0.00  0.00    +0.000 A 
ATOM      3  C   UNL     1       2.480   7.545  17.870  0.00  0.00    +0.000 A 
ATOM      4  C   UNL     1       2.484   6.376  18.602  0.00  0.00    +0.000 A 
ATOM      5  C   UNL     1       3.144   5.199  18.165  0.00  0.00    +0.000 A 
ATOM      6  C   UNL     1       3.250   4.099  19.043  0.00  0.00    +0.000 A 
ATOM      7  C   UNL     1       2.672   4.139  20.324  0.00  0.00    +0.000 A 
ATOM      8  C   UNL     1       1.936   5.276  20.709  0.00  0.00    +0.000 A 
ATOM      9  C   UNL     1       1.867   6.436  19.877  0.00  0.00    +0.000 A 
ATOM     10  C   UNL     1       1.231   7.671  20.248  0.00  0.00    +0.000 A 
ENDROOT
BRANCH   5  11
ATOM     11  O   UNL     1       3.834   4.984  16.997  0.00  0.00    +0.000 OA
ATOM     12  C   UNL     1       5.048   5.615  16.650  0.00  0.00    +0.000 C 
ENDBRANCH   5  11
BRANCH   6  13
ATOM     13  O   UNL     1       4.075   3.085  18.599  0.00  0.00    +0.000 OA
ATOM     14  C   UNL     1       3.462   1.880  18.159  0.00  0.00    +0.000 C 
ENDBRANCH   6  13
BRANCH   7  15
ATOM     15  O   UNL     1       2.911   3.042  21.097  0.00  0.00    +0.000 OA
ATOM     16  C   UNL     1       1.881   2.331  21.755  0.00  0.00    +0.000 C 
ENDBRANCH   7  15
BRANCH   1  17
ATOM     17  C   UNL     1       0.979  10.172  19.928  0.00  0.00    +0.000 C 
BRANCH  17  18
ATOM     18  C   UNL     1       0.359  10.974  18.747  0.00  0.00    +0.000 C 
BRANCH  18  22
ATOM     19  C   UNL     1      -3.895  10.891  17.906  0.00  0.00    +0.000 A 
ATOM     20  C   UNL     1      -3.363  11.846  18.776  0.00  0.00    +0.000 A 
ATOM     21  C   UNL     1      -2.001  11.840  19.075  0.00  0.00    +0.000 A 
ATOM     22  C   UNL     1      -1.137  10.885  18.517  0.00  0.00    +0.000 A 
ATOM     23  C   UNL     1      -1.688   9.942  17.638  0.00  0.00    +0.000 A 
ATOM     24  C   UNL     1      -3.049   9.936  17.331  0.00  0.00    +0.000 A 
BRANCH  19  26
ATOM     25  C   UNL     1      -5.748  12.206  17.184  0.00  0.00    +0.000 C 
ATOM     26  O   UNL     1      -5.238  10.973  17.665  0.00  0.00    +0.000 OA
ENDBRANCH  19  26
ENDBRANCH  18  22
ENDBRANCH  17  18
ENDBRANCH   1  17
TORSDOF 7
ENDMDL
MODEL 3
REMARK VINA RESULT:      -6.9      0.872      1.363
REMARK  Name = 
REMARK  11 active torsions:
REMARK  status: ('A' for Active; 'I' for Inactive)
REMARK    1  A    between atoms: C_1  and  O_2
REMARK    2  A    between atoms: O_2  and  C_3
REMARK    3  A    between atoms: C_6  and  C_7
REMARK    4  A    between atoms: C_7  and  C_8
REMARK    5  A    between atoms: C_8  and  N_9
REMARK    6  A    between atoms: C_13  and  O_14
REMARK    7  A    between atoms: O_14  and  C_15
REMARK    8  A    between atoms: C_16  and  O_17
REMARK    9  A    between atoms: O_17  and  C_18
REMARK   10  A    between atoms: C_19  and  O_20
REMARK   11  A    between atoms: O_20  and  C_21
REMARK                            x       y       z     vdW  Elec       q    Type
REMARK                         _______ _______ _______ _____ _____    ______ ____
ROOT
ATOM      1  N   UNL     1       1.357   8.401  19.832  0.00  0.00    +0.000 N 
ATOM      2  C   UNL     1       0.998   7.447  20.694  0.00  0.00    +0.000 A 
ATOM      3  C   UNL     1       1.878   6.428  20.951  0.00  0.00    +0.000 A 
ATOM      4  C   UNL     1       2.589   5.889  19.898  0.00  0.00    +0.000 A 
ATOM      5  C   UNL     1       3.041   4.545  19.885  0.00  0.00    +0.000 A 
ATOM      6  C   UNL     1       3.609   4.019  18.705  0.00  0.00    +0.000 A 
ATOM      7  C   UNL     1       3.773   4.820  17.562  0.00  0.00    +0.000 A 
ATOM      8  C   UNL     1       3.409   6.179  17.619  0.00  0.00    +0.000 A 
ATOM      9  C   UNL     1       2.766   6.730  18.770  0.00  0.00    +0.000 A 
ATOM     10  C   UNL     1       2.266   8.076  18.861  0.00  0.00    +0.000 A 
ENDROOT
BRANCH   5  11
ATOM     11  O   UNL     1       2.906   3.585  20.857  0.00  0.00    +0.000 OA
ATOM     12  C   UNL     1       1.674   3.120  21.366  0.00  0.00    +0.000 C 
ENDBRANCH   5  11
BRANCH   6  13
ATOM     13  O   UNL     1       3.833   2.656  18.733  0.00  0.00    +0.000 OA
ATOM     14  C   UNL     1       2.902   1.820  18.059  0.00  0.00    +0.000 C 
ENDBRANCH   6  13
BRANCH   7  15
ATOM     15  O   UNL     1       4.264   4.169  16.470  0.00  0.00    +0.000 OA
ATOM     16  C   UNL     1       5.586   4.351  16.002  0.00  0.00    +0.000 C 
ENDBRANCH   7  15
BRANCH   1  17
ATOM     17  C   UNL     1       0.716   9.753  19.959  0.00  0.00    +0.000 C 
BRANCH  17  18
ATOM     18  C   UNL     1       0.331  10.433  18.613  0.00  0.00    +0.000 C 
BRANCH  18  22
ATOM     19  C   UNL     1      -3.811  10.940  17.433  0.00  0.00    +0.000 A 
ATOM     20  C   UNL     1      -3.305  11.611  18.548  0.00  0.00    +0.000 A 
ATOM     21  C   UNL     1      -1.983  11.411  18.947  0.00  0.00    +0.000 A 
ATOM     22  C   UNL     1      -1.136  10.538  18.247  0.00  0.00    +0.000 A 
ATOM     23  C   UNL     1      -1.659   9.882  17.124  0.00  0.00    +0.000 A 
ATOM     24  C   UNL     1      -2.980  10.073  16.715  0.00  0.00    +0.000 A 
BRANCH  19  26
ATOM     25  C   UNL     1      -6.040  11.346  18.174  0.00  0.00    +0.000 C 
ATOM     26  O   UNL     1      -5.114  11.199  17.110  0.00  0.00    +0.000 OA
ENDBRANCH  19  26
ENDBRANCH  18  22
ENDBRANCH  17  18
ENDBRANCH   1  17
TORSDOF 7
ENDMDL
MODEL 4
REMARK VINA RESULT:      -6.8      2.866      8.765
REMARK  Name = 
REMARK  11 active torsions:
REMARK  status: ('A' for Active; 'I' for Inactive)
REMARK    1  A    between atoms: C_1  and  O_2
REMARK    2  A    between atoms: O_2  and  C_3
REMARK    3  A    between atoms: C_6  and  C_7
REMARK    4  A    between atoms: C_7  and  C_8
REMARK    5  A    between atoms: C_8  and  N_9
REMARK    6  A    between atoms: C_13  and  O_14
REMARK    7  A    between atoms: O_14  and  C_15
REMARK    8  A    between atoms: C_16  and  O_17
REMARK    9  A    between atoms: O_17  and  C_18
REMARK   10  A    between atoms: C_19  and  O_20
REMARK   11  A    between atoms: O_20  and  C_21
REMARK                            x       y       z     vdW  Elec       q    Type
REMARK                         _______ _______ _______ _____ _____    ______ ____
ROOT
ATOM      1  N   UNL     1       2.444   5.531  19.209  0.00  0.00    +0.000 N 
ATOM      2  C   UNL     1       2.395   6.227  18.070  0.00  0.00    +0.000 A 
ATOM      3  C   UNL     1       2.513   7.591  18.128  0.00  0.00    +0.000 A 
ATOM      4  C   UNL     1       1.861   8.267  19.140  0.00  0.00    +0.000 A 
ATOM      5  C   UNL     1       1.411   9.605  19.003  0.00  0.00    +0.000 A 
ATOM      6  C   UNL     1       0.604  10.168  20.014  0.00  0.00    +0.000 A 
ATOM      7  C   UNL     1       0.280   9.439  21.171  0.00  0.00    +0.000 A 
ATOM      8  C   UNL     1       0.814   8.147  21.339  0.00  0.00    +0.000 A 
ATOM      9  C   UNL     1       1.575   7.516  20.308  0.00  0.00    +0.000 A 
ATOM     10  C   UNL     1       2.057   6.162  20.360  0.00  0.00    +0.000 A 
ENDROOT
BRANCH   5  11
ATOM     11  O   UNL     1       1.550  10.452  17.931  0.00  0.00    +0.000 OA
ATOM     12  C   UNL     1       2.521  11.471  17.830  0.00  0.00    +0.000 C 
ENDBRANCH   5  11
BRANCH   6  13
ATOM     13  O   UNL     1       0.058  11.397  19.696  0.00  0.00    +0.000 OA
ATOM     14  C   UNL     1      -1.273  11.418  19.197  0.00  0.00    +0.000 C 
ENDBRANCH   6  13
BRANCH   7  15
ATOM     15  O   UNL     1      -0.566  10.072  22.032  0.00  0.00    +0.000 OA
ATOM     16  C   UNL     1      -0.480   9.927  23.435  0.00  0.00    +0.000 C 
ENDBRANCH   7  15
BRANCH   1  17
ATOM     17  C   UNL     1       2.883   4.096  19.147  0.00  0.00    +0.000 C 
BRANCH  17  18
ATOM     18  C   UNL     1       4.423   3.873  19.161  0.00  0.00    +0.000 C 
BRANCH  18  22
ATOM     19  C   UNL     1       6.858   4.943  15.735  0.00  0.00    +0.000 A 
ATOM     20  C   UNL     1       7.322   5.172  17.033  0.00  0.00    +0.000 A 
ATOM     21  C   UNL     1       6.516   4.865  18.130  0.00  0.00    +0.000 A 
ATOM     22  C   UNL     1       5.232   4.324  17.961  0.00  0.00    +0.000 A 
ATOM     23  C   UNL     1       4.789   4.091  16.651  0.00  0.00    +0.000 A 
ATOM     24  C   UNL     1       5.585   4.396  15.545  0.00  0.00    +0.000 A 
BRANCH  19  26
ATOM     25  C   UNL     1       7.391   4.820  13.415  0.00  0.00    +0.000 C 
ATOM     26  O   UNL     1       7.715   5.269  14.721  0.00  0.00    +0.000 OA
ENDBRANCH  19  26
ENDBRANCH  18  22
ENDBRANCH  17  18
ENDBRANCH   1  17
TORSDOF 7
ENDMDL
MODEL 5
REMARK VINA RESULT:      -6.8      0.864      2.743
REMARK  Name = 
REMARK  11 active torsions:
REMARK  status: ('A' for Active; 'I' for Inactive)
REMARK    1  A    between atoms: C_1  and  O_2
REMARK    2  A    between atoms: O_2  and  C_3
REMARK    3  A    between atoms: C_6  and  C_7
REMARK    4  A    between atoms: C_7  and  C_8
REMARK    5  A    between atoms: C_8  and  N_9
REMARK    6  A    between atoms: C_13  and  O_14
REMARK    7  A    between atoms: O_14  and  C_15
REMARK    8  A    between atoms: C_16  and  O_17
REMARK    9  A    between atoms: O_17  and  C_18
REMARK   10  A    between atoms: C_19  and  O_20
REMARK   11  A    between atoms: O_20  and  C_21
REMARK                            x       y       z     vdW  Elec       q    Type
REMARK                         _______ _______ _______ _____ _____    ______ ____
ROOT
ATOM      1  N   UNL     1       1.885   8.945  18.754  0.00  0.00    +0.000 N 
ATOM      2  C   UNL     1       2.768   8.639  17.800  0.00  0.00    +0.000 A 
ATOM      3  C   UNL     1       2.811   7.351  17.334  0.00  0.00    +0.000 A 
ATOM      4  C   UNL     1       2.698   6.317  18.241  0.00  0.00    +0.000 A 
ATOM      5  C   UNL     1       3.285   5.043  18.031  0.00  0.00    +0.000 A 
ATOM      6  C   UNL     1       3.272   4.096  19.076  0.00  0.00    +0.000 A 
ATOM      7  C   UNL     1       2.646   4.381  20.303  0.00  0.00    +0.000 A 
ATOM      8  C   UNL     1       1.983   5.612  20.464  0.00  0.00    +0.000 A 
ATOM      9  C   UNL     1       2.035   6.624  19.457  0.00  0.00    +0.000 A 
ATOM     10  C   UNL     1       1.478   7.943  19.593  0.00  0.00    +0.000 A 
ENDROOT
BRANCH   5  11
ATOM     11  O   UNL     1       4.004   4.597  16.949  0.00  0.00    +0.000 OA
ATOM     12  C   UNL     1       5.226   5.150  16.510  0.00  0.00    +0.000 C 
ENDBRANCH   5  11
BRANCH   6  13
ATOM     13  O   UNL     1       4.037   2.970  18.842  0.00  0.00    +0.000 OA
ATOM     14  C   UNL     1       3.361   1.785  18.442  0.00  0.00    +0.000 C 
ENDBRANCH   6  13
BRANCH   7  15
ATOM     15  O   UNL     1       2.771   3.410  21.251  0.00  0.00    +0.000 OA
ATOM     16  C   UNL     1       1.672   2.658  21.724  0.00  0.00    +0.000 C 
ENDBRANCH   7  15
BRANCH   1  17
ATOM     17  C   UNL     1       1.427  10.371  18.868  0.00  0.00    +0.000 C 
BRANCH  17  18
ATOM     18  C   UNL     1       0.110  10.581  19.670  0.00  0.00    +0.000 C 
BRANCH  18  22
ATOM     19  C   UNL     1      -3.670  11.070  17.599  0.00  0.00    +0.000 A 
ATOM     20  C   UNL     1      -2.709  10.176  17.120  0.00  0.00    +0.000 A 
ATOM     21  C   UNL     1      -1.479  10.054  17.767  0.00  0.00    +0.000 A 
ATOM     22  C   UNL     1      -1.176  10.820  18.903  0.00  0.00    +0.000 A 
ATOM     23  C   UNL     1      -2.157  11.703  19.375  0.00  0.00    +0.000 A 
ATOM     24  C   UNL     1      -3.391  11.835  18.737  0.00  0.00    +0.000 A 
BRANCH  19  26
ATOM     25  C   UNL     1      -5.666  12.266  17.082  0.00  0.00    +0.000 C 
ATOM     26  O   UNL     1      -4.848  11.120  16.908  0.00  0.00    +0.000 OA
ENDBRANCH  19  26
ENDBRANCH  18  22
ENDBRANCH  17  18
ENDBRANCH   1  17
TORSDOF 7
ENDMDL
MODEL 6
REMARK VINA RESULT:      -6.8      3.545      6.004
REMARK  Name = 
REMARK  11 active torsions:
REMARK  status: ('A' for Active; 'I' for Inactive)
REMARK    1  A    between atoms: C_1  and  O_2
REMARK    2  A    between atoms: O_2  and  C_3
REMARK    3  A    between atoms: C_6  and  C_7
REMARK    4  A    between atoms: C_7  and  C_8
REMARK    5  A    between atoms: C_8  and  N_9
REMARK    6  A    between atoms: C_13  and  O_14
REMARK    7  A    between atoms: O_14  and  C_15
REMARK    8  A    between atoms: C_16  and  O_17
REMARK    9  A    between atoms: O_17  and  C_18
REMARK   10  A    between atoms: C_19  and  O_20
REMARK   11  A    between atoms: O_20  and  C_21
REMARK                            x       y       z     vdW  Elec       q    Type
REMARK                         _______ _______ _______ _____ _____    ______ ____
ROOT
ATOM      1  N   UNL     1       4.245   3.365  18.615  0.00  0.00    +0.000 N 
ATOM      2  C   UNL     1       5.255   4.116  19.061  0.00  0.00    +0.000 A 
ATOM      3  C   UNL     1       5.737   5.115  18.256  0.00  0.00    +0.000 A 
ATOM      4  C   UNL     1       5.875   4.865  16.906  0.00  0.00    +0.000 A 
ATOM      5  C   UNL     1       6.846   5.515  16.101  0.00  0.00    +0.000 A 
ATOM      6  C   UNL     1       7.041   5.083  14.772  0.00  0.00    +0.000 A 
ATOM      7  C   UNL     1       6.257   4.052  14.224  0.00  0.00    +0.000 A 
ATOM      8  C   UNL     1       5.233   3.482  15.002  0.00  0.00    +0.000 A 
ATOM      9  C   UNL     1       5.051   3.842  16.373  0.00  0.00    +0.000 A 
ATOM     10  C   UNL     1       4.102   3.226  17.261  0.00  0.00    +0.000 A 
ENDROOT
BRANCH   5  11
ATOM     11  O   UNL     1       7.756   6.478  16.462  0.00  0.00    +0.000 OA
ATOM     12  C   UNL     1       7.437   7.674  17.139  0.00  0.00    +0.000 C 
ENDBRANCH   5  11
BRANCH   6  13
ATOM     13  O   UNL     1       8.136   5.641  14.140  0.00  0.00    +0.000 OA
ATOM     14  C   UNL     1       8.116   5.705  12.720  0.00  0.00    +0.000 C 
ENDBRANCH   6  13
BRANCH   7  15
ATOM     15  O   UNL     1       6.599   3.683  12.957  0.00  0.00    +0.000 OA
ATOM     16  C   UNL     1       5.722   2.973  12.105  0.00  0.00    +0.000 C 
ENDBRANCH   7  15
BRANCH   1  17
ATOM     17  C   UNL     1       3.357   2.695  19.625  0.00  0.00    +0.000 C 
BRANCH  17  18
ATOM     18  C   UNL     1       1.997   3.405  19.886  0.00  0.00    +0.000 C 
BRANCH  18  22
ATOM     19  C   UNL     1       1.955   7.688  19.207  0.00  0.00    +0.000 A 
ATOM     20  C   UNL     1       1.785   7.173  20.494  0.00  0.00    +0.000 A 
ATOM     21  C   UNL     1       1.758   5.793  20.699  0.00  0.00    +0.000 A 
ATOM     22  C   UNL     1       1.897   4.896  19.630  0.00  0.00    +0.000 A 
ATOM     23  C   UNL     1       2.078   5.432  18.347  0.00  0.00    +0.000 A 
ATOM     24  C   UNL     1       2.106   6.810  18.128  0.00  0.00    +0.000 A 
BRANCH  19  26
ATOM     25  C   UNL     1       0.865   9.770  19.609  0.00  0.00    +0.000 C 
ATOM     26  O   UNL     1       1.976   9.051  19.098  0.00  0.00    +0.000 OA
ENDBRANCH  19  26
ENDBRANCH  18  22
ENDBRANCH  17  18
ENDBRANCH   1  17
TORSDOF 7
ENDMDL
MODEL 7
REMARK VINA RESULT:      -6.8      3.398      5.718
REMARK  Name = 
REMARK  11 active torsions:
REMARK  status: ('A' for Active; 'I' for Inactive)
REMARK    1  A    between atoms: C_1  and  O_2
REMARK    2  A    between atoms: O_2  and  C_3
REMARK    3  A    between atoms: C_6  and  C_7
REMARK    4  A    between atoms: C_7  and  C_8
REMARK    5  A    between atoms: C_8  and  N_9
REMARK    6  A    between atoms: C_13  and  O_14
REMARK    7  A    between atoms: O_14  and  C_15
REMARK    8  A    between atoms: C_16  and  O_17
REMARK    9  A    between atoms: O_17  and  C_18
REMARK   10  A    between atoms: C_19  and  O_20
REMARK   11  A    between atoms: O_20  and  C_21
REMARK                            x       y       z     vdW  Elec       q    Type
REMARK                         _______ _______ _______ _____ _____    ______ ____
ROOT
ATOM      1  N   UNL     1       4.048   3.654  18.611  0.00  0.00    +0.000 N 
ATOM      2  C   UNL     1       5.097   4.352  19.055  0.00  0.00    +0.000 A 
ATOM      3  C   UNL     1       5.663   5.287  18.227  0.00  0.00    +0.000 A 
ATOM      4  C   UNL     1       5.814   4.978  16.891  0.00  0.00    +0.000 A 
ATOM      5  C   UNL     1       6.845   5.531  16.087  0.00  0.00    +0.000 A 
ATOM      6  C   UNL     1       7.040   5.038  14.780  0.00  0.00    +0.000 A 
ATOM      7  C   UNL     1       6.201   4.042  14.249  0.00  0.00    +0.000 A 
ATOM      8  C   UNL     1       5.123   3.571  15.022  0.00  0.00    +0.000 A 
ATOM      9  C   UNL     1       4.935   3.993  16.374  0.00  0.00    +0.000 A 
ATOM     10  C   UNL     1       3.927   3.475  17.259  0.00  0.00    +0.000 A 
ENDROOT
BRANCH   5  11
ATOM     11  O   UNL     1       7.809   6.444  16.436  0.00  0.00    +0.000 OA
ATOM     12  C   UNL     1       7.590   7.575  17.251  0.00  0.00    +0.000 C 
ENDBRANCH   5  11
BRANCH   6  13
ATOM     13  O   UNL     1       8.184   5.498  14.156  0.00  0.00    +0.000 OA
ATOM     14  C   UNL     1       8.110   5.774  12.764  0.00  0.00    +0.000 C 
ENDBRANCH   6  13
BRANCH   7  15
ATOM     15  O   UNL     1       6.545   3.604  13.005  0.00  0.00    +0.000 OA
ATOM     16  C   UNL     1       5.592   3.164  12.058  0.00  0.00    +0.000 C 
ENDBRANCH   7  15
BRANCH   1  17
ATOM     17  C   UNL     1       3.095   3.083  19.621  0.00  0.00    +0.000 C 
BRANCH  17  18
ATOM     18  C   UNL     1       1.851   3.965  19.931  0.00  0.00    +0.000 C 
BRANCH  18  22
ATOM     19  C   UNL     1       1.856   8.232  19.155  0.00  0.00    +0.000 A 
ATOM     20  C   UNL     1       2.009   7.321  18.107  0.00  0.00    +0.000 A 
ATOM     21  C   UNL     1       2.049   5.951  18.369  0.00  0.00    +0.000 A 
ATOM     22  C   UNL     1       1.939   5.457  19.678  0.00  0.00    +0.000 A 
ATOM     23  C   UNL     1       1.775   6.386  20.715  0.00  0.00    +0.000 A 
ATOM     24  C   UNL     1       1.735   7.759  20.466  0.00  0.00    +0.000 A 
BRANCH  19  26
ATOM     25  C   UNL     1       0.700  10.316  19.222  0.00  0.00    +0.000 C 
ATOM     26  O   UNL     1       1.822   9.554  18.808  0.00  0.00    +0.000 OA
ENDBRANCH  19  26
ENDBRANCH  18  22
ENDBRANCH  17  18
ENDBRANCH   1  17
TORSDOF 7
ENDMDL
MODEL 8
REMARK VINA RESULT:      -6.7      3.384      8.808
REMARK  Name = 
REMARK  11 active torsions:
REMARK  status: ('A' for Active; 'I' for Inactive)
REMARK    1  A    between atoms: C_1  and  O_2
REMARK    2  A    between atoms: O_2  and  C_3
REMARK    3  A    between atoms: C_6  and  C_7
REMARK    4  A    between atoms: C_7  and  C_8
REMARK    5  A    between atoms: C_8  and  N_9
REMARK    6  A    between atoms: C_13  and  O_14
REMARK    7  A    between atoms: O_14  and  C_15
REMARK    8  A    between atoms: C_16  and  O_17
REMARK    9  A    between atoms: O_17  and  C_18
REMARK   10  A    between atoms: C_19  and  O_20
REMARK   11  A    between atoms: O_20  and  C_21
REMARK                            x       y       z     vdW  Elec       q    Type
REMARK                         _______ _______ _______ _____ _____    ______ ____
ROOT
ATOM      1  N   UNL     1       2.142   7.210  18.994  0.00  0.00    +0.000 N 
ATOM      2  C   UNL     1       2.142   7.206  20.329  0.00  0.00    +0.000 A 
ATOM      3  C   UNL     1       1.272   8.036  20.988  0.00  0.00    +0.000 A 
ATOM      4  C   UNL     1       1.088   9.316  20.505  0.00  0.00    +0.000 A 
ATOM      5  C   UNL     1       0.732  10.407  21.339  0.00  0.00    +0.000 A 
ATOM      6  C   UNL     1       0.730  11.712  20.804  0.00  0.00    +0.000 A 
ATOM      7  C   UNL     1       1.031  11.939  19.449  0.00  0.00    +0.000 A 
ATOM      8  C   UNL     1       1.287  10.839  18.611  0.00  0.00    +0.000 A 
ATOM      9  C   UNL     1       1.369   9.510  19.129  0.00  0.00    +0.000 A 
ATOM     10  C   UNL     1       1.735   8.352  18.358  0.00  0.00    +0.000 A 
ENDROOT
BRANCH   5  11
ATOM     11  O   UNL     1       0.481  10.410  22.689  0.00  0.00    +0.000 OA
ATOM     12  C   UNL     1      -0.667   9.859  23.297  0.00  0.00    +0.000 C 
ENDBRANCH   5  11
BRANCH   6  13
ATOM     13  O   UNL     1       0.563  12.717  21.738  0.00  0.00    +0.000 OA
ATOM     14  C   UNL     1      -0.745  13.244  21.914  0.00  0.00    +0.000 C 
ENDBRANCH   6  13
BRANCH   7  15
ATOM     15  O   UNL     1       1.066  13.251  19.081  0.00  0.00    +0.000 OA
ATOM     16  C   UNL     1      -0.030  13.903  18.470  0.00  0.00    +0.000 C 
ENDBRANCH   7  15
BRANCH   1  17
ATOM     17  C   UNL     1       2.622   5.980  18.279  0.00  0.00    +0.000 C 
BRANCH  17  18
ATOM     18  C   UNL     1       4.168   5.837  18.172  0.00  0.00    +0.000 C 
BRANCH  18  22
ATOM     19  C   UNL     1       6.087   4.363  14.572  0.00  0.00    +0.000 A 
ATOM     20  C   UNL     1       5.856   5.730  14.743  0.00  0.00    +0.000 A 
ATOM     21  C   UNL     1       5.201   6.193  15.884  0.00  0.00    +0.000 A 
ATOM     22  C   UNL     1       4.759   5.308  16.880  0.00  0.00    +0.000 A 
ATOM     23  C   UNL     1       5.009   3.941  16.695  0.00  0.00    +0.000 A 
ATOM     24  C   UNL     1       5.663   3.465  15.557  0.00  0.00    +0.000 A 
BRANCH  19  26
ATOM     25  C   UNL     1       5.988   3.342  12.420  0.00  0.00    +0.000 C 
ATOM     26  O   UNL     1       6.740   3.998  13.428  0.00  0.00    +0.000 OA
ENDBRANCH  19  26
ENDBRANCH  18  22
ENDBRANCH  17  18
ENDBRANCH   1  17
TORSDOF 7
ENDMDL
MODEL 9
REMARK VINA RESULT:      -6.7      3.594      8.709
REMARK  Name = 
REMARK  11 active torsions:
REMARK  status: ('A' for Active; 'I' for Inactive)
REMARK    1  A    between atoms: C_1  and  O_2
REMARK    2  A    between atoms: O_2  and  C_3
REMARK    3  A    between atoms: C_6  and  C_7
REMARK    4  A    between atoms: C_7  and  C_8
REMARK    5  A    between atoms: C_8  and  N_9
REMARK    6  A    between atoms: C_13  and  O_14
REMARK    7  A    between atoms: O_14  and  C_15
REMARK    8  A    between atoms: C_16  and  O_17
REMARK    9  A    between atoms: O_17  and  C_18
REMARK   10  A    between atoms: C_19  and  O_20
REMARK   11  A    between atoms: O_20  and  C_21
REMARK                            x       y       z     vdW  Elec       q    Type
REMARK                         _______ _______ _______ _____ _____    ______ ____
ROOT
ATOM      1  N   UNL     1       2.069   7.192  19.448  0.00  0.00    +0.000 N 
ATOM      2  C   UNL     1       1.843   7.414  20.746  0.00  0.00    +0.000 A 
ATOM      3  C   UNL     1       0.993   8.430  21.100  0.00  0.00    +0.000 A 
ATOM      4  C   UNL     1       1.067   9.622  20.409  0.00  0.00    +0.000 A 
ATOM      5  C   UNL     1       0.724  10.869  20.991  0.00  0.00    +0.000 A 
ATOM      6  C   UNL     1       0.988  12.059  20.280  0.00  0.00    +0.000 A 
ATOM      7  C   UNL     1       1.542  12.021  18.988  0.00  0.00    +0.000 A 
ATOM      8  C   UNL     1       1.787  10.774  18.383  0.00  0.00    +0.000 A 
ATOM      9  C   UNL     1       1.600   9.550  19.097  0.00  0.00    +0.000 A 
ATOM     10  C   UNL     1       1.933   8.247  18.587  0.00  0.00    +0.000 A 
ENDROOT
BRANCH   5  11
ATOM     11  O   UNL     1       0.252  11.126  22.255  0.00  0.00    +0.000 OA
ATOM     12  C   UNL     1      -0.872  10.502  22.837  0.00  0.00    +0.000 C 
ENDBRANCH   5  11
BRANCH   6  13
ATOM     13  O   UNL     1       0.802  13.218  21.008  0.00  0.00    +0.000 OA
ATOM     14  C   UNL     1      -0.370  13.979  20.750  0.00  0.00    +0.000 C 
ENDBRANCH   6  13
BRANCH   7  15
ATOM     15  O   UNL     1       1.814  13.241  18.444  0.00  0.00    +0.000 OA
ATOM     16  C   UNL     1       3.112  13.803  18.439  0.00  0.00    +0.000 C 
ENDBRANCH   7  15
BRANCH   1  17
ATOM     17  C   UNL     1       2.494   5.816  19.026  0.00  0.00    +0.000 C 
BRANCH  17  18
ATOM     18  C   UNL     1       3.990   5.474  19.287  0.00  0.00    +0.000 C 
BRANCH  18  22
ATOM     19  C   UNL     1       6.722   5.405  15.920  0.00  0.00    +0.000 A 
ATOM     20  C   UNL     1       7.158   5.033  17.195  0.00  0.00    +0.000 A 
ATOM     21  C   UNL     1       6.285   5.098  18.281  0.00  0.00    +0.000 A 
ATOM     22  C   UNL     1       4.961   5.535  18.125  0.00  0.00    +0.000 A 
ATOM     23  C   UNL     1       4.539   5.893  16.837  0.00  0.00    +0.000 A 
ATOM     24  C   UNL     1       5.403   5.834  15.742  0.00  0.00    +0.000 A 
BRANCH  19  26
ATOM     25  C   UNL     1       7.203   4.783  13.669  0.00  0.00    +0.000 C 
ATOM     26  O   UNL     1       7.642   5.305  14.913  0.00  0.00    +0.000 OA
ENDBRANCH  19  26
ENDBRANCH  18  22
ENDBRANCH  17  18
ENDBRANCH   1  17
TORSDOF 7
ENDMDL
