MODEL 1
REMARK VINA RESULT:      -7.8      0.000      0.000
REMARK  Name = 
REMARK  6 active torsions:
REMARK  status: ('A' for Active; 'I' for Inactive)
REMARK    1  A    between atoms: C_2  and  O_3
REMARK    2  A    between atoms: C_2  and  C_4
REMARK    3  A    between atoms: C_4  and  S_5
REMARK    4  A    between atoms: S_5  and  C_6
REMARK    5  A    between atoms: N_14  and  C_15
REMARK    6  A    between atoms: C_15  and  C_16
REMARK                            x       y       z     vdW  Elec       q    Type
REMARK                         _______ _______ _______ _____ _____    ______ ____
ROOT
ATOM      1  C   UNL     1       5.116   4.719  18.779  0.00  0.00    +0.000 A 
ATOM      2  N   UNL     1       4.976   3.584  19.426  0.00  0.00    +0.000 NA
ATOM      3  C   UNL     1       3.648   3.259  19.275  0.00  0.00    +0.000 A 
ATOM      4  C   UNL     1       2.902   2.228  19.870  0.00  0.00    +0.000 A 
ATOM      5  C   UNL     1       1.559   2.065  19.507  0.00  0.00    +0.000 A 
ATOM      6  C   UNL     1       0.976   2.894  18.548  0.00  0.00    +0.000 A 
ATOM      7  C   UNL     1       1.695   3.943  17.962  0.00  0.00    +0.000 A 
ATOM      8  C   UNL     1       3.019   4.126  18.381  0.00  0.00    +0.000 A 
ATOM      9  N   UNL     1       3.964   5.108  18.142  0.00  0.00    +0.000 N 
ENDROOT
BRANCH   1  10
ATOM     10  S   UNL     1       6.587   5.635  18.734  0.00  0.00    +0.000 S 
BRANCH  10  11
ATOM     11  C   UNL     1       7.606   4.600  17.662  0.00  0.00    +0.000 C 
BRANCH  11  13
ATOM     12  O   UNL     1       7.324   5.630  15.490  0.00  0.00    +0.000 OA
ATOM     13  C   UNL     1       7.118   4.679  16.237  0.00  0.00    +0.000 C 
BRANCH  13  14
ATOM     14  O   UNL     1       6.405   3.600  15.841  0.00  0.00    +0.000 OA
ATOM     15  H   UNL     1       5.999   3.703  14.951  0.00  0.00    +0.000 HD
ENDBRANCH  13  14
ENDBRANCH  11  13
ENDBRANCH  10  11
ENDBRANCH   1  10
BRANCH   9  16
ATOM     16  C   UNL     1       3.737   6.356  17.423  0.00  0.00    +0.000 C 
BRANCH  16  17
ATOM     17  C   UNL     1       2.903   7.315  18.244  0.00  0.00    +0.000 A 
ATOM     18  C   UNL     1       2.600   7.035  19.584  0.00  0.00    +0.000 A 
ATOM     19  C   UNL     1       1.745   7.868  20.310  0.00  0.00    +0.000 A 
ATOM     20  C   UNL     1       1.194   8.998  19.711  0.00  0.00    +0.000 A 
ATOM     21  C   UNL     1       1.526   9.318  18.398  0.00  0.00    +0.000 A 
ATOM     22  C   UNL     1       2.382   8.489  17.672  0.00  0.00    +0.000 A 
ENDBRANCH  16  17
ENDBRANCH   9  16
TORSDOF 6
ENDMDL
MODEL 2
REMARK VINA RESULT:      -7.8      0.124      1.266
REMARK  Name = 
REMARK  6 active torsions:
REMARK  status: ('A' for Active; 'I' for Inactive)
REMARK    1  A    between atoms: C_2  and  O_3
REMARK    2  A    between atoms: C_2  and  C_4
REMARK    3  A    between atoms: C_4  and  S_5
REMARK    4  A    between atoms: S_5  and  C_6
REMARK    5  A    between atoms: N_14  and  C_15
REMARK    6  A    between atoms: C_15  and  C_16
REMARK                            x       y       z     vdW  Elec       q    Type
REMARK                         _______ _______ _______ _____ _____    ______ ____
ROOT
ATOM      1  C   UNL     1       5.139   4.716  18.818  0.00  0.00    +0.000 A 
ATOM      2  N   UNL     1       4.976   3.557  19.415  0.00  0.00    +0.000 NA
ATOM      3  C   UNL     1       3.647   3.254  19.232  0.00  0.00    +0.000 A 
ATOM      4  C   UNL     1       2.880   2.209  19.771  0.00  0.00    +0.000 A 
ATOM      5  C   UNL     1       1.540   2.080  19.383  0.00  0.00    +0.000 A 
ATOM      6  C   UNL     1       0.982   2.955  18.452  0.00  0.00    +0.000 A 
ATOM      7  C   UNL     1       1.721   4.019  17.922  0.00  0.00    +0.000 A 
ATOM      8  C   UNL     1       3.042   4.168  18.366  0.00  0.00    +0.000 A 
ATOM      9  N   UNL     1       4.002   5.147  18.183  0.00  0.00    +0.000 N 
ENDROOT
BRANCH   1  10
ATOM     10  S   UNL     1       6.622   5.614  18.833  0.00  0.00    +0.000 S 
BRANCH  10  11
ATOM     11  C   UNL     1       7.628   4.638  17.695  0.00  0.00    +0.000 C 
BRANCH  11  13
ATOM     12  O   UNL     1       6.386   3.878  15.763  0.00  0.00    +0.000 OA
ATOM     13  C   UNL     1       7.083   4.737  16.293  0.00  0.00    +0.000 C 
BRANCH  13  14
ATOM     14  O   UNL     1       7.443   5.867  15.643  0.00  0.00    +0.000 OA
ATOM     15  H   UNL     1       8.046   5.707  14.883  0.00  0.00    +0.000 HD
ENDBRANCH  13  14
ENDBRANCH  11  13
ENDBRANCH  10  11
ENDBRANCH   1  10
BRANCH   9  16
ATOM     16  C   UNL     1       3.800   6.427  17.515  0.00  0.00    +0.000 C 
BRANCH  16  17
ATOM     17  C   UNL     1       2.840   7.302  18.290  0.00  0.00    +0.000 A 
ATOM     18  C   UNL     1       2.278   8.444  17.702  0.00  0.00    +0.000 A 
ATOM     19  C   UNL     1       1.475   9.309  18.450  0.00  0.00    +0.000 A 
ATOM     20  C   UNL     1       1.211   9.034  19.790  0.00  0.00    +0.000 A 
ATOM     21  C   UNL     1       1.719   7.877  20.374  0.00  0.00    +0.000 A 
ATOM     22  C   UNL     1       2.519   7.012  19.627  0.00  0.00    +0.000 A 
ENDBRANCH  16  17
ENDBRANCH   9  16
TORSDOF 6
ENDMDL
MODEL 3
REMARK VINA RESULT:      -7.8      2.533      5.166
REMARK  Name = 
REMARK  6 active torsions:
REMARK  status: ('A' for Active; 'I' for Inactive)
REMARK    1  A    between atoms: C_2  and  O_3
REMARK    2  A    between atoms: C_2  and  C_4
REMARK    3  A    between atoms: C_4  and  S_5
REMARK    4  A    between atoms: S_5  and  C_6
REMARK    5  A    between atoms: N_14  and  C_15
REMARK    6  A    between atoms: C_15  and  C_16
REMARK                            x       y       z     vdW  Elec       q    Type
REMARK                         _______ _______ _______ _____ _____    ______ ____
ROOT
ATOM      1  C   UNL     1       2.932   4.869  19.763  0.00  0.00    +0.000 A 
ATOM      2  N   UNL     1       2.143   5.535  20.575  0.00  0.00    +0.000 NA
ATOM      3  C   UNL     1       2.025   6.780  20.003  0.00  0.00    +0.000 A 
ATOM      4  C   UNL     1       1.419   7.945  20.501  0.00  0.00    +0.000 A 
ATOM      5  C   UNL     1       1.379   9.089  19.694  0.00  0.00    +0.000 A 
ATOM      6  C   UNL     1       1.905   9.066  18.402  0.00  0.00    +0.000 A 
ATOM      7  C   UNL     1       2.537   7.924  17.896  0.00  0.00    +0.000 A 
ATOM      8  C   UNL     1       2.618   6.808  18.739  0.00  0.00    +0.000 A 
ATOM      9  N   UNL     1       3.270   5.591  18.646  0.00  0.00    +0.000 N 
ENDROOT
BRANCH   1  10
ATOM     10  S   UNL     1       3.498   3.259  20.065  0.00  0.00    +0.000 S 
BRANCH  10  11
ATOM     11  C   UNL     1       1.938   2.355  20.150  0.00  0.00    +0.000 C 
BRANCH  11  13
ATOM     12  O   UNL     1       0.192   2.291  18.477  0.00  0.00    +0.000 OA
ATOM     13  C   UNL     1       1.374   2.147  18.767  0.00  0.00    +0.000 C 
BRANCH  13  14
ATOM     14  O   UNL     1       2.294   1.763  17.852  0.00  0.00    +0.000 OA
ATOM     15  H   UNL     1       2.944   1.112  18.198  0.00  0.00    +0.000 HD
ENDBRANCH  13  14
ENDBRANCH  11  13
ENDBRANCH  10  11
ENDBRANCH   1  10
BRANCH   9  16
ATOM     16  C   UNL     1       4.204   5.201  17.596  0.00  0.00    +0.000 C 
BRANCH  16  17
ATOM     17  C   UNL     1       5.578   5.779  17.846  0.00  0.00    +0.000 A 
ATOM     18  C   UNL     1       6.412   5.243  18.838  0.00  0.00    +0.000 A 
ATOM     19  C   UNL     1       7.638   5.843  19.139  0.00  0.00    +0.000 A 
ATOM     20  C   UNL     1       8.052   6.976  18.441  0.00  0.00    +0.000 A 
ATOM     21  C   UNL     1       7.260   7.488  17.419  0.00  0.00    +0.000 A 
ATOM     22  C   UNL     1       6.037   6.889  17.115  0.00  0.00    +0.000 A 
ENDBRANCH  16  17
ENDBRANCH   9  16
TORSDOF 6
ENDMDL
MODEL 4
REMARK VINA RESULT:      -7.7      2.556      5.267
REMARK  Name = 
REMARK  6 active torsions:
REMARK  status: ('A' for Active; 'I' for Inactive)
REMARK    1  A    between atoms: C_2  and  O_3
REMARK    2  A    between atoms: C_2  and  C_4
REMARK    3  A    between atoms: C_4  and  S_5
REMARK    4  A    between atoms: S_5  and  C_6
REMARK    5  A    between atoms: N_14  and  C_15
REMARK    6  A    between atoms: C_15  and  C_16
REMARK                            x       y       z     vdW  Elec       q    Type
REMARK                         _______ _______ _______ _____ _____    ______ ____
ROOT
ATOM      1  C   UNL     1       2.836   4.781  19.934  0.00  0.00    +0.000 A 
ATOM      2  N   UNL     1       2.032   5.416  20.756  0.00  0.00    +0.000 NA
ATOM      3  C   UNL     1       1.907   6.675  20.218  0.00  0.00    +0.000 A 
ATOM      4  C   UNL     1       1.285   7.820  20.743  0.00  0.00    +0.000 A 
ATOM      5  C   UNL     1       1.241   8.985  19.968  0.00  0.00    +0.000 A 
ATOM      6  C   UNL     1       1.779   9.004  18.681  0.00  0.00    +0.000 A 
ATOM      7  C   UNL     1       2.427   7.882  18.149  0.00  0.00    +0.000 A 
ATOM      8  C   UNL     1       2.512   6.744  18.962  0.00  0.00    +0.000 A 
ATOM      9  N   UNL     1       3.176   5.537  18.841  0.00  0.00    +0.000 N 
ENDROOT
BRANCH   1  10
ATOM     10  S   UNL     1       3.415   3.168  20.196  0.00  0.00    +0.000 S 
BRANCH  10  11
ATOM     11  C   UNL     1       1.869   2.238  20.177  0.00  0.00    +0.000 C 
BRANCH  11  13
ATOM     12  O   UNL     1       0.171   2.272  18.453  0.00  0.00    +0.000 OA
ATOM     13  C   UNL     1       1.346   2.115  18.768  0.00  0.00    +0.000 C 
BRANCH  13  14
ATOM     14  O   UNL     1       2.294   1.796  17.857  0.00  0.00    +0.000 OA
ATOM     15  H   UNL     1       2.303   2.391  17.074  0.00  0.00    +0.000 HD
ENDBRANCH  13  14
ENDBRANCH  11  13
ENDBRANCH  10  11
ENDBRANCH   1  10
BRANCH   9  16
ATOM     16  C   UNL     1       4.124   5.185  17.790  0.00  0.00    +0.000 C 
BRANCH  16  17
ATOM     17  C   UNL     1       5.474   5.822  18.036  0.00  0.00    +0.000 A 
ATOM     18  C   UNL     1       5.925   6.879  17.233  0.00  0.00    +0.000 A 
ATOM     19  C   UNL     1       7.213   7.396  17.393  0.00  0.00    +0.000 A 
ATOM     20  C   UNL     1       8.060   6.874  18.368  0.00  0.00    +0.000 A 
ATOM     21  C   UNL     1       7.609   5.860  19.207  0.00  0.00    +0.000 A 
ATOM     22  C   UNL     1       6.321   5.344  19.050  0.00  0.00    +0.000 A 
ENDBRANCH  16  17
ENDBRANCH   9  16
TORSDOF 6
ENDMDL
MODEL 5
REMARK VINA RESULT:      -7.5      1.355      1.931
REMARK  Name = 
REMARK  6 active torsions:
REMARK  status: ('A' for Active; 'I' for Inactive)
REMARK    1  A    between atoms: C_2  and  O_3
REMARK    2  A    between atoms: C_2  and  C_4
REMARK    3  A    between atoms: C_4  and  S_5
REMARK    4  A    between atoms: S_5  and  C_6
REMARK    5  A    between atoms: N_14  and  C_15
REMARK    6  A    between atoms: C_15  and  C_16
REMARK                            x       y       z     vdW  Elec       q    Type
REMARK                         _______ _______ _______ _____ _____    ______ ____
ROOT
ATOM      1  C   UNL     1       3.881   5.216  17.406  0.00  0.00    +0.000 A 
ATOM      2  N   UNL     1       3.511   4.046  16.938  0.00  0.00    +0.000 NA
ATOM      3  C   UNL     1       2.640   3.553  17.882  0.00  0.00    +0.000 A 
ATOM      4  C   UNL     1       2.044   2.285  17.980  0.00  0.00    +0.000 A 
ATOM      5  C   UNL     1       1.136   2.041  19.017  0.00  0.00    +0.000 A 
ATOM      6  C   UNL     1       0.802   3.048  19.923  0.00  0.00    +0.000 A 
ATOM      7  C   UNL     1       1.405   4.310  19.858  0.00  0.00    +0.000 A 
ATOM      8  C   UNL     1       2.354   4.517  18.849  0.00  0.00    +0.000 A 
ATOM      9  N   UNL     1       3.232   5.549  18.568  0.00  0.00    +0.000 N 
ENDROOT
BRANCH   1  10
ATOM     10  S   UNL     1       5.065   6.232  16.650  0.00  0.00    +0.000 S 
BRANCH  10  11
ATOM     11  C   UNL     1       6.516   5.887  17.666  0.00  0.00    +0.000 C 
BRANCH  11  13
ATOM     12  O   UNL     1       7.465   4.658  15.809  0.00  0.00    +0.000 OA
ATOM     13  C   UNL     1       7.368   4.822  17.021  0.00  0.00    +0.000 C 
BRANCH  13  14
ATOM     14  O   UNL     1       8.022   4.033  17.904  0.00  0.00    +0.000 OA
ATOM     15  H   UNL     1       8.719   4.506  18.412  0.00  0.00    +0.000 HD
ENDBRANCH  13  14
ENDBRANCH  11  13
ENDBRANCH  10  11
ENDBRANCH   1  10
BRANCH   9  16
ATOM     16  C   UNL     1       3.472   6.718  19.405  0.00  0.00    +0.000 C 
BRANCH  16  17
ATOM     17  C   UNL     1       2.377   7.747  19.234  0.00  0.00    +0.000 A 
ATOM     18  C   UNL     1       2.140   8.341  17.985  0.00  0.00    +0.000 A 
ATOM     19  C   UNL     1       1.200   9.365  17.851  0.00  0.00    +0.000 A 
ATOM     20  C   UNL     1       0.473   9.798  18.958  0.00  0.00    +0.000 A 
ATOM     21  C   UNL     1       0.659   9.183  20.192  0.00  0.00    +0.000 A 
ATOM     22  C   UNL     1       1.596   8.158  20.328  0.00  0.00    +0.000 A 
ENDBRANCH  16  17
ENDBRANCH   9  16
TORSDOF 6
ENDMDL
MODEL 6
REMARK VINA RESULT:      -7.5      1.368      1.837
REMARK  Name = 
REMARK  6 active torsions:
REMARK  status: ('A' for Active; 'I' for Inactive)
REMARK    1  A    between atoms: C_2  and  O_3
REMARK    2  A    between atoms: C_2  and  C_4
REMARK    3  A    between atoms: C_4  and  S_5
REMARK    4  A    between atoms: S_5  and  C_6
REMARK    5  A    between atoms: N_14  and  C_15
REMARK    6  A    between atoms: C_15  and  C_16
REMARK                            x       y       z     vdW  Elec       q    Type
REMARK                         _______ _______ _______ _____ _____    ______ ____
ROOT
ATOM      1  C   UNL     1       4.005   5.001  17.359  0.00  0.00    +0.000 A 
ATOM      2  N   UNL     1       3.585   3.836  16.919  0.00  0.00    +0.000 NA
ATOM      3  C   UNL     1       2.672   3.418  17.857  0.00  0.00    +0.000 A 
ATOM      4  C   UNL     1       2.010   2.185  17.981  0.00  0.00    +0.000 A 
ATOM      5  C   UNL     1       1.069   2.019  19.005  0.00  0.00    +0.000 A 
ATOM      6  C   UNL     1       0.769   3.069  19.872  0.00  0.00    +0.000 A 
ATOM      7  C   UNL     1       1.436   4.297  19.783  0.00  0.00    +0.000 A 
ATOM      8  C   UNL     1       2.415   4.425  18.789  0.00  0.00    +0.000 A 
ATOM      9  N   UNL     1       3.350   5.402  18.496  0.00  0.00    +0.000 N 
ENDROOT
BRANCH   1  10
ATOM     10  S   UNL     1       5.254   5.932  16.598  0.00  0.00    +0.000 S 
BRANCH  10  11
ATOM     11  C   UNL     1       6.523   4.673  16.353  0.00  0.00    +0.000 C 
BRANCH  11  13
ATOM     12  O   UNL     1       7.654   5.400  14.341  0.00  0.00    +0.000 OA
ATOM     13  C   UNL     1       6.915   4.596  14.899  0.00  0.00    +0.000 C 
BRANCH  13  14
ATOM     14  O   UNL     1       6.360   3.555  14.236  0.00  0.00    +0.000 OA
ATOM     15  H   UNL     1       6.853   3.299  13.425  0.00  0.00    +0.000 HD
ENDBRANCH  13  14
ENDBRANCH  11  13
ENDBRANCH  10  11
ENDBRANCH   1  10
BRANCH   9  16
ATOM     16  C   UNL     1       3.632   6.584  19.302  0.00  0.00    +0.000 C 
BRANCH  16  17
ATOM     17  C   UNL     1       2.543   7.622  19.149  0.00  0.00    +0.000 A 
ATOM     18  C   UNL     1       2.319   8.250  17.915  0.00  0.00    +0.000 A 
ATOM     19  C   UNL     1       1.384   9.282  17.800  0.00  0.00    +0.000 A 
ATOM     20  C   UNL     1       0.651   9.688  18.913  0.00  0.00    +0.000 A 
ATOM     21  C   UNL     1       0.824   9.040  20.132  0.00  0.00    +0.000 A 
ATOM     22  C   UNL     1       1.756   8.007  20.248  0.00  0.00    +0.000 A 
ENDBRANCH  16  17
ENDBRANCH   9  16
TORSDOF 6
ENDMDL
MODEL 7
REMARK VINA RESULT:      -7.4      1.789      2.211
REMARK  Name = 
REMARK  6 active torsions:
REMARK  status: ('A' for Active; 'I' for Inactive)
REMARK    1  A    between atoms: C_2  and  O_3
REMARK    2  A    between atoms: C_2  and  C_4
REMARK    3  A    between atoms: C_4  and  S_5
REMARK    4  A    between atoms: S_5  and  C_6
REMARK    5  A    between atoms: N_14  and  C_15
REMARK    6  A    between atoms: C_15  and  C_16
REMARK                            x       y       z     vdW  Elec       q    Type
REMARK                         _______ _______ _______ _____ _____    ______ ____
ROOT
ATOM      1  C   UNL     1       4.290   4.981  17.717  0.00  0.00    +0.000 A 
ATOM      2  N   UNL     1       3.970   3.836  17.157  0.00  0.00    +0.000 NA
ATOM      3  C   UNL     1       2.916   3.365  17.904  0.00  0.00    +0.000 A 
ATOM      4  C   UNL     1       2.262   2.124  17.854  0.00  0.00    +0.000 A 
ATOM      5  C   UNL     1       1.162   1.901  18.691  0.00  0.00    +0.000 A 
ATOM      6  C   UNL     1       0.701   2.906  19.542  0.00  0.00    +0.000 A 
ATOM      7  C   UNL     1       1.354   4.141  19.626  0.00  0.00    +0.000 A 
ATOM      8  C   UNL     1       2.487   4.325  18.823  0.00  0.00    +0.000 A 
ATOM      9  N   UNL     1       3.443   5.321  18.741  0.00  0.00    +0.000 N 
ENDROOT
BRANCH   1  10
ATOM     10  S   UNL     1       5.636   5.957  17.227  0.00  0.00    +0.000 S 
BRANCH  10  11
ATOM     11  C   UNL     1       7.004   5.078  18.013  0.00  0.00    +0.000 C 
BRANCH  11  13
ATOM     12  O   UNL     1       8.233   7.059  18.661  0.00  0.00    +0.000 OA
ATOM     13  C   UNL     1       7.729   5.986  18.974  0.00  0.00    +0.000 C 
BRANCH  13  14
ATOM     14  O   UNL     1       7.798   5.505  20.237  0.00  0.00    +0.000 OA
ATOM     15  H   UNL     1       7.322   6.060  20.894  0.00  0.00    +0.000 HD
ENDBRANCH  13  14
ENDBRANCH  11  13
ENDBRANCH  10  11
ENDBRANCH   1  10
BRANCH   9  16
ATOM     16  C   UNL     1       3.564   6.465  19.638  0.00  0.00    +0.000 C 
BRANCH  16  17
ATOM     17  C   UNL     1       2.547   7.532  19.303  0.00  0.00    +0.000 A 
ATOM     18  C   UNL     1       2.438   8.034  17.998  0.00  0.00    +0.000 A 
ATOM     19  C   UNL     1       1.572   9.093  17.712  0.00  0.00    +0.000 A 
ATOM     20  C   UNL     1       0.792   9.651  18.722  0.00  0.00    +0.000 A 
ATOM     21  C   UNL     1       0.849   9.129  20.010  0.00  0.00    +0.000 A 
ATOM     22  C   UNL     1       1.712   8.070  20.298  0.00  0.00    +0.000 A 
ENDBRANCH  16  17
ENDBRANCH   9  16
TORSDOF 6
ENDMDL
MODEL 8
REMARK VINA RESULT:      -7.4      1.724      4.646
REMARK  Name = 
REMARK  6 active torsions:
REMARK  status: ('A' for Active; 'I' for Inactive)
REMARK    1  A    between atoms: C_2  and  O_3
REMARK    2  A    between atoms: C_2  and  C_4
REMARK    3  A    between atoms: C_4  and  S_5
REMARK    4  A    between atoms: S_5  and  C_6
REMARK    5  A    between atoms: N_14  and  C_15
REMARK    6  A    between atoms: C_15  and  C_16
REMARK                            x       y       z     vdW  Elec       q    Type
REMARK                         _______ _______ _______ _____ _____    ______ ____
ROOT
ATOM      1  C   UNL     1       3.782   6.997  17.576  0.00  0.00    +0.000 A 
ATOM      2  N   UNL     1       3.212   8.082  17.101  0.00  0.00    +0.000 NA
ATOM      3  C   UNL     1       2.313   8.456  18.072  0.00  0.00    +0.000 A 
ATOM      4  C   UNL     1       1.330   9.458  18.048  0.00  0.00    +0.000 A 
ATOM      5  C   UNL     1       0.565   9.687  19.199  0.00  0.00    +0.000 A 
ATOM      6  C   UNL     1       0.794   8.952  20.363  0.00  0.00    +0.000 A 
ATOM      7  C   UNL     1       1.751   7.931  20.399  0.00  0.00    +0.000 A 
ATOM      8  C   UNL     1       2.466   7.678  19.221  0.00  0.00    +0.000 A 
ATOM      9  N   UNL     1       3.359   6.691  18.844  0.00  0.00    +0.000 N 
ENDROOT
BRANCH   1  10
ATOM     10  S   UNL     1       4.937   6.046  16.700  0.00  0.00    +0.000 S 
BRANCH  10  11
ATOM     11  C   UNL     1       6.475   6.543  17.504  0.00  0.00    +0.000 C 
BRANCH  11  13
ATOM     12  O   UNL     1       7.810   4.570  17.076  0.00  0.00    +0.000 OA
ATOM     13  C   UNL     1       7.285   5.329  17.884  0.00  0.00    +0.000 C 
BRANCH  13  14
ATOM     14  O   UNL     1       7.378   5.128  19.219  0.00  0.00    +0.000 OA
ATOM     15  H   UNL     1       6.705   4.501  19.569  0.00  0.00    +0.000 HD
ENDBRANCH  13  14
ENDBRANCH  11  13
ENDBRANCH  10  11
ENDBRANCH   1  10
BRANCH   9  16
ATOM     16  C   UNL     1       3.706   5.510  19.625  0.00  0.00    +0.000 C 
BRANCH  16  17
ATOM     17  C   UNL     1       2.588   4.491  19.600  0.00  0.00    +0.000 A 
ATOM     18  C   UNL     1       1.969   4.077  20.789  0.00  0.00    +0.000 A 
ATOM     19  C   UNL     1       1.010   3.061  20.777  0.00  0.00    +0.000 A 
ATOM     20  C   UNL     1       0.646   2.458  19.575  0.00  0.00    +0.000 A 
ATOM     21  C   UNL     1       1.213   2.893  18.381  0.00  0.00    +0.000 A 
ATOM     22  C   UNL     1       2.169   3.910  18.391  0.00  0.00    +0.000 A 
ENDBRANCH  16  17
ENDBRANCH   9  16
TORSDOF 6
ENDMDL
MODEL 9
REMARK VINA RESULT:      -7.3      2.982      4.744
REMARK  Name = 
REMARK  6 active torsions:
REMARK  status: ('A' for Active; 'I' for Inactive)
REMARK    1  A    between atoms: C_2  and  O_3
REMARK    2  A    between atoms: C_2  and  C_4
REMARK    3  A    between atoms: C_4  and  S_5
REMARK    4  A    between atoms: S_5  and  C_6
REMARK    5  A    between atoms: N_14  and  C_15
REMARK    6  A    between atoms: C_15  and  C_16
REMARK                            x       y       z     vdW  Elec       q    Type
REMARK                         _______ _______ _______ _____ _____    ______ ____
ROOT
ATOM      1  C   UNL     1       4.306   3.938  18.860  0.00  0.00    +0.000 A 
ATOM      2  N   UNL     1       5.598   3.789  19.046  0.00  0.00    +0.000 NA
ATOM      3  C   UNL     1       6.162   4.909  18.480  0.00  0.00    +0.000 A 
ATOM      4  C   UNL     1       7.514   5.220  18.259  0.00  0.00    +0.000 A 
ATOM      5  C   UNL     1       7.842   6.466  17.710  0.00  0.00    +0.000 A 
ATOM      6  C   UNL     1       6.847   7.398  17.414  0.00  0.00    +0.000 A 
ATOM      7  C   UNL     1       5.493   7.097  17.603  0.00  0.00    +0.000 A 
ATOM      8  C   UNL     1       5.180   5.824  18.098  0.00  0.00    +0.000 A 
ATOM      9  N   UNL     1       3.992   5.139  18.274  0.00  0.00    +0.000 N 
ENDROOT
BRANCH   1  10
ATOM     10  S   UNL     1       3.121   2.750  19.295  0.00  0.00    +0.000 S 
BRANCH  10  11
ATOM     11  C   UNL     1       2.862   3.143  21.038  0.00  0.00    +0.000 C 
BRANCH  11  13
ATOM     12  O   UNL     1       1.103   2.360  22.505  0.00  0.00    +0.000 OA
ATOM     13  C   UNL     1       1.435   2.860  21.435  0.00  0.00    +0.000 C 
BRANCH  13  14
ATOM     14  O   UNL     1       0.526   3.195  20.490  0.00  0.00    +0.000 OA
ATOM     15  H   UNL     1       0.807   3.949  19.924  0.00  0.00    +0.000 HD
ENDBRANCH  13  14
ENDBRANCH  11  13
ENDBRANCH  10  11
ENDBRANCH   1  10
BRANCH   9  16
ATOM     16  C   UNL     1       2.675   5.584  17.836  0.00  0.00    +0.000 C 
BRANCH  16  17
ATOM     17  C   UNL     1       2.248   6.834  18.573  0.00  0.00    +0.000 A 
ATOM     18  C   UNL     1       2.067   6.819  19.964  0.00  0.00    +0.000 A 
ATOM     19  C   UNL     1       1.572   7.942  20.630  0.00  0.00    +0.000 A 
ATOM     20  C   UNL     1       1.266   9.100  19.918  0.00  0.00    +0.000 A 
ATOM     21  C   UNL     1       1.489   9.148  18.545  0.00  0.00    +0.000 A 
ATOM     22  C   UNL     1       1.986   8.027  17.878  0.00  0.00    +0.000 A 
ENDBRANCH  16  17
ENDBRANCH   9  16
TORSDOF 6
ENDMDL
