MODEL 1
REMARK VINA RESULT:      -7.5      0.000      0.000
REMARK  Name = 
REMARK  11 active torsions:
REMARK  status: ('A' for Active; 'I' for Inactive)
REMARK    1  A    between atoms: C_1  and  C_2
REMARK    2  A    between atoms: C_2  and  N_3
REMARK    3  A    between atoms: C_2  and  C_11
REMARK    4  A    between atoms: C_4  and  O_6
REMARK    5  A    between atoms: O_6  and  C_7
REMARK    6  A    between atoms: C_7  and  C_8
REMARK    7  A    between atoms: C_7  and  C_9
REMARK    8  A    between atoms: C_7  and  C_10
REMARK    9  A    between atoms: C_13  and  C_14
REMARK   10  A    between atoms: C_16  and  C_17
REMARK   11  A    between atoms: C_19  and  C_20
REMARK                            x       y       z     vdW  Elec       q    Type
REMARK                         _______ _______ _______ _____ _____    ______ ____
ROOT
ATOM      1  C   UNL     1       0.757  10.068  20.219  0.00  0.00    +0.000 A 
ATOM      2  N   UNL     1       1.350   9.133  19.499  0.00  0.00    +0.000 NA
ATOM      3  C   UNL     1       1.683   8.056  20.316  0.00  0.00    +0.000 A 
ATOM      4  C   UNL     1       1.363   8.206  21.650  0.00  0.00    +0.000 A 
ATOM      5  S   UNL     1       0.597   9.711  21.902  0.00  0.00    +0.000 S 
ENDROOT
BRANCH   3   6
ATOM      6  C   UNL     1       2.341   6.806  19.799  0.00  0.00    +0.000 A 
ATOM      7  N   UNL     1       3.486   6.837  19.144  0.00  0.00    +0.000 NA
ATOM      8  C   UNL     1       3.867   5.549  18.799  0.00  0.00    +0.000 A 
ATOM      9  C   UNL     1       2.983   4.558  19.178  0.00  0.00    +0.000 A 
ATOM     10  S   UNL     1       1.664   5.243  20.029  0.00  0.00    +0.000 S 
BRANCH   8  11
ATOM     11  C   UNL     1       5.147   5.239  18.069  0.00  0.00    +0.000 A 
ATOM     12  N   UNL     1       5.188   5.098  16.758  0.00  0.00    +0.000 NA
ATOM     13  C   UNL     1       6.499   4.823  16.348  0.00  0.00    +0.000 A 
ATOM     14  C   UNL     1       7.414   4.736  17.382  0.00  0.00    +0.000 A 
ATOM     15  S   UNL     1       6.648   5.040  18.882  0.00  0.00    +0.000 S 
BRANCH  13  16
ATOM     16  C   UNL     1       6.850   4.658  14.938  0.00  0.00    +0.000 C 
ATOM     17  N   UNL     1       6.217   3.619  14.320  0.00  0.00    +0.000 N 
ATOM     18  O   UNL     1       7.634   5.385  14.334  0.00  0.00    +0.000 OA
ATOM     19  H   UNL     1       5.555   3.054  14.832  0.00  0.00    +0.000 HD
ATOM     20  H   UNL     1       6.371   3.469  13.331  0.00  0.00    +0.000 HD
ENDBRANCH  13  16
ENDBRANCH   8  11
ENDBRANCH   3   6
BRANCH   1  22
ATOM     21  C   UNL     1       1.339  12.445  19.681  0.00  0.00    +0.000 C 
ATOM     22  C   UNL     1       0.237  11.389  19.705  0.00  0.00    +0.000 C 
BRANCH  22  23
ATOM     23  N   UNL     1      -0.369  11.227  18.390  0.00  0.00    +0.000 N 
ATOM     24  C   UNL     1      -1.561  11.828  18.128  0.00  0.00    +0.000 C 
ATOM     25  O   UNL     1      -2.164  12.485  18.964  0.00  0.00    +0.000 OA
ATOM     26  H   UNL     1       0.130  10.745  17.652  0.00  0.00    +0.000 HD
BRANCH  24  27
ATOM     27  O   UNL     1      -1.980  11.610  16.852  0.00  0.00    +0.000 OA
BRANCH  27  28
ATOM     28  C   UNL     1      -3.138  10.748  16.648  0.00  0.00    +0.000 C 
ATOM     29  C   UNL     1      -4.457  11.529  16.766  0.00  0.00    +0.000 C 
ATOM     30  C   UNL     1      -3.041  10.197  15.214  0.00  0.00    +0.000 C 
ATOM     31  C   UNL     1      -3.101   9.546  17.606  0.00  0.00    +0.000 C 
ENDBRANCH  27  28
ENDBRANCH  24  27
ENDBRANCH  22  23
ENDBRANCH   1  22
TORSDOF 7
ENDMDL
MODEL 2
REMARK VINA RESULT:      -7.3      1.243      1.513
REMARK  Name = 
REMARK  11 active torsions:
REMARK  status: ('A' for Active; 'I' for Inactive)
REMARK    1  A    between atoms: C_1  and  C_2
REMARK    2  A    between atoms: C_2  and  N_3
REMARK    3  A    between atoms: C_2  and  C_11
REMARK    4  A    between atoms: C_4  and  O_6
REMARK    5  A    between atoms: O_6  and  C_7
REMARK    6  A    between atoms: C_7  and  C_8
REMARK    7  A    between atoms: C_7  and  C_9
REMARK    8  A    between atoms: C_7  and  C_10
REMARK    9  A    between atoms: C_13  and  C_14
REMARK   10  A    between atoms: C_16  and  C_17
REMARK   11  A    between atoms: C_19  and  C_20
REMARK                            x       y       z     vdW  Elec       q    Type
REMARK                         _______ _______ _______ _____ _____    ______ ____
ROOT
ATOM      1  C   UNL     1       0.691  10.565  20.055  0.00  0.00    +0.000 A 
ATOM      2  N   UNL     1       1.236   9.519  19.461  0.00  0.00    +0.000 NA
ATOM      3  C   UNL     1       1.351   8.472  20.371  0.00  0.00    +0.000 A 
ATOM      4  C   UNL     1       0.919   8.752  21.651  0.00  0.00    +0.000 A 
ATOM      5  S   UNL     1       0.319  10.350  21.729  0.00  0.00    +0.000 S 
ENDROOT
BRANCH   3   6
ATOM      6  C   UNL     1       1.901   7.121  20.004  0.00  0.00    +0.000 A 
ATOM      7  N   UNL     1       2.764   6.961  19.018  0.00  0.00    +0.000 NA
ATOM      8  C   UNL     1       3.112   5.622  18.909  0.00  0.00    +0.000 A 
ATOM      9  C   UNL     1       2.481   4.781  19.803  0.00  0.00    +0.000 A 
ATOM     10  S   UNL     1       1.462   5.686  20.841  0.00  0.00    +0.000 S 
BRANCH   8  11
ATOM     11  C   UNL     1       4.104   5.113  17.898  0.00  0.00    +0.000 A 
ATOM     12  N   UNL     1       5.133   5.837  17.501  0.00  0.00    +0.000 NA
ATOM     13  C   UNL     1       5.891   5.119  16.568  0.00  0.00    +0.000 A 
ATOM     14  C   UNL     1       5.387   3.867  16.265  0.00  0.00    +0.000 A 
ATOM     15  S   UNL     1       3.974   3.557  17.180  0.00  0.00    +0.000 S 
BRANCH  13  16
ATOM     16  C   UNL     1       7.118   5.662  15.985  0.00  0.00    +0.000 C 
ATOM     17  N   UNL     1       7.644   6.720  16.668  0.00  0.00    +0.000 N 
ATOM     18  O   UNL     1       7.658   5.215  14.977  0.00  0.00    +0.000 OA
ATOM     19  H   UNL     1       7.196   7.050  17.512  0.00  0.00    +0.000 HD
ATOM     20  H   UNL     1       8.519   7.120  16.356  0.00  0.00    +0.000 HD
ENDBRANCH  13  16
ENDBRANCH   8  11
ENDBRANCH   3   6
BRANCH   1  22
ATOM     21  C   UNL     1       1.661  12.721  19.228  0.00  0.00    +0.000 C 
ATOM     22  C   UNL     1       0.389  11.896  19.410  0.00  0.00    +0.000 C 
BRANCH  22  23
ATOM     23  N   UNL     1      -0.306  11.709  18.144  0.00  0.00    +0.000 N 
ATOM     24  C   UNL     1      -1.651  11.904  18.088  0.00  0.00    +0.000 C 
ATOM     25  O   UNL     1      -2.313  12.209  19.071  0.00  0.00    +0.000 OA
ATOM     26  H   UNL     1       0.215  11.520  17.296  0.00  0.00    +0.000 HD
BRANCH  24  27
ATOM     27  O   UNL     1      -2.149  11.722  16.835  0.00  0.00    +0.000 OA
BRANCH  27  28
ATOM     28  C   UNL     1      -3.335  10.889  16.681  0.00  0.00    +0.000 C 
ATOM     29  C   UNL     1      -3.507  10.406  15.232  0.00  0.00    +0.000 C 
ATOM     30  C   UNL     1      -3.134   9.650  17.572  0.00  0.00    +0.000 C 
ATOM     31  C   UNL     1      -4.588  11.623  17.189  0.00  0.00    +0.000 C 
ENDBRANCH  27  28
ENDBRANCH  24  27
ENDBRANCH  22  23
ENDBRANCH   1  22
TORSDOF 7
ENDMDL
MODEL 3
REMARK VINA RESULT:      -7.2      2.861      9.995
REMARK  Name = 
REMARK  11 active torsions:
REMARK  status: ('A' for Active; 'I' for Inactive)
REMARK    1  A    between atoms: C_1  and  C_2
REMARK    2  A    between atoms: C_2  and  N_3
REMARK    3  A    between atoms: C_2  and  C_11
REMARK    4  A    between atoms: C_4  and  O_6
REMARK    5  A    between atoms: O_6  and  C_7
REMARK    6  A    between atoms: C_7  and  C_8
REMARK    7  A    between atoms: C_7  and  C_9
REMARK    8  A    between atoms: C_7  and  C_10
REMARK    9  A    between atoms: C_13  and  C_14
REMARK   10  A    between atoms: C_16  and  C_17
REMARK   11  A    between atoms: C_19  and  C_20
REMARK                            x       y       z     vdW  Elec       q    Type
REMARK                         _______ _______ _______ _____ _____    ______ ____
ROOT
ATOM      1  C   UNL     1       2.318   7.432  19.338  0.00  0.00    +0.000 A 
ATOM      2  N   UNL     1       1.573   8.285  20.018  0.00  0.00    +0.000 NA
ATOM      3  C   UNL     1       1.265   9.379  19.216  0.00  0.00    +0.000 A 
ATOM      4  C   UNL     1       1.808   9.354  17.947  0.00  0.00    +0.000 A 
ATOM      5  S   UNL     1       2.702   7.916  17.723  0.00  0.00    +0.000 S 
ENDROOT
BRANCH   3   6
ATOM      6  C   UNL     1       0.398  10.519  19.679  0.00  0.00    +0.000 A 
ATOM      7  N   UNL     1      -0.872  10.615  19.337  0.00  0.00    +0.000 NA
ATOM      8  C   UNL     1      -1.431  11.749  19.911  0.00  0.00    +0.000 A 
ATOM      9  C   UNL     1      -0.558  12.511  20.661  0.00  0.00    +0.000 A 
ATOM     10  S   UNL     1       0.987  11.775  20.693  0.00  0.00    +0.000 S 
BRANCH   8  11
ATOM     11  C   UNL     1      -2.877  12.128  19.740  0.00  0.00    +0.000 A 
ATOM     12  N   UNL     1      -3.609  11.663  18.744  0.00  0.00    +0.000 NA
ATOM     13  C   UNL     1      -4.911  12.170  18.832  0.00  0.00    +0.000 A 
ATOM     14  C   UNL     1      -5.117  13.036  19.891  0.00  0.00    +0.000 A 
ATOM     15  S   UNL     1      -3.686  13.194  20.817  0.00  0.00    +0.000 S 
BRANCH  13  16
ATOM     16  C   UNL     1      -5.955  11.792  17.880  0.00  0.00    +0.000 C 
ATOM     17  N   UNL     1      -5.497  11.521  16.623  0.00  0.00    +0.000 N 
ATOM     18  O   UNL     1      -7.146  11.703  18.163  0.00  0.00    +0.000 OA
ATOM     19  H   UNL     1      -4.508  11.573  16.424  0.00  0.00    +0.000 HD
ATOM     20  H   UNL     1      -6.152  11.205  15.920  0.00  0.00    +0.000 HD
ENDBRANCH  13  16
ENDBRANCH   8  11
ENDBRANCH   3   6
BRANCH   1  22
ATOM     21  C   UNL     1       1.783   5.345  20.615  0.00  0.00    +0.000 C 
ATOM     22  C   UNL     1       2.855   6.117  19.848  0.00  0.00    +0.000 C 
BRANCH  22  23
ATOM     23  N   UNL     1       3.398   5.323  18.755  0.00  0.00    +0.000 N 
ATOM     24  C   UNL     1       4.714   4.979  18.772  0.00  0.00    +0.000 C 
ATOM     25  O   UNL     1       5.474   5.332  19.663  0.00  0.00    +0.000 OA
ATOM     26  H   UNL     1       2.787   4.959  18.033  0.00  0.00    +0.000 HD
BRANCH  24  27
ATOM     27  O   UNL     1       5.063   4.215  17.702  0.00  0.00    +0.000 OA
BRANCH  27  28
ATOM     28  C   UNL     1       6.073   4.733  16.787  0.00  0.00    +0.000 C 
ATOM     29  C   UNL     1       7.490   4.593  17.366  0.00  0.00    +0.000 C 
ATOM     30  C   UNL     1       5.997   3.883  15.506  0.00  0.00    +0.000 C 
ATOM     31  C   UNL     1       5.760   6.187  16.395  0.00  0.00    +0.000 C 
ENDBRANCH  27  28
ENDBRANCH  24  27
ENDBRANCH  22  23
ENDBRANCH   1  22
TORSDOF 7
ENDMDL
MODEL 4
REMARK VINA RESULT:      -7.0      3.032     10.275
REMARK  Name = 
REMARK  11 active torsions:
REMARK  status: ('A' for Active; 'I' for Inactive)
REMARK    1  A    between atoms: C_1  and  C_2
REMARK    2  A    between atoms: C_2  and  N_3
REMARK    3  A    between atoms: C_2  and  C_11
REMARK    4  A    between atoms: C_4  and  O_6
REMARK    5  A    between atoms: O_6  and  C_7
REMARK    6  A    between atoms: C_7  and  C_8
REMARK    7  A    between atoms: C_7  and  C_9
REMARK    8  A    between atoms: C_7  and  C_10
REMARK    9  A    between atoms: C_13  and  C_14
REMARK   10  A    between atoms: C_16  and  C_17
REMARK   11  A    between atoms: C_19  and  C_20
REMARK                            x       y       z     vdW  Elec       q    Type
REMARK                         _______ _______ _______ _____ _____    ______ ____
ROOT
ATOM      1  C   UNL     1       2.352   7.404  19.231  0.00  0.00    +0.000 A 
ATOM      2  N   UNL     1       1.383   8.119  19.772  0.00  0.00    +0.000 NA
ATOM      3  C   UNL     1       1.112   9.223  18.969  0.00  0.00    +0.000 A 
ATOM      4  C   UNL     1       1.903   9.343  17.844  0.00  0.00    +0.000 A 
ATOM      5  S   UNL     1       2.996   8.034  17.756  0.00  0.00    +0.000 S 
ENDROOT
BRANCH   3   6
ATOM      6  C   UNL     1       0.034  10.224  19.284  0.00  0.00    +0.000 A 
ATOM      7  N   UNL     1      -1.077  10.301  18.577  0.00  0.00    +0.000 NA
ATOM      8  C   UNL     1      -1.896  11.295  19.093  0.00  0.00    +0.000 A 
ATOM      9  C   UNL     1      -1.375  11.977  20.174  0.00  0.00    +0.000 A 
ATOM     10  S   UNL     1       0.156  11.334  20.591  0.00  0.00    +0.000 S 
BRANCH   8  11
ATOM     11  C   UNL     1      -3.255  11.614  18.528  0.00  0.00    +0.000 A 
ATOM     12  N   UNL     1      -4.140  12.328  19.198  0.00  0.00    +0.000 NA
ATOM     13  C   UNL     1      -5.307  12.476  18.438  0.00  0.00    +0.000 A 
ATOM     14  C   UNL     1      -5.275  11.836  17.212  0.00  0.00    +0.000 A 
ATOM     15  S   UNL     1      -3.761  11.073  16.978  0.00  0.00    +0.000 S 
BRANCH  13  16
ATOM     16  C   UNL     1      -6.448  13.257  18.915  0.00  0.00    +0.000 C 
ATOM     17  N   UNL     1      -6.174  14.578  19.129  0.00  0.00    +0.000 N 
ATOM     18  O   UNL     1      -7.570  12.795  19.102  0.00  0.00    +0.000 OA
ATOM     19  H   UNL     1      -5.250  14.939  18.939  0.00  0.00    +0.000 HD
ATOM     20  H   UNL     1      -6.924  15.194  19.412  0.00  0.00    +0.000 HD
ENDBRANCH  13  16
ENDBRANCH   8  11
ENDBRANCH   3   6
BRANCH   1  22
ATOM     21  C   UNL     1       1.892   5.357  20.599  0.00  0.00    +0.000 C 
ATOM     22  C   UNL     1       2.932   6.127  19.788  0.00  0.00    +0.000 C 
BRANCH  22  23
ATOM     23  N   UNL     1       3.486   5.304  18.722  0.00  0.00    +0.000 N 
ATOM     24  C   UNL     1       4.798   4.946  18.771  0.00  0.00    +0.000 C 
ATOM     25  O   UNL     1       5.546   5.310  19.668  0.00  0.00    +0.000 OA
ATOM     26  H   UNL     1       2.886   4.932  17.997  0.00  0.00    +0.000 HD
BRANCH  24  27
ATOM     27  O   UNL     1       5.158   4.156  17.724  0.00  0.00    +0.000 OA
BRANCH  27  28
ATOM     28  C   UNL     1       6.146   4.670  16.783  0.00  0.00    +0.000 C 
ATOM     29  C   UNL     1       7.574   4.565  17.343  0.00  0.00    +0.000 C 
ATOM     30  C   UNL     1       6.066   3.791  15.522  0.00  0.00    +0.000 C 
ATOM     31  C   UNL     1       5.804   6.109  16.363  0.00  0.00    +0.000 C 
ENDBRANCH  27  28
ENDBRANCH  24  27
ENDBRANCH  22  23
ENDBRANCH   1  22
TORSDOF 7
ENDMDL
MODEL 5
REMARK VINA RESULT:      -6.9      1.939      3.467
REMARK  Name = 
REMARK  11 active torsions:
REMARK  status: ('A' for Active; 'I' for Inactive)
REMARK    1  A    between atoms: C_1  and  C_2
REMARK    2  A    between atoms: C_2  and  N_3
REMARK    3  A    between atoms: C_2  and  C_11
REMARK    4  A    between atoms: C_4  and  O_6
REMARK    5  A    between atoms: O_6  and  C_7
REMARK    6  A    between atoms: C_7  and  C_8
REMARK    7  A    between atoms: C_7  and  C_9
REMARK    8  A    between atoms: C_7  and  C_10
REMARK    9  A    between atoms: C_13  and  C_14
REMARK   10  A    between atoms: C_16  and  C_17
REMARK   11  A    between atoms: C_19  and  C_20
REMARK                            x       y       z     vdW  Elec       q    Type
REMARK                         _______ _______ _______ _____ _____    ______ ____
ROOT
ATOM      1  C   UNL     1       0.614  10.007  19.618  0.00  0.00    +0.000 A 
ATOM      2  N   UNL     1       1.366   9.052  19.101  0.00  0.00    +0.000 NA
ATOM      3  C   UNL     1       1.595   8.068  20.058  0.00  0.00    +0.000 A 
ATOM      4  C   UNL     1       1.037   8.308  21.297  0.00  0.00    +0.000 A 
ATOM      5  S   UNL     1       0.173   9.781  21.274  0.00  0.00    +0.000 S 
ENDROOT
BRANCH   3   6
ATOM      6  C   UNL     1       2.389   6.820  19.780  0.00  0.00    +0.000 A 
ATOM      7  N   UNL     1       3.475   6.834  19.031  0.00  0.00    +0.000 NA
ATOM      8  C   UNL     1       4.011   5.557  18.953  0.00  0.00    +0.000 A 
ATOM      9  C   UNL     1       3.300   4.585  19.629  0.00  0.00    +0.000 A 
ATOM     10  S   UNL     1       1.954   5.286  20.422  0.00  0.00    +0.000 S 
BRANCH   8  11
ATOM     11  C   UNL     1       5.273   5.241  18.196  0.00  0.00    +0.000 A 
ATOM     12  N   UNL     1       5.281   5.072  16.888  0.00  0.00    +0.000 NA
ATOM     13  C   UNL     1       6.582   4.798  16.449  0.00  0.00    +0.000 A 
ATOM     14  C   UNL     1       7.525   4.740  17.459  0.00  0.00    +0.000 A 
ATOM     15  S   UNL     1       6.797   5.071  18.973  0.00  0.00    +0.000 S 
BRANCH  13  16
ATOM     16  C   UNL     1       6.897   4.604  15.034  0.00  0.00    +0.000 C 
ATOM     17  N   UNL     1       6.279   3.529  14.463  0.00  0.00    +0.000 N 
ATOM     18  O   UNL     1       7.638   5.338  14.387  0.00  0.00    +0.000 OA
ATOM     19  H   UNL     1       5.651   2.958  15.010  0.00  0.00    +0.000 HD
ATOM     20  H   UNL     1       6.408   3.357  13.475  0.00  0.00    +0.000 HD
ENDBRANCH  13  16
ENDBRANCH   8  11
ENDBRANCH   3   6
BRANCH   1  22
ATOM     21  C   UNL     1      -1.383  11.242  18.746  0.00  0.00    +0.000 C 
ATOM     22  C   UNL     1       0.136  11.247  18.903  0.00  0.00    +0.000 C 
BRANCH  22  23
ATOM     23  N   UNL     1       0.593  12.447  19.590  0.00  0.00    +0.000 N 
ATOM     24  C   UNL     1       1.635  13.153  19.073  0.00  0.00    +0.000 C 
ATOM     25  O   UNL     1       2.227  12.807  18.060  0.00  0.00    +0.000 OA
ATOM     26  H   UNL     1       0.090  12.800  20.395  0.00  0.00    +0.000 HD
BRANCH  24  27
ATOM     27  O   UNL     1       1.924  14.260  19.809  0.00  0.00    +0.000 OA
BRANCH  27  28
ATOM     28  C   UNL     1       1.526  15.560  19.281  0.00  0.00    +0.000 C 
ATOM     29  C   UNL     1       0.084  15.542  18.751  0.00  0.00    +0.000 C 
ATOM     30  C   UNL     1       1.589  16.559  20.450  0.00  0.00    +0.000 C 
ATOM     31  C   UNL     1       2.520  16.041  18.210  0.00  0.00    +0.000 C 
ENDBRANCH  27  28
ENDBRANCH  24  27
ENDBRANCH  22  23
ENDBRANCH   1  22
TORSDOF 7
ENDMDL
MODEL 6
REMARK VINA RESULT:      -6.8      2.208      3.724
REMARK  Name = 
REMARK  11 active torsions:
REMARK  status: ('A' for Active; 'I' for Inactive)
REMARK    1  A    between atoms: C_1  and  C_2
REMARK    2  A    between atoms: C_2  and  N_3
REMARK    3  A    between atoms: C_2  and  C_11
REMARK    4  A    between atoms: C_4  and  O_6
REMARK    5  A    between atoms: O_6  and  C_7
REMARK    6  A    between atoms: C_7  and  C_8
REMARK    7  A    between atoms: C_7  and  C_9
REMARK    8  A    between atoms: C_7  and  C_10
REMARK    9  A    between atoms: C_13  and  C_14
REMARK   10  A    between atoms: C_16  and  C_17
REMARK   11  A    between atoms: C_19  and  C_20
REMARK                            x       y       z     vdW  Elec       q    Type
REMARK                         _______ _______ _______ _____ _____    ______ ____
ROOT
ATOM      1  C   UNL     1       0.669  10.114  19.884  0.00  0.00    +0.000 A 
ATOM      2  N   UNL     1       1.440   9.184  19.351  0.00  0.00    +0.000 NA
ATOM      3  C   UNL     1       1.522   8.094  20.213  0.00  0.00    +0.000 A 
ATOM      4  C   UNL     1       0.834   8.229  21.402  0.00  0.00    +0.000 A 
ATOM      5  S   UNL     1       0.033   9.737  21.446  0.00  0.00    +0.000 S 
ENDROOT
BRANCH   3   6
ATOM      6  C   UNL     1       2.296   6.846  19.888  0.00  0.00    +0.000 A 
ATOM      7  N   UNL     1       3.379   6.870  19.135  0.00  0.00    +0.000 NA
ATOM      8  C   UNL     1       3.896   5.589  19.010  0.00  0.00    +0.000 A 
ATOM      9  C   UNL     1       3.174   4.604  19.655  0.00  0.00    +0.000 A 
ATOM     10  S   UNL     1       1.841   5.297  20.478  0.00  0.00    +0.000 S 
BRANCH   8  11
ATOM     11  C   UNL     1       5.150   5.281  18.238  0.00  0.00    +0.000 A 
ATOM     12  N   UNL     1       5.130   5.033  16.942  0.00  0.00    +0.000 NA
ATOM     13  C   UNL     1       6.430   4.788  16.482  0.00  0.00    +0.000 A 
ATOM     14  C   UNL     1       7.402   4.832  17.467  0.00  0.00    +0.000 A 
ATOM     15  S   UNL     1       6.700   5.223  18.978  0.00  0.00    +0.000 S 
BRANCH  13  16
ATOM     16  C   UNL     1       6.716   4.523  15.073  0.00  0.00    +0.000 C 
ATOM     17  N   UNL     1       7.626   5.373  14.515  0.00  0.00    +0.000 N 
ATOM     18  O   UNL     1       6.206   3.612  14.426  0.00  0.00    +0.000 OA
ATOM     19  H   UNL     1       8.053   6.096  15.076  0.00  0.00    +0.000 HD
ATOM     20  H   UNL     1       7.913   5.224  13.556  0.00  0.00    +0.000 HD
ENDBRANCH  13  16
ENDBRANCH   8  11
ENDBRANCH   3   6
BRANCH   1  22
ATOM     21  C   UNL     1      -1.136  11.813  19.524  0.00  0.00    +0.000 C 
ATOM     22  C   UNL     1       0.322  11.445  19.262  0.00  0.00    +0.000 C 
BRANCH  22  23
ATOM     23  N   UNL     1       1.223  12.486  19.736  0.00  0.00    +0.000 N 
ATOM     24  C   UNL     1       2.276  12.859  18.959  0.00  0.00    +0.000 C 
ATOM     25  O   UNL     1       2.516  12.336  17.880  0.00  0.00    +0.000 OA
ATOM     26  H   UNL     1       1.023  12.987  20.593  0.00  0.00    +0.000 HD
BRANCH  24  27
ATOM     27  O   UNL     1       3.005  13.860  19.522  0.00  0.00    +0.000 OA
BRANCH  27  28
ATOM     28  C   UNL     1       2.785  15.221  19.050  0.00  0.00    +0.000 C 
ATOM     29  C   UNL     1       3.357  16.262  20.026  0.00  0.00    +0.000 C 
ATOM     30  C   UNL     1       3.539  15.361  17.714  0.00  0.00    +0.000 C 
ATOM     31  C   UNL     1       1.294  15.466  18.765  0.00  0.00    +0.000 C 
ENDBRANCH  27  28
ENDBRANCH  24  27
ENDBRANCH  22  23
ENDBRANCH   1  22
TORSDOF 7
ENDMDL
MODEL 7
REMARK VINA RESULT:      -6.8      3.243      9.430
REMARK  Name = 
REMARK  11 active torsions:
REMARK  status: ('A' for Active; 'I' for Inactive)
REMARK    1  A    between atoms: C_1  and  C_2
REMARK    2  A    between atoms: C_2  and  N_3
REMARK    3  A    between atoms: C_2  and  C_11
REMARK    4  A    between atoms: C_4  and  O_6
REMARK    5  A    between atoms: O_6  and  C_7
REMARK    6  A    between atoms: C_7  and  C_8
REMARK    7  A    between atoms: C_7  and  C_9
REMARK    8  A    between atoms: C_7  and  C_10
REMARK    9  A    between atoms: C_13  and  C_14
REMARK   10  A    between atoms: C_16  and  C_17
REMARK   11  A    between atoms: C_19  and  C_20
REMARK                            x       y       z     vdW  Elec       q    Type
REMARK                         _______ _______ _______ _____ _____    ______ ____
ROOT
ATOM      1  C   UNL     1       3.559   4.529  19.979  0.00  0.00    +0.000 A 
ATOM      2  N   UNL     1       3.516   5.724  19.420  0.00  0.00    +0.000 NA
ATOM      3  C   UNL     1       2.350   6.378  19.805  0.00  0.00    +0.000 A 
ATOM      4  C   UNL     1       1.510   5.655  20.627  0.00  0.00    +0.000 A 
ATOM      5  S   UNL     1       2.197   4.128  20.965  0.00  0.00    +0.000 S 
ENDROOT
BRANCH   3   6
ATOM      6  C   UNL     1       2.010   7.779  19.369  0.00  0.00    +0.000 A 
ATOM      7  N   UNL     1       1.466   8.654  20.192  0.00  0.00    +0.000 NA
ATOM      8  C   UNL     1       1.274   9.862  19.536  0.00  0.00    +0.000 A 
ATOM      9  C   UNL     1       1.655   9.871  18.209  0.00  0.00    +0.000 A 
ATOM     10  S   UNL     1       2.314   8.350  17.777  0.00  0.00    +0.000 S 
BRANCH   8  11
ATOM     11  C   UNL     1       0.699  11.079  20.209  0.00  0.00    +0.000 A 
ATOM     12  N   UNL     1      -0.194  10.987  21.177  0.00  0.00    +0.000 NA
ATOM     13  C   UNL     1      -0.548  12.267  21.623  0.00  0.00    +0.000 A 
ATOM     14  C   UNL     1       0.077  13.300  20.948  0.00  0.00    +0.000 A 
ATOM     15  S   UNL     1       1.151  12.677  19.770  0.00  0.00    +0.000 S 
BRANCH  13  16
ATOM     16  C   UNL     1      -1.492  12.470  22.721  0.00  0.00    +0.000 C 
ATOM     17  N   UNL     1      -1.877  11.321  23.351  0.00  0.00    +0.000 N 
ATOM     18  O   UNL     1      -1.909  13.568  23.076  0.00  0.00    +0.000 OA
ATOM     19  H   UNL     1      -1.496  10.433  23.058  0.00  0.00    +0.000 HD
ATOM     20  H   UNL     1      -2.491  11.383  24.152  0.00  0.00    +0.000 HD
ENDBRANCH  13  16
ENDBRANCH   8  11
ENDBRANCH   3   6
BRANCH   1  22
ATOM     21  C   UNL     1       4.131   2.090  19.978  0.00  0.00    +0.000 C 
ATOM     22  C   UNL     1       4.664   3.513  19.819  0.00  0.00    +0.000 C 
BRANCH  22  23
ATOM     23  N   UNL     1       5.341   3.684  18.542  0.00  0.00    +0.000 N 
ATOM     24  C   UNL     1       6.467   4.446  18.482  0.00  0.00    +0.000 C 
ATOM     25  O   UNL     1       6.925   5.020  19.460  0.00  0.00    +0.000 OA
ATOM     26  H   UNL     1       5.029   3.175  17.724  0.00  0.00    +0.000 HD
BRANCH  24  27
ATOM     27  O   UNL     1       6.999   4.486  17.231  0.00  0.00    +0.000 OA
BRANCH  27  28
ATOM     28  C   UNL     1       6.671   5.623  16.380  0.00  0.00    +0.000 C 
ATOM     29  C   UNL     1       7.343   6.915  16.872  0.00  0.00    +0.000 C 
ATOM     30  C   UNL     1       7.219   5.308  14.977  0.00  0.00    +0.000 C 
ATOM     31  C   UNL     1       5.147   5.788  16.252  0.00  0.00    +0.000 C 
ENDBRANCH  27  28
ENDBRANCH  24  27
ENDBRANCH  22  23
ENDBRANCH   1  22
TORSDOF 7
ENDMDL
MODEL 8
REMARK VINA RESULT:      -6.8      2.679      9.410
REMARK  Name = 
REMARK  11 active torsions:
REMARK  status: ('A' for Active; 'I' for Inactive)
REMARK    1  A    between atoms: C_1  and  C_2
REMARK    2  A    between atoms: C_2  and  N_3
REMARK    3  A    between atoms: C_2  and  C_11
REMARK    4  A    between atoms: C_4  and  O_6
REMARK    5  A    between atoms: O_6  and  C_7
REMARK    6  A    between atoms: C_7  and  C_8
REMARK    7  A    between atoms: C_7  and  C_9
REMARK    8  A    between atoms: C_7  and  C_10
REMARK    9  A    between atoms: C_13  and  C_14
REMARK   10  A    between atoms: C_16  and  C_17
REMARK   11  A    between atoms: C_19  and  C_20
REMARK                            x       y       z     vdW  Elec       q    Type
REMARK                         _______ _______ _______ _____ _____    ______ ____
ROOT
ATOM      1  C   UNL     1       3.514   4.572  20.057  0.00  0.00    +0.000 A 
ATOM      2  N   UNL     1       3.480   5.741  19.444  0.00  0.00    +0.000 NA
ATOM      3  C   UNL     1       2.316   6.419  19.794  0.00  0.00    +0.000 A 
ATOM      4  C   UNL     1       1.469   5.738  20.645  0.00  0.00    +0.000 A 
ATOM      5  S   UNL     1       2.146   4.224  21.055  0.00  0.00    +0.000 S 
ENDROOT
BRANCH   3   6
ATOM      6  C   UNL     1       1.986   7.799  19.294  0.00  0.00    +0.000 A 
ATOM      7  N   UNL     1       1.251   8.640  19.996  0.00  0.00    +0.000 NA
ATOM      8  C   UNL     1       1.118   9.838  19.307  0.00  0.00    +0.000 A 
ATOM      9  C   UNL     1       1.737   9.873  18.074  0.00  0.00    +0.000 A 
ATOM     10  S   UNL     1       2.548   8.393  17.782  0.00  0.00    +0.000 S 
BRANCH   8  11
ATOM     11  C   UNL     1       0.361  11.019  19.854  0.00  0.00    +0.000 A 
ATOM     12  N   UNL     1      -0.950  11.120  19.747  0.00  0.00    +0.000 NA
ATOM     13  C   UNL     1      -1.388  12.308  20.344  0.00  0.00    +0.000 A 
ATOM     14  C   UNL     1      -0.375  13.091  20.867  0.00  0.00    +0.000 A 
ATOM     15  S   UNL     1       1.141  12.326  20.651  0.00  0.00    +0.000 S 
BRANCH  13  16
ATOM     16  C   UNL     1      -2.805  12.665  20.411  0.00  0.00    +0.000 C 
ATOM     17  N   UNL     1      -3.133  13.465  21.466  0.00  0.00    +0.000 N 
ATOM     18  O   UNL     1      -3.645  12.301  19.593  0.00  0.00    +0.000 OA
ATOM     19  H   UNL     1      -2.417  13.774  22.108  0.00  0.00    +0.000 HD
ATOM     20  H   UNL     1      -4.085  13.795  21.554  0.00  0.00    +0.000 HD
ENDBRANCH  13  16
ENDBRANCH   8  11
ENDBRANCH   3   6
BRANCH   1  22
ATOM     21  C   UNL     1       4.058   2.127  20.085  0.00  0.00    +0.000 C 
ATOM     22  C   UNL     1       4.613   3.543  19.948  0.00  0.00    +0.000 C 
BRANCH  22  23
ATOM     23  N   UNL     1       5.348   3.705  18.702  0.00  0.00    +0.000 N 
ATOM     24  C   UNL     1       6.444   4.511  18.675  0.00  0.00    +0.000 C 
ATOM     25  O   UNL     1       6.827   5.133  19.656  0.00  0.00    +0.000 OA
ATOM     26  H   UNL     1       5.100   3.158  17.885  0.00  0.00    +0.000 HD
BRANCH  24  27
ATOM     27  O   UNL     1       7.038   4.536  17.452  0.00  0.00    +0.000 OA
BRANCH  27  28
ATOM     28  C   UNL     1       6.696   5.623  16.543  0.00  0.00    +0.000 C 
ATOM     29  C   UNL     1       7.376   6.941  16.950  0.00  0.00    +0.000 C 
ATOM     30  C   UNL     1       7.223   5.228  15.151  0.00  0.00    +0.000 C 
ATOM     31  C   UNL     1       5.171   5.781  16.430  0.00  0.00    +0.000 C 
ENDBRANCH  27  28
ENDBRANCH  24  27
ENDBRANCH  22  23
ENDBRANCH   1  22
TORSDOF 7
ENDMDL
MODEL 9
REMARK VINA RESULT:      -6.7      3.536     10.400
REMARK  Name = 
REMARK  11 active torsions:
REMARK  status: ('A' for Active; 'I' for Inactive)
REMARK    1  A    between atoms: C_1  and  C_2
REMARK    2  A    between atoms: C_2  and  N_3
REMARK    3  A    between atoms: C_2  and  C_11
REMARK    4  A    between atoms: C_4  and  O_6
REMARK    5  A    between atoms: O_6  and  C_7
REMARK    6  A    between atoms: C_7  and  C_8
REMARK    7  A    between atoms: C_7  and  C_9
REMARK    8  A    between atoms: C_7  and  C_10
REMARK    9  A    between atoms: C_13  and  C_14
REMARK   10  A    between atoms: C_16  and  C_17
REMARK   11  A    between atoms: C_19  and  C_20
REMARK                            x       y       z     vdW  Elec       q    Type
REMARK                         _______ _______ _______ _____ _____    ______ ____
ROOT
ATOM      1  C   UNL     1       2.230   7.135  19.754  0.00  0.00    +0.000 A 
ATOM      2  N   UNL     1       1.566   7.668  20.763  0.00  0.00    +0.000 NA
ATOM      3  C   UNL     1       1.039   8.897  20.377  0.00  0.00    +0.000 A 
ATOM      4  C   UNL     1       1.339   9.291  19.089  0.00  0.00    +0.000 A 
ATOM      5  S   UNL     1       2.275   8.091  18.314  0.00  0.00    +0.000 S 
ENDROOT
BRANCH   3   6
ATOM      6  C   UNL     1       0.195   9.751  21.285  0.00  0.00    +0.000 A 
ATOM      7  N   UNL     1      -0.482  10.791  20.838  0.00  0.00    +0.000 NA
ATOM      8  C   UNL     1      -1.179  11.384  21.881  0.00  0.00    +0.000 A 
ATOM      9  C   UNL     1      -0.995  10.793  23.115  0.00  0.00    +0.000 A 
ATOM     10  S   UNL     1       0.037   9.434  22.967  0.00  0.00    +0.000 S 
BRANCH   8  11
ATOM     11  C   UNL     1      -2.076  12.579  21.694  0.00  0.00    +0.000 A 
ATOM     12  N   UNL     1      -3.088  12.827  22.504  0.00  0.00    +0.000 NA
ATOM     13  C   UNL     1      -3.743  13.998  22.103  0.00  0.00    +0.000 A 
ATOM     14  C   UNL     1      -3.214  14.590  20.971  0.00  0.00    +0.000 A 
ATOM     15  S   UNL     1      -1.857  13.706  20.416  0.00  0.00    +0.000 S 
BRANCH  13  16
ATOM     16  C   UNL     1      -4.882  14.539  22.844  0.00  0.00    +0.000 C 
ATOM     17  N   UNL     1      -4.785  14.407  24.199  0.00  0.00    +0.000 N 
ATOM     18  O   UNL     1      -5.849  15.083  22.318  0.00  0.00    +0.000 OA
ATOM     19  H   UNL     1      -3.965  13.981  24.608  0.00  0.00    +0.000 HD
ATOM     20  H   UNL     1      -5.511  14.800  24.783  0.00  0.00    +0.000 HD
ENDBRANCH  13  16
ENDBRANCH   8  11
ENDBRANCH   3   6
BRANCH   1  22
ATOM     21  C   UNL     1       2.127   4.747  20.504  0.00  0.00    +0.000 C 
ATOM     22  C   UNL     1       2.943   5.804  19.763  0.00  0.00    +0.000 C 
BRANCH  22  23
ATOM     23  N   UNL     1       3.254   5.377  18.406  0.00  0.00    +0.000 N 
ATOM     24  C   UNL     1       4.406   4.693  18.171  0.00  0.00    +0.000 C 
ATOM     25  O   UNL     1       5.213   4.441  19.055  0.00  0.00    +0.000 OA
ATOM     26  H   UNL     1       2.582   5.511  17.659  0.00  0.00    +0.000 HD
BRANCH  24  27
ATOM     27  O   UNL     1       4.540   4.339  16.865  0.00  0.00    +0.000 OA
BRANCH  27  28
ATOM     28  C   UNL     1       5.560   5.012  16.070  0.00  0.00    +0.000 C 
ATOM     29  C   UNL     1       6.977   4.698  16.579  0.00  0.00    +0.000 C 
ATOM     30  C   UNL     1       5.442   4.472  14.634  0.00  0.00    +0.000 C 
ATOM     31  C   UNL     1       5.298   6.527  16.015  0.00  0.00    +0.000 C 
ENDBRANCH  27  28
ENDBRANCH  24  27
ENDBRANCH  22  23
ENDBRANCH   1  22
TORSDOF 7
ENDMDL
