MODEL 1
REMARK VINA RESULT:      -7.1      0.000      0.000
REMARK  Name = 
REMARK  5 active torsions:
REMARK  status: ('A' for Active; 'I' for Inactive)
REMARK    1  A    between atoms: C_1  and  C_2
REMARK    2  A    between atoms: C_2  and  C_3
REMARK    3  A    between atoms: C_2  and  C_4
REMARK    4  A    between atoms: C_2  and  N_5
REMARK    5  A    between atoms: C_17  and  C_19
REMARK                            x       y       z     vdW  Elec       q    Type
REMARK                         _______ _______ _______ _____ _____    ______ ____
ROOT
ATOM      1  N   UNL     1       1.110  12.851  20.210  0.00  0.00    +0.000 N 
ATOM      2  N   UNL     1       1.027  11.688  19.507  0.00  0.00    +0.000 NA
ATOM      3  C   UNL     1       0.089  10.968  20.115  0.00  0.00    +0.000 A 
ATOM      4  C   UNL     1      -0.430  11.635  21.221  0.00  0.00    +0.000 A 
ATOM      5  C   UNL     1       0.234  12.836  21.295  0.00  0.00    +0.000 A 
ATOM      6  C   UNL     1      -0.042  13.836  22.311  0.00  0.00    +0.000 C 
ATOM      7  O   UNL     1       0.594  14.858  22.529  0.00  0.00    +0.000 OA
ATOM      8  N   UNL     1      -1.173  13.554  23.083  0.00  0.00    +0.000 N 
ATOM      9  C   UNL     1      -2.228  12.593  22.640  0.00  0.00    +0.000 C 
ATOM     10  C   UNL     1      -2.949  13.222  21.423  0.00  0.00    +0.000 C 
ATOM     11  C   UNL     1      -3.926  14.252  21.929  0.00  0.00    +0.000 C 
ATOM     12  N   UNL     1      -4.991  13.522  22.564  0.00  0.00    +0.000 N 
ATOM     13  C   UNL     1      -6.075  12.837  21.899  0.00  0.00    +0.000 C 
ATOM     14  O   UNL     1      -6.789  12.028  22.485  0.00  0.00    +0.000 OA
ATOM     15  C   UNL     1      -4.583  13.033  23.858  0.00  0.00    +0.000 C 
ATOM     16  C   UNL     1      -3.233  12.256  23.803  0.00  0.00    +0.000 C 
ATOM     17  C   UNL     1      -1.524  11.280  22.169  0.00  0.00    +0.000 C 
ATOM     18  H   UNL     1      -1.410  14.308  23.717  0.00  0.00    +0.000 HD
ENDROOT
BRANCH  13  19
ATOM     19  C   UNL     1      -6.340  12.983  20.414  0.00  0.00    +0.000 A 
ATOM     20  C   UNL     1      -6.211  11.881  19.531  0.00  0.00    +0.000 A 
ATOM     21  C   UNL     1      -6.784  11.790  18.258  0.00  0.00    +0.000 A 
ATOM     22  C   UNL     1      -6.841  13.041  17.670  0.00  0.00    +0.000 A 
ATOM     23  N   UNL     1      -6.920  13.382  16.376  0.00  0.00    +0.000 NA
ATOM     24  N   UNL     1      -6.792  14.720  16.383  0.00  0.00    +0.000 N 
ATOM     25  C   UNL     1      -6.882  15.278  17.630  0.00  0.00    +0.000 A 
ATOM     26  C   UNL     1      -6.820  14.228  18.492  0.00  0.00    +0.000 A 
ATOM     27  C   UNL     1      -6.740  14.256  19.888  0.00  0.00    +0.000 A 
ATOM     28  H   UNL     1      -6.644  15.184  15.493  0.00  0.00    +0.000 HD
ENDBRANCH  13  19
BRANCH   1  30
ATOM     29  C   UNL     1       2.726  13.441  18.391  0.00  0.00    +0.000 C 
ATOM     30  C   UNL     1       2.038  13.890  19.720  0.00  0.00    +0.000 C 
ATOM     31  C   UNL     1       3.162  14.134  20.737  0.00  0.00    +0.000 C 
ATOM     32  C   UNL     1       1.307  15.207  19.379  0.00  0.00    +0.000 C 
ENDBRANCH   1  30
TORSDOF 2
ENDMDL
MODEL 2
REMARK VINA RESULT:      -7.0      5.135      9.497
REMARK  Name = 
REMARK  5 active torsions:
REMARK  status: ('A' for Active; 'I' for Inactive)
REMARK    1  A    between atoms: C_1  and  C_2
REMARK    2  A    between atoms: C_2  and  C_3
REMARK    3  A    between atoms: C_2  and  C_4
REMARK    4  A    between atoms: C_2  and  N_5
REMARK    5  A    between atoms: C_17  and  C_19
REMARK                            x       y       z     vdW  Elec       q    Type
REMARK                         _______ _______ _______ _____ _____    ______ ____
ROOT
ATOM      1  N   UNL     1       0.980   9.736  20.127  0.00  0.00    +0.000 N 
ATOM      2  N   UNL     1       1.340   9.264  18.902  0.00  0.00    +0.000 NA
ATOM      3  C   UNL     1       1.341  10.324  18.097  0.00  0.00    +0.000 A 
ATOM      4  C   UNL     1       0.966  11.480  18.776  0.00  0.00    +0.000 A 
ATOM      5  C   UNL     1       0.717  11.104  20.074  0.00  0.00    +0.000 A 
ATOM      6  C   UNL     1       0.319  12.039  21.111  0.00  0.00    +0.000 C 
ATOM      7  O   UNL     1      -0.054  11.767  22.244  0.00  0.00    +0.000 OA
ATOM      8  N   UNL     1       0.402  13.379  20.720  0.00  0.00    +0.000 N 
ATOM      9  C   UNL     1       1.220  13.825  19.552  0.00  0.00    +0.000 C 
ATOM     10  C   UNL     1       2.708  13.615  19.919  0.00  0.00    +0.000 C 
ATOM     11  C   UNL     1       3.143  14.749  20.813  0.00  0.00    +0.000 C 
ATOM     12  N   UNL     1       3.202  15.921  19.980  0.00  0.00    +0.000 N 
ATOM     13  C   UNL     1       4.257  16.261  19.055  0.00  0.00    +0.000 C 
ATOM     14  O   UNL     1       4.116  17.131  18.200  0.00  0.00    +0.000 OA
ATOM     15  C   UNL     1       1.879  16.426  19.704  0.00  0.00    +0.000 C 
ATOM     16  C   UNL     1       0.919  15.321  19.168  0.00  0.00    +0.000 C 
ATOM     17  C   UNL     1       0.879  12.902  18.337  0.00  0.00    +0.000 C 
ATOM     18  H   UNL     1       0.218  14.020  21.483  0.00  0.00    +0.000 HD
ENDROOT
BRANCH  13  19
ATOM     19  C   UNL     1       5.568  15.501  19.000  0.00  0.00    +0.000 A 
ATOM     20  C   UNL     1       6.604  15.754  19.935  0.00  0.00    +0.000 A 
ATOM     21  C   UNL     1       7.662  14.886  20.227  0.00  0.00    +0.000 A 
ATOM     22  C   UNL     1       8.017  14.168  19.098  0.00  0.00    +0.000 A 
ATOM     23  N   UNL     1       9.170  13.557  18.794  0.00  0.00    +0.000 NA
ATOM     24  N   UNL     1       9.001  13.157  17.522  0.00  0.00    +0.000 N 
ATOM     25  C   UNL     1       7.711  13.263  17.075  0.00  0.00    +0.000 A 
ATOM     26  C   UNL     1       7.068  13.994  18.024  0.00  0.00    +0.000 A 
ATOM     27  C   UNL     1       5.764  14.499  17.994  0.00  0.00    +0.000 A 
ATOM     28  H   UNL     1       9.817  12.823  17.020  0.00  0.00    +0.000 HD
ENDBRANCH  13  19
BRANCH   1  30
ATOM     29  C   UNL     1       1.549   7.399  20.828  0.00  0.00    +0.000 C 
ATOM     30  C   UNL     1       0.957   8.782  21.254  0.00  0.00    +0.000 C 
ATOM     31  C   UNL     1      -0.485   8.520  21.712  0.00  0.00    +0.000 C 
ATOM     32  C   UNL     1       1.833   9.256  22.434  0.00  0.00    +0.000 C 
ENDBRANCH   1  30
TORSDOF 2
ENDMDL
MODEL 3
REMARK VINA RESULT:      -7.0      5.082      9.496
REMARK  Name = 
REMARK  5 active torsions:
REMARK  status: ('A' for Active; 'I' for Inactive)
REMARK    1  A    between atoms: C_1  and  C_2
REMARK    2  A    between atoms: C_2  and  C_3
REMARK    3  A    between atoms: C_2  and  C_4
REMARK    4  A    between atoms: C_2  and  N_5
REMARK    5  A    between atoms: C_17  and  C_19
REMARK                            x       y       z     vdW  Elec       q    Type
REMARK                         _______ _______ _______ _____ _____    ______ ____
ROOT
ATOM      1  N   UNL     1       0.899   9.756  20.192  0.00  0.00    +0.000 N 
ATOM      2  N   UNL     1       1.257   9.300  18.959  0.00  0.00    +0.000 NA
ATOM      3  C   UNL     1       1.254  10.370  18.168  0.00  0.00    +0.000 A 
ATOM      4  C   UNL     1       0.880  11.517  18.863  0.00  0.00    +0.000 A 
ATOM      5  C   UNL     1       0.635  11.125  20.156  0.00  0.00    +0.000 A 
ATOM      6  C   UNL     1       0.239  12.046  21.206  0.00  0.00    +0.000 C 
ATOM      7  O   UNL     1      -0.130  11.760  22.336  0.00  0.00    +0.000 OA
ATOM      8  N   UNL     1       0.320  13.391  20.832  0.00  0.00    +0.000 N 
ATOM      9  C   UNL     1       1.134  13.852  19.667  0.00  0.00    +0.000 C 
ATOM     10  C   UNL     1       2.624  13.639  20.027  0.00  0.00    +0.000 C 
ATOM     11  C   UNL     1       3.060  14.762  20.934  0.00  0.00    +0.000 C 
ATOM     12  N   UNL     1       3.115  15.945  20.116  0.00  0.00    +0.000 N 
ATOM     13  C   UNL     1       4.167  16.298  19.192  0.00  0.00    +0.000 C 
ATOM     14  O   UNL     1       4.023  17.178  18.348  0.00  0.00    +0.000 OA
ATOM     15  C   UNL     1       1.791  16.452  19.850  0.00  0.00    +0.000 C 
ATOM     16  C   UNL     1       0.830  15.353  19.303  0.00  0.00    +0.000 C 
ATOM     17  C   UNL     1       0.791  12.944  18.442  0.00  0.00    +0.000 C 
ATOM     18  H   UNL     1       0.137  14.022  21.603  0.00  0.00    +0.000 HD
ENDROOT
BRANCH  13  19
ATOM     19  C   UNL     1       5.478  15.540  19.124  0.00  0.00    +0.000 A 
ATOM     20  C   UNL     1       5.800  14.724  18.010  0.00  0.00    +0.000 A 
ATOM     21  C   UNL     1       7.087  14.303  17.657  0.00  0.00    +0.000 A 
ATOM     22  C   UNL     1       7.858  14.121  18.792  0.00  0.00    +0.000 A 
ATOM     23  N   UNL     1       8.955  13.375  18.976  0.00  0.00    +0.000 NA
ATOM     24  N   UNL     1       9.186  13.455  20.298  0.00  0.00    +0.000 N 
ATOM     25  C   UNL     1       8.439  14.412  20.933  0.00  0.00    +0.000 A 
ATOM     26  C   UNL     1       7.508  14.796  20.019  0.00  0.00    +0.000 A 
ATOM     27  C   UNL     1       6.420  15.655  20.200  0.00  0.00    +0.000 A 
ATOM     28  H   UNL     1       9.870  12.822  20.697  0.00  0.00    +0.000 HD
ENDBRANCH  13  19
BRANCH   1  30
ATOM     29  C   UNL     1       1.482   7.415  20.864  0.00  0.00    +0.000 C 
ATOM     30  C   UNL     1       0.881   8.788  21.307  0.00  0.00    +0.000 C 
ATOM     31  C   UNL     1      -0.560   8.512  21.759  0.00  0.00    +0.000 C 
ATOM     32  C   UNL     1       1.752   9.253  22.494  0.00  0.00    +0.000 C 
ENDBRANCH   1  30
TORSDOF 2
ENDMDL
MODEL 4
REMARK VINA RESULT:      -6.9      3.255      4.265
REMARK  Name = 
REMARK  5 active torsions:
REMARK  status: ('A' for Active; 'I' for Inactive)
REMARK    1  A    between atoms: C_1  and  C_2
REMARK    2  A    between atoms: C_2  and  C_3
REMARK    3  A    between atoms: C_2  and  C_4
REMARK    4  A    between atoms: C_2  and  N_5
REMARK    5  A    between atoms: C_17  and  C_19
REMARK                            x       y       z     vdW  Elec       q    Type
REMARK                         _______ _______ _______ _____ _____    ______ ____
ROOT
ATOM      1  N   UNL     1      -1.798  15.739  23.772  0.00  0.00    +0.000 N 
ATOM      2  N   UNL     1      -0.866  14.762  23.593  0.00  0.00    +0.000 NA
ATOM      3  C   UNL     1      -1.518  13.613  23.753  0.00  0.00    +0.000 A 
ATOM      4  C   UNL     1      -2.860  13.825  24.054  0.00  0.00    +0.000 A 
ATOM      5  C   UNL     1      -3.040  15.187  24.084  0.00  0.00    +0.000 A 
ATOM      6  C   UNL     1      -4.323  15.815  24.345  0.00  0.00    +0.000 C 
ATOM      7  O   UNL     1      -4.537  17.005  24.526  0.00  0.00    +0.000 OA
ATOM      8  N   UNL     1      -5.393  14.915  24.368  0.00  0.00    +0.000 N 
ATOM      9  C   UNL     1      -5.310  13.553  23.758  0.00  0.00    +0.000 C 
ATOM     10  C   UNL     1      -5.215  13.735  22.224  0.00  0.00    +0.000 C 
ATOM     11  C   UNL     1      -6.596  14.024  21.692  0.00  0.00    +0.000 C 
ATOM     12  N   UNL     1      -7.337  12.796  21.803  0.00  0.00    +0.000 N 
ATOM     13  C   UNL     1      -7.246  11.658  20.917  0.00  0.00    +0.000 C 
ATOM     14  O   UNL     1      -7.708  10.561  21.219  0.00  0.00    +0.000 OA
ATOM     15  C   UNL     1      -7.734  12.552  23.168  0.00  0.00    +0.000 C 
ATOM     16  C   UNL     1      -6.539  12.658  24.164  0.00  0.00    +0.000 C 
ATOM     17  C   UNL     1      -3.992  12.876  24.255  0.00  0.00    +0.000 C 
ATOM     18  H   UNL     1      -6.291  15.378  24.451  0.00  0.00    +0.000 HD
ENDROOT
BRANCH  13  19
ATOM     19  C   UNL     1      -6.484  11.706  19.608  0.00  0.00    +0.000 A 
ATOM     20  C   UNL     1      -7.121  12.089  18.400  0.00  0.00    +0.000 A 
ATOM     21  C   UNL     1      -6.469  12.537  17.246  0.00  0.00    +0.000 A 
ATOM     22  C   UNL     1      -5.241  11.912  17.119  0.00  0.00    +0.000 A 
ATOM     23  N   UNL     1      -4.483  11.715  16.031  0.00  0.00    +0.000 NA
ATOM     24  N   UNL     1      -3.484  10.929  16.467  0.00  0.00    +0.000 N 
ATOM     25  C   UNL     1      -3.426  10.814  17.830  0.00  0.00    +0.000 A 
ATOM     26  C   UNL     1      -4.590  11.353  18.280  0.00  0.00    +0.000 A 
ATOM     27  C   UNL     1      -5.091  11.369  19.586  0.00  0.00    +0.000 A 
ATOM     28  H   UNL     1      -2.880  10.504  15.772  0.00  0.00    +0.000 HD
ENDBRANCH  13  19
BRANCH   1  30
ATOM     29  C   UNL     1       0.133  17.217  23.174  0.00  0.00    +0.000 C 
ATOM     30  C   UNL     1      -1.373  17.141  23.586  0.00  0.00    +0.000 C 
ATOM     31  C   UNL     1      -1.510  17.925  24.899  0.00  0.00    +0.000 C 
ATOM     32  C   UNL     1      -2.146  17.836  22.444  0.00  0.00    +0.000 C 
ENDBRANCH   1  30
TORSDOF 2
ENDMDL
MODEL 5
REMARK VINA RESULT:      -6.9      4.758      7.472
REMARK  Name = 
REMARK  5 active torsions:
REMARK  status: ('A' for Active; 'I' for Inactive)
REMARK    1  A    between atoms: C_1  and  C_2
REMARK    2  A    between atoms: C_2  and  C_3
REMARK    3  A    between atoms: C_2  and  C_4
REMARK    4  A    between atoms: C_2  and  N_5
REMARK    5  A    between atoms: C_17  and  C_19
REMARK                            x       y       z     vdW  Elec       q    Type
REMARK                         _______ _______ _______ _____ _____    ______ ____
ROOT
ATOM      1  N   UNL     1       5.869  15.186  20.171  0.00  0.00    +0.000 N 
ATOM      2  N   UNL     1       6.205  14.571  21.338  0.00  0.00    +0.000 NA
ATOM      3  C   UNL     1       5.052  14.294  21.941  0.00  0.00    +0.000 A 
ATOM      4  C   UNL     1       3.965  14.738  21.192  0.00  0.00    +0.000 A 
ATOM      5  C   UNL     1       4.486  15.326  20.065  0.00  0.00    +0.000 A 
ATOM      6  C   UNL     1       3.664  15.897  19.013  0.00  0.00    +0.000 C 
ATOM      7  O   UNL     1       4.046  16.556  18.056  0.00  0.00    +0.000 OA
ATOM      8  N   UNL     1       2.300  15.622  19.155  0.00  0.00    +0.000 N 
ATOM      9  C   UNL     1       1.791  14.511  20.015  0.00  0.00    +0.000 C 
ATOM     10  C   UNL     1       2.212  13.178  19.351  0.00  0.00    +0.000 C 
ATOM     11  C   UNL     1       1.266  12.895  18.212  0.00  0.00    +0.000 C 
ATOM     12  N   UNL     1       0.004  12.546  18.810  0.00  0.00    +0.000 N 
ATOM     13  C   UNL     1      -0.342  11.274  19.399  0.00  0.00    +0.000 C 
ATOM     14  O   UNL     1      -1.331  11.136  20.113  0.00  0.00    +0.000 OA
ATOM     15  C   UNL     1      -0.676  13.720  19.301  0.00  0.00    +0.000 C 
ATOM     16  C   UNL     1       0.232  14.597  20.214  0.00  0.00    +0.000 C 
ATOM     17  C   UNL     1       2.496  14.609  21.407  0.00  0.00    +0.000 C 
ATOM     18  H   UNL     1       1.754  15.940  18.364  0.00  0.00    +0.000 HD
ENDROOT
BRANCH  13  19
ATOM     19  C   UNL     1       0.543  10.050  19.268  0.00  0.00    +0.000 A 
ATOM     20  C   UNL     1       1.044   9.636  18.008  0.00  0.00    +0.000 A 
ATOM     21  C   UNL     1       2.143   8.793  17.809  0.00  0.00    +0.000 A 
ATOM     22  C   UNL     1       2.228   7.868  18.836  0.00  0.00    +0.000 A 
ATOM     23  N   UNL     1       2.826   6.670  18.868  0.00  0.00    +0.000 NA
ATOM     24  N   UNL     1       2.459   6.153  20.054  0.00  0.00    +0.000 N 
ATOM     25  C   UNL     1       1.859   7.058  20.889  0.00  0.00    +0.000 A 
ATOM     26  C   UNL     1       1.608   8.144  20.110  0.00  0.00    +0.000 A 
ATOM     27  C   UNL     1       0.892   9.299  20.439  0.00  0.00    +0.000 A 
ATOM     28  H   UNL     1       2.652   5.172  20.221  0.00  0.00    +0.000 HD
ENDBRANCH  13  19
BRANCH   1  30
ATOM     29  C   UNL     1       8.346  15.098  19.807  0.00  0.00    +0.000 C 
ATOM     30  C   UNL     1       6.960  15.555  19.247  0.00  0.00    +0.000 C 
ATOM     31  C   UNL     1       7.035  17.079  19.080  0.00  0.00    +0.000 C 
ATOM     32  C   UNL     1       6.822  14.856  17.876  0.00  0.00    +0.000 C 
ENDBRANCH   1  30
TORSDOF 2
ENDMDL
MODEL 6
REMARK VINA RESULT:      -6.7      4.685      7.366
REMARK  Name = 
REMARK  5 active torsions:
REMARK  status: ('A' for Active; 'I' for Inactive)
REMARK    1  A    between atoms: C_1  and  C_2
REMARK    2  A    between atoms: C_2  and  C_3
REMARK    3  A    between atoms: C_2  and  C_4
REMARK    4  A    between atoms: C_2  and  N_5
REMARK    5  A    between atoms: C_17  and  C_19
REMARK                            x       y       z     vdW  Elec       q    Type
REMARK                         _______ _______ _______ _____ _____    ______ ____
ROOT
ATOM      1  N   UNL     1       6.073  15.144  20.135  0.00  0.00    +0.000 N 
ATOM      2  N   UNL     1       6.455  14.564  21.306  0.00  0.00    +0.000 NA
ATOM      3  C   UNL     1       5.333  14.374  21.994  0.00  0.00    +0.000 A 
ATOM      4  C   UNL     1       4.222  14.841  21.297  0.00  0.00    +0.000 A 
ATOM      5  C   UNL     1       4.694  15.351  20.112  0.00  0.00    +0.000 A 
ATOM      6  C   UNL     1       3.833  15.918  19.090  0.00  0.00    +0.000 C 
ATOM      7  O   UNL     1       4.182  16.514  18.080  0.00  0.00    +0.000 OA
ATOM      8  N   UNL     1       2.470  15.721  19.332  0.00  0.00    +0.000 N 
ATOM      9  C   UNL     1       1.965  14.677  20.274  0.00  0.00    +0.000 C 
ATOM     10  C   UNL     1       2.275  13.296  19.648  0.00  0.00    +0.000 C 
ATOM     11  C   UNL     1       1.242  13.013  18.586  0.00  0.00    +0.000 C 
ATOM     12  N   UNL     1       0.008  12.757  19.280  0.00  0.00    +0.000 N 
ATOM     13  C   UNL     1      -0.360  11.531  19.950  0.00  0.00    +0.000 C 
ATOM     14  O   UNL     1      -1.305  11.476  20.732  0.00  0.00    +0.000 OA
ATOM     15  C   UNL     1      -0.580  13.985  19.759  0.00  0.00    +0.000 C 
ATOM     16  C   UNL     1       0.430  14.853  20.569  0.00  0.00    +0.000 C 
ATOM     17  C   UNL     1       2.766  14.799  21.611  0.00  0.00    +0.000 C 
ATOM     18  H   UNL     1       1.888  16.032  18.563  0.00  0.00    +0.000 HD
ENDROOT
BRANCH  13  19
ATOM     19  C   UNL     1       0.452  10.258  19.820  0.00  0.00    +0.000 A 
ATOM     20  C   UNL     1       0.850   9.519  20.963  0.00  0.00    +0.000 A 
ATOM     21  C   UNL     1       1.246   8.178  20.965  0.00  0.00    +0.000 A 
ATOM     22  C   UNL     1       1.894   7.869  19.781  0.00  0.00    +0.000 A 
ATOM     23  N   UNL     1       2.763   6.888  19.505  0.00  0.00    +0.000 NA
ATOM     24  N   UNL     1       3.178   7.161  18.256  0.00  0.00    +0.000 N 
ATOM     25  C   UNL     1       2.438   8.125  17.625  0.00  0.00    +0.000 A 
ATOM     26  C   UNL     1       1.664   8.670  18.601  0.00  0.00    +0.000 A 
ATOM     27  C   UNL     1       0.820   9.782  18.518  0.00  0.00    +0.000 A 
ATOM     28  H   UNL     1       3.977   6.647  17.902  0.00  0.00    +0.000 HD
ENDBRANCH  13  19
BRANCH   1  30
ATOM     29  C   UNL     1       8.511  14.906  19.615  0.00  0.00    +0.000 C 
ATOM     30  C   UNL     1       7.117  15.415  19.126  0.00  0.00    +0.000 C 
ATOM     31  C   UNL     1       7.259  16.925  18.888  0.00  0.00    +0.000 C 
ATOM     32  C   UNL     1       6.850  14.670  17.800  0.00  0.00    +0.000 C 
ENDBRANCH   1  30
TORSDOF 2
ENDMDL
MODEL 7
REMARK VINA RESULT:      -6.5      0.965      1.490
REMARK  Name = 
REMARK  5 active torsions:
REMARK  status: ('A' for Active; 'I' for Inactive)
REMARK    1  A    between atoms: C_1  and  C_2
REMARK    2  A    between atoms: C_2  and  C_3
REMARK    3  A    between atoms: C_2  and  C_4
REMARK    4  A    between atoms: C_2  and  N_5
REMARK    5  A    between atoms: C_17  and  C_19
REMARK                            x       y       z     vdW  Elec       q    Type
REMARK                         _______ _______ _______ _____ _____    ______ ____
ROOT
ATOM      1  N   UNL     1       1.350  13.784  19.537  0.00  0.00    +0.000 N 
ATOM      2  N   UNL     1       1.185  12.915  18.503  0.00  0.00    +0.000 NA
ATOM      3  C   UNL     1       0.305  12.013  18.931  0.00  0.00    +0.000 A 
ATOM      4  C   UNL     1      -0.093  12.271  20.240  0.00  0.00    +0.000 A 
ATOM      5  C   UNL     1       0.588  13.395  20.638  0.00  0.00    +0.000 A 
ATOM      6  C   UNL     1       0.427  14.002  21.947  0.00  0.00    +0.000 C 
ATOM      7  O   UNL     1       1.092  14.910  22.425  0.00  0.00    +0.000 OA
ATOM      8  N   UNL     1      -0.623  13.457  22.692  0.00  0.00    +0.000 N 
ATOM      9  C   UNL     1      -1.728  12.670  22.065  0.00  0.00    +0.000 C 
ATOM     10  C   UNL     1      -2.561  13.645  21.200  0.00  0.00    +0.000 C 
ATOM     11  C   UNL     1      -3.471  14.430  22.109  0.00  0.00    +0.000 C 
ATOM     12  N   UNL     1      -4.475  13.509  22.572  0.00  0.00    +0.000 N 
ATOM     13  C   UNL     1      -5.627  13.054  21.830  0.00  0.00    +0.000 C 
ATOM     14  O   UNL     1      -6.287  12.081  22.186  0.00  0.00    +0.000 OA
ATOM     15  C   UNL     1      -3.943  12.633  23.587  0.00  0.00    +0.000 C 
ATOM     16  C   UNL     1      -2.613  11.947  23.147  0.00  0.00    +0.000 C 
ATOM     17  C   UNL     1      -1.089  11.599  21.122  0.00  0.00    +0.000 C 
ATOM     18  H   UNL     1      -0.787  13.956  23.559  0.00  0.00    +0.000 HD
ENDROOT
BRANCH  13  19
ATOM     19  C   UNL     1      -6.039  13.672  20.508  0.00  0.00    +0.000 A 
ATOM     20  C   UNL     1      -6.579  14.981  20.446  0.00  0.00    +0.000 A 
ATOM     21  C   UNL     1      -6.630  15.784  19.301  0.00  0.00    +0.000 A 
ATOM     22  C   UNL     1      -6.797  14.998  18.174  0.00  0.00    +0.000 A 
ATOM     23  N   UNL     1      -7.285  15.316  16.967  0.00  0.00    +0.000 NA
ATOM     24  N   UNL     1      -7.354  14.138  16.322  0.00  0.00    +0.000 N 
ATOM     25  C   UNL     1      -6.705  13.117  16.964  0.00  0.00    +0.000 A 
ATOM     26  C   UNL     1      -6.415  13.605  18.200  0.00  0.00    +0.000 A 
ATOM     27  C   UNL     1      -5.871  12.926  19.295  0.00  0.00    +0.000 A 
ATOM     28  H   UNL     1      -7.863  14.109  15.446  0.00  0.00    +0.000 HD
ENDBRANCH  13  19
BRANCH   1  30
ATOM     29  C   UNL     1       2.852  14.926  17.890  0.00  0.00    +0.000 C 
ATOM     30  C   UNL     1       2.235  14.948  19.325  0.00  0.00    +0.000 C 
ATOM     31  C   UNL     1       3.412  14.918  20.310  0.00  0.00    +0.000 C 
ATOM     32  C   UNL     1       1.469  16.285  19.422  0.00  0.00    +0.000 C 
ENDBRANCH   1  30
TORSDOF 2
ENDMDL
MODEL 8
REMARK VINA RESULT:      -6.5      1.823      2.549
REMARK  Name = 
REMARK  5 active torsions:
REMARK  status: ('A' for Active; 'I' for Inactive)
REMARK    1  A    between atoms: C_1  and  C_2
REMARK    2  A    between atoms: C_2  and  C_3
REMARK    3  A    between atoms: C_2  and  C_4
REMARK    4  A    between atoms: C_2  and  N_5
REMARK    5  A    between atoms: C_17  and  C_19
REMARK                            x       y       z     vdW  Elec       q    Type
REMARK                         _______ _______ _______ _____ _____    ______ ____
ROOT
ATOM      1  N   UNL     1      -0.249  14.581  22.608  0.00  0.00    +0.000 N 
ATOM      2  N   UNL     1       0.264  13.544  21.890  0.00  0.00    +0.000 NA
ATOM      3  C   UNL     1      -0.521  12.503  22.157  0.00  0.00    +0.000 A 
ATOM      4  C   UNL     1      -1.529  12.840  23.055  0.00  0.00    +0.000 A 
ATOM      5  C   UNL     1      -1.348  14.167  23.361  0.00  0.00    +0.000 A 
ATOM      6  C   UNL     1      -2.220  14.904  24.258  0.00  0.00    +0.000 C 
ATOM      7  O   UNL     1      -2.048  16.037  24.687  0.00  0.00    +0.000 OA
ATOM      8  N   UNL     1      -3.369  14.199  24.627  0.00  0.00    +0.000 N 
ATOM      9  C   UNL     1      -3.873  13.023  23.854  0.00  0.00    +0.000 C 
ATOM     10  C   UNL     1      -4.371  13.546  22.485  0.00  0.00    +0.000 C 
ATOM     11  C   UNL     1      -5.735  14.159  22.678  0.00  0.00    +0.000 C 
ATOM     12  N   UNL     1      -6.638  13.068  22.929  0.00  0.00    +0.000 N 
ATOM     13  C   UNL     1      -7.193  12.171  21.942  0.00  0.00    +0.000 C 
ATOM     14  O   UNL     1      -7.740  11.117  22.256  0.00  0.00    +0.000 OA
ATOM     15  C   UNL     1      -6.488  12.572  24.276  0.00  0.00    +0.000 C 
ATOM     16  C   UNL     1      -5.004  12.256  24.634  0.00  0.00    +0.000 C 
ATOM     17  C   UNL     1      -2.672  12.055  23.602  0.00  0.00    +0.000 C 
ATOM     18  H   UNL     1      -4.014  14.761  25.170  0.00  0.00    +0.000 HD
ENDROOT
BRANCH  13  19
ATOM     19  C   UNL     1      -7.046  12.409  20.452  0.00  0.00    +0.000 A 
ATOM     20  C   UNL     1      -6.080  11.708  19.687  0.00  0.00    +0.000 A 
ATOM     21  C   UNL     1      -6.105  11.551  18.297  0.00  0.00    +0.000 A 
ATOM     22  C   UNL     1      -6.666  12.667  17.700  0.00  0.00    +0.000 A 
ATOM     23  N   UNL     1      -6.536  13.133  16.451  0.00  0.00    +0.000 NA
ATOM     24  N   UNL     1      -7.173  14.316  16.475  0.00  0.00    +0.000 N 
ATOM     25  C   UNL     1      -7.916  14.521  17.607  0.00  0.00    +0.000 A 
ATOM     26  C   UNL     1      -7.543  13.528  18.459  0.00  0.00    +0.000 A 
ATOM     27  C   UNL     1      -7.904  13.354  19.798  0.00  0.00    +0.000 A 
ATOM     28  H   UNL     1      -7.052  14.934  15.680  0.00  0.00    +0.000 HD
ENDBRANCH  13  19
BRANCH   1  30
ATOM     29  C   UNL     1       0.746  16.515  23.851  0.00  0.00    +0.000 C 
ATOM     30  C   UNL     1       0.387  15.905  22.457  0.00  0.00    +0.000 C 
ATOM     31  C   UNL     1      -0.575  16.893  21.781  0.00  0.00    +0.000 C 
ATOM     32  C   UNL     1       1.724  15.824  21.689  0.00  0.00    +0.000 C 
ENDBRANCH   1  30
TORSDOF 2
ENDMDL
MODEL 9
REMARK VINA RESULT:      -6.5      0.791      1.296
REMARK  Name = 
REMARK  5 active torsions:
REMARK  status: ('A' for Active; 'I' for Inactive)
REMARK    1  A    between atoms: C_1  and  C_2
REMARK    2  A    between atoms: C_2  and  C_3
REMARK    3  A    between atoms: C_2  and  C_4
REMARK    4  A    between atoms: C_2  and  N_5
REMARK    5  A    between atoms: C_17  and  C_19
REMARK                            x       y       z     vdW  Elec       q    Type
REMARK                         _______ _______ _______ _____ _____    ______ ____
ROOT
ATOM      1  N   UNL     1       0.865  13.551  20.441  0.00  0.00    +0.000 N 
ATOM      2  N   UNL     1       0.826  12.474  19.610  0.00  0.00    +0.000 NA
ATOM      3  C   UNL     1      -0.039  11.627  20.162  0.00  0.00    +0.000 A 
ATOM      4  C   UNL     1      -0.553  12.128  21.355  0.00  0.00    +0.000 A 
ATOM      5  C   UNL     1       0.038  13.354  21.546  0.00  0.00    +0.000 A 
ATOM      6  C   UNL     1      -0.257  14.211  22.680  0.00  0.00    +0.000 C 
ATOM      7  O   UNL     1       0.322  15.242  22.995  0.00  0.00    +0.000 OA
ATOM      8  N   UNL     1      -1.335  13.768  23.453  0.00  0.00    +0.000 N 
ATOM      9  C   UNL     1      -2.346  12.795  22.938  0.00  0.00    +0.000 C 
ATOM     10  C   UNL     1      -3.155  13.509  21.828  0.00  0.00    +0.000 C 
ATOM     11  C   UNL     1      -4.173  14.407  22.484  0.00  0.00    +0.000 C 
ATOM     12  N   UNL     1      -5.162  13.540  23.066  0.00  0.00    +0.000 N 
ATOM     13  C   UNL     1      -6.228  12.864  22.364  0.00  0.00    +0.000 C 
ATOM     14  O   UNL     1      -6.865  11.947  22.876  0.00  0.00    +0.000 OA
ATOM     15  C   UNL     1      -4.670  12.935  24.280  0.00  0.00    +0.000 C 
ATOM     16  C   UNL     1      -3.278  12.261  24.088  0.00  0.00    +0.000 C 
ATOM     17  C   UNL     1      -1.581  11.594  22.292  0.00  0.00    +0.000 C 
ATOM     18  H   UNL     1      -1.592  14.427  24.179  0.00  0.00    +0.000 HD
ENDROOT
BRANCH  13  19
ATOM     19  C   UNL     1      -6.564  13.161  20.915  0.00  0.00    +0.000 A 
ATOM     20  C   UNL     1      -7.593  14.074  20.571  0.00  0.00    +0.000 A 
ATOM     21  C   UNL     1      -7.733  14.708  19.332  0.00  0.00    +0.000 A 
ATOM     22  C   UNL     1      -7.285  13.880  18.318  0.00  0.00    +0.000 A 
ATOM     23  N   UNL     1      -7.582  13.880  17.011  0.00  0.00    +0.000 NA
ATOM     24  N   UNL     1      -6.984  12.772  16.540  0.00  0.00    +0.000 N 
ATOM     25  C   UNL     1      -6.116  12.193  17.426  0.00  0.00    +0.000 A 
ATOM     26  C   UNL     1      -6.350  12.819  18.611  0.00  0.00    +0.000 A 
ATOM     27  C   UNL     1      -5.823  12.517  19.870  0.00  0.00    +0.000 A 
ATOM     28  H   UNL     1      -7.221  12.471  15.601  0.00  0.00    +0.000 HD
ENDBRANCH  13  19
BRANCH   1  30
ATOM     29  C   UNL     1       2.362  14.453  18.647  0.00  0.00    +0.000 C 
ATOM     30  C   UNL     1       1.704  14.699  20.043  0.00  0.00    +0.000 C 
ATOM     31  C   UNL     1       2.854  14.899  21.041  0.00  0.00    +0.000 C 
ATOM     32  C   UNL     1       0.879  15.995  19.886  0.00  0.00    +0.000 C 
ENDBRANCH   1  30
TORSDOF 2
ENDMDL
