MODEL 1
REMARK VINA RESULT:      -7.7      0.000      0.000
REMARK  Name = 
REMARK  11 active torsions:
REMARK  status: ('A' for Active; 'I' for Inactive)
REMARK    1  A    between atoms: C_1  and  C_2
REMARK    2  A    between atoms: C_2  and  O_3
REMARK    3  A    between atoms: O_3  and  C_4
REMARK    4  A    between atoms: C_4  and  C_6
REMARK    5  A    between atoms: C_8  and  C_9
REMARK    6  A    between atoms: C_9  and  C_11
REMARK    7  A    between atoms: C_14  and  O_15
REMARK    8  A    between atoms: O_15  and  C_16
REMARK    9  A    between atoms: C_19  and  C_20
REMARK   10  A    between atoms: C_23  and  O_24
REMARK   11  A    between atoms: O_24  and  C_25
REMARK                            x       y       z     vdW  Elec       q    Type
REMARK                         _______ _______ _______ _____ _____    ______ ____
ROOT
ATOM      1  C   UNL     1       1.898   3.787  18.876  0.00  0.00    +0.000 A 
ATOM      2  N   UNL     1       1.825   5.168  18.878  0.00  0.00    +0.000 N 
ATOM      3  C   UNL     1       2.864   5.738  18.159  0.00  0.00    +0.000 A 
ATOM      4  C   UNL     1       3.656   4.672  17.715  0.00  0.00    +0.000 A 
ATOM      5  C   UNL     1       3.035   3.470  18.168  0.00  0.00    +0.000 A 
ATOM      6 BR   UNL     1       3.633   1.727  17.723  0.00  0.00    +0.000 Br
ATOM      7  H   UNL     1       1.056   5.681  19.293  0.00  0.00    +0.000 HD
ENDROOT
BRANCH   4   8
ATOM      8  C   UNL     1       4.816   4.831  16.844  0.00  0.00    +0.000 A 
ATOM      9  C   UNL     1       4.708   4.693  15.460  0.00  0.00    +0.000 A 
ATOM     10  C   UNL     1       5.830   4.853  14.643  0.00  0.00    +0.000 A 
ATOM     11  C   UNL     1       7.069   5.172  15.194  0.00  0.00    +0.000 A 
ATOM     12  C   UNL     1       7.193   5.296  16.573  0.00  0.00    +0.000 A 
ATOM     13  C   UNL     1       6.068   5.143  17.385  0.00  0.00    +0.000 A 
BRANCH  11  14
ATOM     14  O   UNL     1       8.088   5.302  14.296  0.00  0.00    +0.000 OA
ATOM     15  C   UNL     1       7.744   5.124  12.926  0.00  0.00    +0.000 C 
ENDBRANCH  11  14
ENDBRANCH   4   8
BRANCH   1  16
ATOM     16  C   UNL     1       0.885   2.978  19.526  0.00  0.00    +0.000 C 
ATOM     17  O   UNL     1       0.233   2.131  18.965  0.00  0.00    +0.000 OA
BRANCH  16  18
ATOM     18  O   UNL     1       0.722   3.366  20.825  0.00  0.00    +0.000 OA
BRANCH  18  20
ATOM     19  C   UNL     1       2.826   2.555  21.629  0.00  0.00    +0.000 C 
ATOM     20  C   UNL     1       1.318   2.506  21.802  0.00  0.00    +0.000 C 
ENDBRANCH  18  20
ENDBRANCH  16  18
ENDBRANCH   1  16
BRANCH   3  21
ATOM     21  C   UNL     1       3.037   7.180  17.927  0.00  0.00    +0.000 C 
ATOM     22  O   UNL     1       3.840   7.661  17.128  0.00  0.00    +0.000 OA
BRANCH  21  23
ATOM     23  C   UNL     1       2.138   8.166  18.589  0.00  0.00    +0.000 A 
ATOM     24  C   UNL     1       1.667   9.261  17.862  0.00  0.00    +0.000 A 
ATOM     25  C   UNL     1       0.888  10.232  18.486  0.00  0.00    +0.000 A 
ATOM     26  C   UNL     1       0.564  10.120  19.839  0.00  0.00    +0.000 A 
ATOM     27  C   UNL     1       1.061   9.045  20.581  0.00  0.00    +0.000 A 
ATOM     28  C   UNL     1       1.854   8.069  19.958  0.00  0.00    +0.000 A 
BRANCH  26  29
ATOM     29  O   UNL     1      -0.191  11.150  20.325  0.00  0.00    +0.000 OA
ATOM     30  C   UNL     1      -0.101  12.384  19.625  0.00  0.00    +0.000 C 
ENDBRANCH  26  29
ENDBRANCH  21  23
ENDBRANCH   3  21
TORSDOF 8
ENDMDL
MODEL 2
REMARK VINA RESULT:      -7.7      1.087      1.746
REMARK  Name = 
REMARK  11 active torsions:
REMARK  status: ('A' for Active; 'I' for Inactive)
REMARK    1  A    between atoms: C_1  and  C_2
REMARK    2  A    between atoms: C_2  and  O_3
REMARK    3  A    between atoms: O_3  and  C_4
REMARK    4  A    between atoms: C_4  and  C_6
REMARK    5  A    between atoms: C_8  and  C_9
REMARK    6  A    between atoms: C_9  and  C_11
REMARK    7  A    between atoms: C_14  and  O_15
REMARK    8  A    between atoms: O_15  and  C_16
REMARK    9  A    between atoms: C_19  and  C_20
REMARK   10  A    between atoms: C_23  and  O_24
REMARK   11  A    between atoms: O_24  and  C_25
REMARK                            x       y       z     vdW  Elec       q    Type
REMARK                         _______ _______ _______ _____ _____    ______ ____
ROOT
ATOM      1  C   UNL     1       2.670   4.325  20.371  0.00  0.00    +0.000 A 
ATOM      2  N   UNL     1       2.295   5.607  20.010  0.00  0.00    +0.000 N 
ATOM      3  C   UNL     1       3.081   6.101  18.981  0.00  0.00    +0.000 A 
ATOM      4  C   UNL     1       4.023   5.103  18.701  0.00  0.00    +0.000 A 
ATOM      5  C   UNL     1       3.746   4.008  19.574  0.00  0.00    +0.000 A 
ATOM      6 BR   UNL     1       4.649   2.342  19.515  0.00  0.00    +0.000 Br
ATOM      7  H   UNL     1       1.494   6.082  20.408  0.00  0.00    +0.000 HD
ENDROOT
BRANCH   4   8
ATOM      8  C   UNL     1       4.996   5.186  17.616  0.00  0.00    +0.000 A 
ATOM      9  C   UNL     1       6.221   5.829  17.788  0.00  0.00    +0.000 A 
ATOM     10  C   UNL     1       7.141   5.893  16.738  0.00  0.00    +0.000 A 
ATOM     11  C   UNL     1       6.858   5.299  15.511  0.00  0.00    +0.000 A 
ATOM     12  C   UNL     1       5.633   4.668  15.322  0.00  0.00    +0.000 A 
ATOM     13  C   UNL     1       4.721   4.601  16.375  0.00  0.00    +0.000 A 
BRANCH  11  14
ATOM     14  O   UNL     1       7.832   5.428  14.564  0.00  0.00    +0.000 OA
ATOM     15  C   UNL     1       7.493   4.994  13.252  0.00  0.00    +0.000 C 
ENDBRANCH  11  14
ENDBRANCH   4   8
BRANCH   1  16
ATOM     16  C   UNL     1       1.953   3.591  21.395  0.00  0.00    +0.000 C 
ATOM     17  O   UNL     1       2.381   3.385  22.504  0.00  0.00    +0.000 OA
BRANCH  16  18
ATOM     18  O   UNL     1       0.776   3.105  20.901  0.00  0.00    +0.000 OA
BRANCH  18  20
ATOM     19  C   UNL     1       0.536   2.590  18.576  0.00  0.00    +0.000 C 
ATOM     20  C   UNL     1       0.902   2.047  19.946  0.00  0.00    +0.000 C 
ENDBRANCH  18  20
ENDBRANCH  16  18
ENDBRANCH   1  16
BRANCH   3  21
ATOM     21  C   UNL     1       2.901   7.411  18.336  0.00  0.00    +0.000 C 
ATOM     22  O   UNL     1       3.504   7.774  17.327  0.00  0.00    +0.000 OA
BRANCH  21  23
ATOM     23  C   UNL     1       1.860   8.356  18.824  0.00  0.00    +0.000 A 
ATOM     24  C   UNL     1       1.237   9.219  17.918  0.00  0.00    +0.000 A 
ATOM     25  C   UNL     1       0.316  10.161  18.370  0.00  0.00    +0.000 A 
ATOM     26  C   UNL     1       0.001  10.251  19.726  0.00  0.00    +0.000 A 
ATOM     27  C   UNL     1       0.645   9.416  20.642  0.00  0.00    +0.000 A 
ATOM     28  C   UNL     1       1.582   8.471  20.193  0.00  0.00    +0.000 A 
BRANCH  26  29
ATOM     29  O   UNL     1      -0.904  11.229  20.031  0.00  0.00    +0.000 OA
ATOM     30  C   UNL     1      -1.884  11.514  19.040  0.00  0.00    +0.000 C 
ENDBRANCH  26  29
ENDBRANCH  21  23
ENDBRANCH   3  21
TORSDOF 8
ENDMDL
MODEL 3
REMARK VINA RESULT:      -7.6      0.466      1.007
REMARK  Name = 
REMARK  11 active torsions:
REMARK  status: ('A' for Active; 'I' for Inactive)
REMARK    1  A    between atoms: C_1  and  C_2
REMARK    2  A    between atoms: C_2  and  O_3
REMARK    3  A    between atoms: O_3  and  C_4
REMARK    4  A    between atoms: C_4  and  C_6
REMARK    5  A    between atoms: C_8  and  C_9
REMARK    6  A    between atoms: C_9  and  C_11
REMARK    7  A    between atoms: C_14  and  O_15
REMARK    8  A    between atoms: O_15  and  C_16
REMARK    9  A    between atoms: C_19  and  C_20
REMARK   10  A    between atoms: C_23  and  O_24
REMARK   11  A    between atoms: O_24  and  C_25
REMARK                            x       y       z     vdW  Elec       q    Type
REMARK                         _______ _______ _______ _____ _____    ______ ____
ROOT
ATOM      1  C   UNL     1       1.846   3.671  18.710  0.00  0.00    +0.000 A 
ATOM      2  N   UNL     1       1.787   5.052  18.754  0.00  0.00    +0.000 N 
ATOM      3  C   UNL     1       2.845   5.633  18.073  0.00  0.00    +0.000 A 
ATOM      4  C   UNL     1       3.633   4.573  17.608  0.00  0.00    +0.000 A 
ATOM      5  C   UNL     1       2.991   3.364  18.011  0.00  0.00    +0.000 A 
ATOM      6 BR   UNL     1       3.578   1.630  17.520  0.00  0.00    +0.000 Br
ATOM      7  H   UNL     1       1.017   5.560  19.173  0.00  0.00    +0.000 HD
ENDROOT
BRANCH   4   8
ATOM      8  C   UNL     1       4.810   4.747  16.762  0.00  0.00    +0.000 A 
ATOM      9  C   UNL     1       4.737   4.595  15.378  0.00  0.00    +0.000 A 
ATOM     10  C   UNL     1       5.875   4.770  14.586  0.00  0.00    +0.000 A 
ATOM     11  C   UNL     1       7.094   5.116  15.162  0.00  0.00    +0.000 A 
ATOM     12  C   UNL     1       7.183   5.255  16.543  0.00  0.00    +0.000 A 
ATOM     13  C   UNL     1       6.043   5.087  17.330  0.00  0.00    +0.000 A 
BRANCH  11  14
ATOM     14  O   UNL     1       8.131   5.259  14.287  0.00  0.00    +0.000 OA
ATOM     15  C   UNL     1       7.799   5.193  12.905  0.00  0.00    +0.000 C 
ENDBRANCH  11  14
ENDBRANCH   4   8
BRANCH   1  16
ATOM     16  C   UNL     1       0.812   2.853  19.315  0.00  0.00    +0.000 C 
ATOM     17  O   UNL     1       0.177   2.017  18.721  0.00  0.00    +0.000 OA
BRANCH  16  18
ATOM     18  O   UNL     1       0.612   3.220  20.615  0.00  0.00    +0.000 OA
BRANCH  18  20
ATOM     19  C   UNL     1       2.522   3.708  21.972  0.00  0.00    +0.000 C 
ATOM     20  C   UNL     1       1.518   2.645  21.562  0.00  0.00    +0.000 C 
ENDBRANCH  18  20
ENDBRANCH  16  18
ENDBRANCH   1  16
BRANCH   3  21
ATOM     21  C   UNL     1       3.038   7.080  17.890  0.00  0.00    +0.000 C 
ATOM     22  O   UNL     1       3.841   7.577  17.103  0.00  0.00    +0.000 OA
BRANCH  21  23
ATOM     23  C   UNL     1       2.159   8.054  18.594  0.00  0.00    +0.000 A 
ATOM     24  C   UNL     1       1.961   7.930  19.971  0.00  0.00    +0.000 A 
ATOM     25  C   UNL     1       1.083   8.785  20.631  0.00  0.00    +0.000 A 
ATOM     26  C   UNL     1       0.398   9.778  19.930  0.00  0.00    +0.000 A 
ATOM     27  C   UNL     1       0.563   9.886  18.547  0.00  0.00    +0.000 A 
ATOM     28  C   UNL     1       1.440   9.019  17.875  0.00  0.00    +0.000 A 
BRANCH  26  29
ATOM     29  O   UNL     1      -0.442  10.534  20.699  0.00  0.00    +0.000 OA
ATOM     30  C   UNL     1       0.090  11.751  21.207  0.00  0.00    +0.000 C 
ENDBRANCH  26  29
ENDBRANCH  21  23
ENDBRANCH   3  21
TORSDOF 8
ENDMDL
MODEL 4
REMARK VINA RESULT:      -7.6      1.160      1.830
REMARK  Name = 
REMARK  11 active torsions:
REMARK  status: ('A' for Active; 'I' for Inactive)
REMARK    1  A    between atoms: C_1  and  C_2
REMARK    2  A    between atoms: C_2  and  O_3
REMARK    3  A    between atoms: O_3  and  C_4
REMARK    4  A    between atoms: C_4  and  C_6
REMARK    5  A    between atoms: C_8  and  C_9
REMARK    6  A    between atoms: C_9  and  C_11
REMARK    7  A    between atoms: C_14  and  O_15
REMARK    8  A    between atoms: O_15  and  C_16
REMARK    9  A    between atoms: C_19  and  C_20
REMARK   10  A    between atoms: C_23  and  O_24
REMARK   11  A    between atoms: O_24  and  C_25
REMARK                            x       y       z     vdW  Elec       q    Type
REMARK                         _______ _______ _______ _____ _____    ______ ____
ROOT
ATOM      1  C   UNL     1       2.624   4.342  20.380  0.00  0.00    +0.000 A 
ATOM      2  N   UNL     1       2.215   5.604  19.988  0.00  0.00    +0.000 N 
ATOM      3  C   UNL     1       3.011   6.109  18.973  0.00  0.00    +0.000 A 
ATOM      4  C   UNL     1       3.995   5.141  18.735  0.00  0.00    +0.000 A 
ATOM      5  C   UNL     1       3.732   4.050  19.617  0.00  0.00    +0.000 A 
ATOM      6 BR   UNL     1       4.694   2.417  19.610  0.00  0.00    +0.000 Br
ATOM      7  H   UNL     1       1.387   6.056  20.357  0.00  0.00    +0.000 HD
ENDROOT
BRANCH   4   8
ATOM      8  C   UNL     1       4.993   5.242  17.676  0.00  0.00    +0.000 A 
ATOM      9  C   UNL     1       4.784   4.664  16.425  0.00  0.00    +0.000 A 
ATOM     10  C   UNL     1       5.752   4.775  15.422  0.00  0.00    +0.000 A 
ATOM     11  C   UNL     1       6.930   5.480  15.649  0.00  0.00    +0.000 A 
ATOM     12  C   UNL     1       7.158   6.048  16.898  0.00  0.00    +0.000 A 
ATOM     13  C   UNL     1       6.186   5.941  17.894  0.00  0.00    +0.000 A 
BRANCH  11  14
ATOM     14  O   UNL     1       7.797   5.519  14.596  0.00  0.00    +0.000 OA
ATOM     15  C   UNL     1       7.359   4.885  13.400  0.00  0.00    +0.000 C 
ENDBRANCH  11  14
ENDBRANCH   4   8
BRANCH   1  16
ATOM     16  C   UNL     1       1.905   3.598  21.397  0.00  0.00    +0.000 C 
ATOM     17  O   UNL     1       2.321   3.403  22.512  0.00  0.00    +0.000 OA
BRANCH  16  18
ATOM     18  O   UNL     1       0.744   3.090  20.887  0.00  0.00    +0.000 OA
BRANCH  18  20
ATOM     19  C   UNL     1       0.517   2.618  18.552  0.00  0.00    +0.000 C 
ATOM     20  C   UNL     1       0.903   2.057  19.909  0.00  0.00    +0.000 C 
ENDBRANCH  18  20
ENDBRANCH  16  18
ENDBRANCH   1  16
BRANCH   3  21
ATOM     21  C   UNL     1       2.803   7.402  18.303  0.00  0.00    +0.000 C 
ATOM     22  O   UNL     1       3.249   7.685  17.192  0.00  0.00    +0.000 OA
BRANCH  21  23
ATOM     23  C   UNL     1       1.916   8.433  18.908  0.00  0.00    +0.000 A 
ATOM     24  C   UNL     1       1.688   8.419  20.286  0.00  0.00    +0.000 A 
ATOM     25  C   UNL     1       0.802   9.328  20.858  0.00  0.00    +0.000 A 
ATOM     26  C   UNL     1       0.138  10.266  20.065  0.00  0.00    +0.000 A 
ATOM     27  C   UNL     1       0.334  10.263  18.682  0.00  0.00    +0.000 A 
ATOM     28  C   UNL     1       1.219   9.342  18.100  0.00  0.00    +0.000 A 
BRANCH  26  29
ATOM     29  O   UNL     1      -0.713  11.084  20.754  0.00  0.00    +0.000 OA
ATOM     30  C   UNL     1      -0.804  10.866  22.156  0.00  0.00    +0.000 C 
ENDBRANCH  26  29
ENDBRANCH  21  23
ENDBRANCH   3  21
TORSDOF 8
ENDMDL
MODEL 5
REMARK VINA RESULT:      -7.5      0.585      1.456
REMARK  Name = 
REMARK  11 active torsions:
REMARK  status: ('A' for Active; 'I' for Inactive)
REMARK    1  A    between atoms: C_1  and  C_2
REMARK    2  A    between atoms: C_2  and  O_3
REMARK    3  A    between atoms: O_3  and  C_4
REMARK    4  A    between atoms: C_4  and  C_6
REMARK    5  A    between atoms: C_8  and  C_9
REMARK    6  A    between atoms: C_9  and  C_11
REMARK    7  A    between atoms: C_14  and  O_15
REMARK    8  A    between atoms: O_15  and  C_16
REMARK    9  A    between atoms: C_19  and  C_20
REMARK   10  A    between atoms: C_23  and  O_24
REMARK   11  A    between atoms: O_24  and  C_25
REMARK                            x       y       z     vdW  Elec       q    Type
REMARK                         _______ _______ _______ _____ _____    ______ ____
ROOT
ATOM      1  C   UNL     1       1.925   3.811  18.949  0.00  0.00    +0.000 A 
ATOM      2  N   UNL     1       1.806   5.189  18.924  0.00  0.00    +0.000 N 
ATOM      3  C   UNL     1       2.811   5.777  18.174  0.00  0.00    +0.000 A 
ATOM      4  C   UNL     1       3.629   4.730  17.734  0.00  0.00    +0.000 A 
ATOM      5  C   UNL     1       3.057   3.517  18.224  0.00  0.00    +0.000 A 
ATOM      6 BR   UNL     1       3.703   1.786  17.801  0.00  0.00    +0.000 Br
ATOM      7  H   UNL     1       1.029   5.684  19.345  0.00  0.00    +0.000 HD
ENDROOT
BRANCH   4   8
ATOM      8  C   UNL     1       4.766   4.908  16.836  0.00  0.00    +0.000 A 
ATOM      9  C   UNL     1       5.999   5.356  17.308  0.00  0.00    +0.000 A 
ATOM     10  C   UNL     1       7.076   5.516  16.432  0.00  0.00    +0.000 A 
ATOM     11  C   UNL     1       6.942   5.213  15.080  0.00  0.00    +0.000 A 
ATOM     12  C   UNL     1       5.712   4.781  14.594  0.00  0.00    +0.000 A 
ATOM     13  C   UNL     1       4.642   4.616  15.474  0.00  0.00    +0.000 A 
BRANCH  11  14
ATOM     14  O   UNL     1       8.062   5.410  14.326  0.00  0.00    +0.000 OA
ATOM     15  C   UNL     1       7.920   5.199  12.925  0.00  0.00    +0.000 C 
ENDBRANCH  11  14
ENDBRANCH   4   8
BRANCH   1  16
ATOM     16  C   UNL     1       0.952   2.982  19.634  0.00  0.00    +0.000 C 
ATOM     17  O   UNL     1       0.299   2.121  19.098  0.00  0.00    +0.000 OA
BRANCH  16  18
ATOM     18  O   UNL     1       0.828   3.370  20.938  0.00  0.00    +0.000 OA
BRANCH  18  20
ATOM     19  C   UNL     1       2.782   2.193  21.661  0.00  0.00    +0.000 C 
ATOM     20  C   UNL     1       2.058   3.528  21.651  0.00  0.00    +0.000 C 
ENDBRANCH  18  20
ENDBRANCH  16  18
ENDBRANCH   1  16
BRANCH   3  21
ATOM     21  C   UNL     1       2.932   7.220  17.910  0.00  0.00    +0.000 C 
ATOM     22  O   UNL     1       3.595   7.702  16.993  0.00  0.00    +0.000 OA
BRANCH  21  23
ATOM     23  C   UNL     1       2.137   8.201  18.698  0.00  0.00    +0.000 A 
ATOM     24  C   UNL     1       1.873   7.947  20.045  0.00  0.00    +0.000 A 
ATOM     25  C   UNL     1       1.068   8.816  20.777  0.00  0.00    +0.000 A 
ATOM     26  C   UNL     1       0.522   9.951  20.177  0.00  0.00    +0.000 A 
ATOM     27  C   UNL     1       0.752  10.194  18.821  0.00  0.00    +0.000 A 
ATOM     28  C   UNL     1       1.556   9.315  18.076  0.00  0.00    +0.000 A 
BRANCH  26  29
ATOM     29  O   UNL     1      -0.260  10.706  21.005  0.00  0.00    +0.000 OA
ATOM     30  C   UNL     1      -0.405  10.236  22.340  0.00  0.00    +0.000 C 
ENDBRANCH  26  29
ENDBRANCH  21  23
ENDBRANCH   3  21
TORSDOF 8
ENDMDL
MODEL 6
REMARK VINA RESULT:      -7.2      2.902      6.175
REMARK  Name = 
REMARK  11 active torsions:
REMARK  status: ('A' for Active; 'I' for Inactive)
REMARK    1  A    between atoms: C_1  and  C_2
REMARK    2  A    between atoms: C_2  and  O_3
REMARK    3  A    between atoms: O_3  and  C_4
REMARK    4  A    between atoms: C_4  and  C_6
REMARK    5  A    between atoms: C_8  and  C_9
REMARK    6  A    between atoms: C_9  and  C_11
REMARK    7  A    between atoms: C_14  and  O_15
REMARK    8  A    between atoms: O_15  and  C_16
REMARK    9  A    between atoms: C_19  and  C_20
REMARK   10  A    between atoms: C_23  and  O_24
REMARK   11  A    between atoms: O_24  and  C_25
REMARK                            x       y       z     vdW  Elec       q    Type
REMARK                         _______ _______ _______ _____ _____    ______ ____
ROOT
ATOM      1  C   UNL     1       2.964   5.513  18.549  0.00  0.00    +0.000 A 
ATOM      2  N   UNL     1       2.907   6.663  17.782  0.00  0.00    +0.000 N 
ATOM      3  C   UNL     1       2.272   7.695  18.452  0.00  0.00    +0.000 A 
ATOM      4  C   UNL     1       1.872   7.167  19.686  0.00  0.00    +0.000 A 
ATOM      5  C   UNL     1       2.317   5.811  19.726  0.00  0.00    +0.000 A 
ATOM      6 BR   UNL     1       2.148   4.678  21.236  0.00  0.00    +0.000 Br
ATOM      7  H   UNL     1       3.348   6.744  16.874  0.00  0.00    +0.000 HD
ENDROOT
BRANCH   4   8
ATOM      8  C   UNL     1       1.236   7.954  20.738  0.00  0.00    +0.000 A 
ATOM      9  C   UNL     1      -0.144   7.928  20.931  0.00  0.00    +0.000 A 
ATOM     10  C   UNL     1      -0.733   8.684  21.947  0.00  0.00    +0.000 A 
ATOM     11  C   UNL     1       0.051   9.460  22.797  0.00  0.00    +0.000 A 
ATOM     12  C   UNL     1       1.427   9.507  22.606  0.00  0.00    +0.000 A 
ATOM     13  C   UNL     1       2.011   8.744  21.594  0.00  0.00    +0.000 A 
BRANCH  11  14
ATOM     14  O   UNL     1      -0.637  10.154  23.750  0.00  0.00    +0.000 OA
ATOM     15  C   UNL     1      -1.491  11.190  23.277  0.00  0.00    +0.000 C 
ENDBRANCH  11  14
ENDBRANCH   4   8
BRANCH   1  16
ATOM     16  C   UNL     1       3.630   4.318  18.068  0.00  0.00    +0.000 C 
ATOM     17  O   UNL     1       4.821   4.133  18.136  0.00  0.00    +0.000 OA
BRANCH  16  18
ATOM     18  O   UNL     1       2.735   3.483  17.461  0.00  0.00    +0.000 OA
BRANCH  18  20
ATOM     19  C   UNL     1       1.035   2.290  18.651  0.00  0.00    +0.000 C 
ATOM     20  C   UNL     1       2.470   2.260  18.155  0.00  0.00    +0.000 C 
ENDBRANCH  18  20
ENDBRANCH  16  18
ENDBRANCH   1  16
BRANCH   3  21
ATOM     21  C   UNL     1       2.099   9.060  17.930  0.00  0.00    +0.000 C 
ATOM     22  O   UNL     1       2.879   9.606  17.151  0.00  0.00    +0.000 OA
BRANCH  21  23
ATOM     23  C   UNL     1       0.867   9.837  18.239  0.00  0.00    +0.000 A 
ATOM     24  C   UNL     1      -0.346   9.462  17.657  0.00  0.00    +0.000 A 
ATOM     25  C   UNL     1      -1.491  10.222  17.875  0.00  0.00    +0.000 A 
ATOM     26  C   UNL     1      -1.443  11.362  18.679  0.00  0.00    +0.000 A 
ATOM     27  C   UNL     1      -0.227  11.764  19.235  0.00  0.00    +0.000 A 
ATOM     28  C   UNL     1       0.933  11.005  19.011  0.00  0.00    +0.000 A 
BRANCH  26  29
ATOM     29  O   UNL     1      -2.635  12.022  18.794  0.00  0.00    +0.000 OA
ATOM     30  C   UNL     1      -3.737  11.461  18.093  0.00  0.00    +0.000 C 
ENDBRANCH  26  29
ENDBRANCH  21  23
ENDBRANCH   3  21
TORSDOF 8
ENDMDL
MODEL 7
REMARK VINA RESULT:      -7.2      4.782     10.082
REMARK  Name = 
REMARK  11 active torsions:
REMARK  status: ('A' for Active; 'I' for Inactive)
REMARK    1  A    between atoms: C_1  and  C_2
REMARK    2  A    between atoms: C_2  and  O_3
REMARK    3  A    between atoms: O_3  and  C_4
REMARK    4  A    between atoms: C_4  and  C_6
REMARK    5  A    between atoms: C_8  and  C_9
REMARK    6  A    between atoms: C_9  and  C_11
REMARK    7  A    between atoms: C_14  and  O_15
REMARK    8  A    between atoms: O_15  and  C_16
REMARK    9  A    between atoms: C_19  and  C_20
REMARK   10  A    between atoms: C_23  and  O_24
REMARK   11  A    between atoms: O_24  and  C_25
REMARK                            x       y       z     vdW  Elec       q    Type
REMARK                         _______ _______ _______ _____ _____    ______ ____
ROOT
ATOM      1  C   UNL     1      -3.022  11.280  17.694  0.00  0.00    +0.000 A 
ATOM      2  N   UNL     1      -1.672  10.984  17.630  0.00  0.00    +0.000 N 
ATOM      3  C   UNL     1      -0.979  11.512  18.707  0.00  0.00    +0.000 A 
ATOM      4  C   UNL     1      -1.924  12.210  19.470  0.00  0.00    +0.000 A 
ATOM      5  C   UNL     1      -3.187  12.048  18.824  0.00  0.00    +0.000 A 
ATOM      6 BR   UNL     1      -4.830  12.685  19.521  0.00  0.00    +0.000 Br
ATOM      7  H   UNL     1      -1.270  10.388  16.917  0.00  0.00    +0.000 HD
ENDROOT
BRANCH   4   8
ATOM      8  C   UNL     1      -1.624  12.850  20.747  0.00  0.00    +0.000 A 
ATOM      9  C   UNL     1      -1.647  12.132  21.942  0.00  0.00    +0.000 A 
ATOM     10  C   UNL     1      -1.353  12.763  23.153  0.00  0.00    +0.000 A 
ATOM     11  C   UNL     1      -1.013  14.112  23.185  0.00  0.00    +0.000 A 
ATOM     12  C   UNL     1      -1.002  14.844  22.003  0.00  0.00    +0.000 A 
ATOM     13  C   UNL     1      -1.290  14.208  20.794  0.00  0.00    +0.000 A 
BRANCH  11  14
ATOM     14  O   UNL     1      -0.748  14.616  24.426  0.00  0.00    +0.000 OA
ATOM     15  C   UNL     1      -1.855  15.167  25.129  0.00  0.00    +0.000 C 
ENDBRANCH  11  14
ENDBRANCH   4   8
BRANCH   1  16
ATOM     16  C   UNL     1      -3.950  10.786  16.696  0.00  0.00    +0.000 C 
ATOM     17  O   UNL     1      -5.104  11.130  16.616  0.00  0.00    +0.000 OA
BRANCH  16  18
ATOM     18  O   UNL     1      -3.357   9.828  15.924  0.00  0.00    +0.000 OA
BRANCH  18  20
ATOM     19  C   UNL     1      -3.991   9.840  13.616  0.00  0.00    +0.000 C 
ATOM     20  C   UNL     1      -2.937  10.260  14.625  0.00  0.00    +0.000 C 
ENDBRANCH  18  20
ENDBRANCH  16  18
ENDBRANCH   1  16
BRANCH   3  21
ATOM     21  C   UNL     1       0.459  11.327  18.958  0.00  0.00    +0.000 C 
ATOM     22  O   UNL     1       1.251  12.248  19.154  0.00  0.00    +0.000 OA
BRANCH  21  23
ATOM     23  C   UNL     1       1.030   9.960  19.104  0.00  0.00    +0.000 A 
ATOM     24  C   UNL     1       0.938   9.306  20.334  0.00  0.00    +0.000 A 
ATOM     25  C   UNL     1       1.534   8.059  20.510  0.00  0.00    +0.000 A 
ATOM     26  C   UNL     1       2.223   7.449  19.461  0.00  0.00    +0.000 A 
ATOM     27  C   UNL     1       2.349   8.112  18.239  0.00  0.00    +0.000 A 
ATOM     28  C   UNL     1       1.759   9.374  18.060  0.00  0.00    +0.000 A 
BRANCH  26  29
ATOM     29  O   UNL     1       2.771   6.237  19.777  0.00  0.00    +0.000 OA
ATOM     30  C   UNL     1       1.969   5.367  20.565  0.00  0.00    +0.000 C 
ENDBRANCH  26  29
ENDBRANCH  21  23
ENDBRANCH   3  21
TORSDOF 8
ENDMDL
MODEL 8
REMARK VINA RESULT:      -7.1      4.465     10.568
REMARK  Name = 
REMARK  11 active torsions:
REMARK  status: ('A' for Active; 'I' for Inactive)
REMARK    1  A    between atoms: C_1  and  C_2
REMARK    2  A    between atoms: C_2  and  O_3
REMARK    3  A    between atoms: O_3  and  C_4
REMARK    4  A    between atoms: C_4  and  C_6
REMARK    5  A    between atoms: C_8  and  C_9
REMARK    6  A    between atoms: C_9  and  C_11
REMARK    7  A    between atoms: C_14  and  O_15
REMARK    8  A    between atoms: O_15  and  C_16
REMARK    9  A    between atoms: C_19  and  C_20
REMARK   10  A    between atoms: C_23  and  O_24
REMARK   11  A    between atoms: O_24  and  C_25
REMARK                            x       y       z     vdW  Elec       q    Type
REMARK                         _______ _______ _______ _____ _____    ______ ____
ROOT
ATOM      1  C   UNL     1       2.491  13.800  19.287  0.00  0.00    +0.000 A 
ATOM      2  N   UNL     1       2.184  12.590  18.691  0.00  0.00    +0.000 N 
ATOM      3  C   UNL     1       1.090  11.987  19.289  0.00  0.00    +0.000 A 
ATOM      4  C   UNL     1       0.708  12.832  20.338  0.00  0.00    +0.000 A 
ATOM      5  C   UNL     1       1.590  13.954  20.315  0.00  0.00    +0.000 A 
ATOM      6 BR   UNL     1       1.424  15.465  21.447  0.00  0.00    +0.000 Br
ATOM      7  H   UNL     1       2.663  12.240  17.870  0.00  0.00    +0.000 HD
ENDROOT
BRANCH   4   8
ATOM      8  C   UNL     1      -0.465  12.608  21.177  0.00  0.00    +0.000 A 
ATOM      9  C   UNL     1      -1.661  13.287  20.950  0.00  0.00    +0.000 A 
ATOM     10  C   UNL     1      -2.773  13.055  21.762  0.00  0.00    +0.000 A 
ATOM     11  C   UNL     1      -2.713  12.127  22.798  0.00  0.00    +0.000 A 
ATOM     12  C   UNL     1      -1.522  11.454  23.046  0.00  0.00    +0.000 A 
ATOM     13  C   UNL     1      -0.415  11.684  22.228  0.00  0.00    +0.000 A 
BRANCH  11  14
ATOM     14  O   UNL     1      -3.862  11.987  23.521  0.00  0.00    +0.000 OA
ATOM     15  C   UNL     1      -4.046  12.909  24.590  0.00  0.00    +0.000 C 
ENDBRANCH  11  14
ENDBRANCH   4   8
BRANCH   1  16
ATOM     16  C   UNL     1       3.572  14.631  18.791  0.00  0.00    +0.000 C 
ATOM     17  O   UNL     1       4.569  14.890  19.420  0.00  0.00    +0.000 OA
BRANCH  16  18
ATOM     18  O   UNL     1       3.262  15.135  17.560  0.00  0.00    +0.000 OA
BRANCH  18  20
ATOM     19  C   UNL     1       1.963  17.103  17.968  0.00  0.00    +0.000 C 
ATOM     20  C   UNL     1       3.287  16.562  17.458  0.00  0.00    +0.000 C 
ENDBRANCH  18  20
ENDBRANCH  16  18
ENDBRANCH   1  16
BRANCH   3  21
ATOM     21  C   UNL     1       0.481  10.720  18.853  0.00  0.00    +0.000 C 
ATOM     22  O   UNL     1      -0.588  10.638  18.250  0.00  0.00    +0.000 OA
BRANCH  21  23
ATOM     23  C   UNL     1       1.209   9.433  19.026  0.00  0.00    +0.000 A 
ATOM     24  C   UNL     1       1.800   8.824  17.916  0.00  0.00    +0.000 A 
ATOM     25  C   UNL     1       2.418   7.584  18.046  0.00  0.00    +0.000 A 
ATOM     26  C   UNL     1       2.462   6.939  19.283  0.00  0.00    +0.000 A 
ATOM     27  C   UNL     1       1.843   7.525  20.389  0.00  0.00    +0.000 A 
ATOM     28  C   UNL     1       1.210   8.771  20.262  0.00  0.00    +0.000 A 
BRANCH  26  29
ATOM     29  O   UNL     1       3.085   5.722  19.262  0.00  0.00    +0.000 OA
ATOM     30  C   UNL     1       3.659   5.327  18.023  0.00  0.00    +0.000 C 
ENDBRANCH  26  29
ENDBRANCH  21  23
ENDBRANCH   3  21
TORSDOF 8
ENDMDL
MODEL 9
REMARK VINA RESULT:      -7.1      4.502      9.976
REMARK  Name = 
REMARK  11 active torsions:
REMARK  status: ('A' for Active; 'I' for Inactive)
REMARK    1  A    between atoms: C_1  and  C_2
REMARK    2  A    between atoms: C_2  and  O_3
REMARK    3  A    between atoms: O_3  and  C_4
REMARK    4  A    between atoms: C_4  and  C_6
REMARK    5  A    between atoms: C_8  and  C_9
REMARK    6  A    between atoms: C_9  and  C_11
REMARK    7  A    between atoms: C_14  and  O_15
REMARK    8  A    between atoms: O_15  and  C_16
REMARK    9  A    between atoms: C_19  and  C_20
REMARK   10  A    between atoms: C_23  and  O_24
REMARK   11  A    between atoms: O_24  and  C_25
REMARK                            x       y       z     vdW  Elec       q    Type
REMARK                         _______ _______ _______ _____ _____    ______ ____
ROOT
ATOM      1  C   UNL     1      -2.905  11.297  17.435  0.00  0.00    +0.000 A 
ATOM      2  N   UNL     1      -1.551  11.015  17.384  0.00  0.00    +0.000 N 
ATOM      3  C   UNL     1      -0.890  11.473  18.512  0.00  0.00    +0.000 A 
ATOM      4  C   UNL     1      -1.859  12.110  19.296  0.00  0.00    +0.000 A 
ATOM      5  C   UNL     1      -3.104  11.984  18.610  0.00  0.00    +0.000 A 
ATOM      6 BR   UNL     1      -4.770  12.561  19.307  0.00  0.00    +0.000 Br
ATOM      7  H   UNL     1      -1.127  10.472  16.642  0.00  0.00    +0.000 HD
ENDROOT
BRANCH   4   8
ATOM      8  C   UNL     1      -1.596  12.664  20.621  0.00  0.00    +0.000 A 
ATOM      9  C   UNL     1      -1.452  14.037  20.818  0.00  0.00    +0.000 A 
ATOM     10  C   UNL     1      -1.206  14.547  22.095  0.00  0.00    +0.000 A 
ATOM     11  C   UNL     1      -1.119  13.697  23.194  0.00  0.00    +0.000 A 
ATOM     12  C   UNL     1      -1.245  12.324  23.009  0.00  0.00    +0.000 A 
ATOM     13  C   UNL     1      -1.498  11.819  21.733  0.00  0.00    +0.000 A 
BRANCH  11  14
ATOM     14  O   UNL     1      -0.875  14.311  24.387  0.00  0.00    +0.000 OA
ATOM     15  C   UNL     1      -0.944  15.733  24.386  0.00  0.00    +0.000 C 
ENDBRANCH  11  14
ENDBRANCH   4   8
BRANCH   1  16
ATOM     16  C   UNL     1      -3.804  10.865  16.382  0.00  0.00    +0.000 C 
ATOM     17  O   UNL     1      -4.992  11.081  16.376  0.00  0.00    +0.000 OA
BRANCH  16  18
ATOM     18  O   UNL     1      -3.133  10.121  15.454  0.00  0.00    +0.000 OA
BRANCH  18  20
ATOM     19  C   UNL     1      -2.752   9.574  13.155  0.00  0.00    +0.000 C 
ATOM     20  C   UNL     1      -3.788   9.981  14.189  0.00  0.00    +0.000 C 
ENDBRANCH  18  20
ENDBRANCH  16  18
ENDBRANCH   1  16
BRANCH   3  21
ATOM     21  C   UNL     1       0.543  11.282  18.785  0.00  0.00    +0.000 C 
ATOM     22  O   UNL     1       1.342  12.200  18.963  0.00  0.00    +0.000 OA
BRANCH  21  23
ATOM     23  C   UNL     1       1.099   9.914  18.979  0.00  0.00    +0.000 A 
ATOM     24  C   UNL     1       0.974   9.292  20.223  0.00  0.00    +0.000 A 
ATOM     25  C   UNL     1       1.554   8.046  20.444  0.00  0.00    +0.000 A 
ATOM     26  C   UNL     1       2.260   7.403  19.427  0.00  0.00    +0.000 A 
ATOM     27  C   UNL     1       2.420   8.033  18.192  0.00  0.00    +0.000 A 
ATOM     28  C   UNL     1       1.845   9.294  17.967  0.00  0.00    +0.000 A 
BRANCH  26  29
ATOM     29  O   UNL     1       2.790   6.195  19.786  0.00  0.00    +0.000 OA
ATOM     30  C   UNL     1       3.869   5.717  18.993  0.00  0.00    +0.000 C 
ENDBRANCH  26  29
ENDBRANCH  21  23
ENDBRANCH   3  21
TORSDOF 8
ENDMDL
