MODEL 1
REMARK VINA RESULT:      -7.4      0.000      0.000
REMARK  Name = 
REMARK  12 active torsions:
REMARK  status: ('A' for Active; 'I' for Inactive)
REMARK    1  A    between atoms: C_1  and  O_2
REMARK    2  A    between atoms: O_2  and  C_3
REMARK    3  A    between atoms: C_6  and  C_7
REMARK    4  A    between atoms: C_8  and  C_9
REMARK    5  A    between atoms: C_9  and  C_11
REMARK    6  A    between atoms: C_11  and  C_12
REMARK    7  A    between atoms: C_11  and  C_13
REMARK    8  A    between atoms: C_11  and  C_14
REMARK    9  A    between atoms: C_14  and  C_16
REMARK   10  A    between atoms: C_17  and  C_18
REMARK   11  A    between atoms: C_21  and  O_22
REMARK   12  A    between atoms: O_22  and  C_23
REMARK                            x       y       z     vdW  Elec       q    Type
REMARK                         _______ _______ _______ _____ _____    ______ ____
ROOT
ATOM      1  C   UNL     1       2.059   3.051  19.289  0.00  0.00    +0.000 C 
ATOM      2  C   UNL     1       1.292   1.769  19.664  0.00  0.00    +0.000 C 
ATOM      3  C   UNL     1       1.367   3.661  18.054  0.00  0.00    +0.000 C 
ENDROOT
BRANCH   1   4
ATOM      4  C   UNL     1       2.000   4.035  20.466  0.00  0.00    +0.000 C 
ATOM      5  O   UNL     1       2.304   3.700  21.612  0.00  0.00    +0.000 OA
BRANCH   4   7
ATOM      6  C   UNL     1       2.362   6.358  19.728  0.00  0.00    +0.000 C 
ATOM      7  C   UNL     1       1.518   5.425  20.196  0.00  0.00    +0.000 C 
BRANCH   6  11
ATOM      8  C   UNL     1       1.303  10.440  18.937  0.00  0.00    +0.000 A 
ATOM      9  C   UNL     1       2.012   9.686  18.003  0.00  0.00    +0.000 A 
ATOM     10  C   UNL     1       2.337   8.351  18.265  0.00  0.00    +0.000 A 
ATOM     11  C   UNL     1       1.985   7.758  19.483  0.00  0.00    +0.000 A 
ATOM     12  C   UNL     1       1.261   8.518  20.411  0.00  0.00    +0.000 A 
ATOM     13  C   UNL     1       0.929   9.852  20.144  0.00  0.00    +0.000 A 
BRANCH   8  15
ATOM     14  C   UNL     1       2.215  12.519  18.268  0.00  0.00    +0.000 C 
ATOM     15  O   UNL     1       1.066  11.739  18.582  0.00  0.00    +0.000 OA
ENDBRANCH   8  15
ENDBRANCH   6  11
ENDBRANCH   4   7
ENDBRANCH   1   4
BRANCH   1  16
ATOM     16  C   UNL     1       3.512   2.709  18.932  0.00  0.00    +0.000 C 
ATOM     17  O   UNL     1       3.848   1.577  18.583  0.00  0.00    +0.000 OA
BRANCH  16  18
ATOM     18  C   UNL     1       4.535   3.789  19.063  0.00  0.00    +0.000 C 
ATOM     19  C   UNL     1       4.925   4.501  17.993  0.00  0.00    +0.000 C 
BRANCH  19  20
ATOM     20  C   UNL     1       5.950   5.552  18.056  0.00  0.00    +0.000 A 
ATOM     21  C   UNL     1       5.802   6.771  17.381  0.00  0.00    +0.000 A 
ATOM     22  C   UNL     1       6.785   7.756  17.469  0.00  0.00    +0.000 A 
ATOM     23  C   UNL     1       7.915   7.560  18.261  0.00  0.00    +0.000 A 
ATOM     24  C   UNL     1       8.071   6.358  18.947  0.00  0.00    +0.000 A 
ATOM     25  C   UNL     1       7.090   5.361  18.850  0.00  0.00    +0.000 A 
BRANCH  23  26
ATOM     26  O   UNL     1       8.811   8.592  18.255  0.00  0.00    +0.000 OA
ATOM     27  C   UNL     1       8.283   9.862  17.892  0.00  0.00    +0.000 C 
ENDBRANCH  23  26
ENDBRANCH  19  20
ENDBRANCH  16  18
ENDBRANCH   1  16
TORSDOF 8
ENDMDL
MODEL 2
REMARK VINA RESULT:      -7.4      2.933      4.406
REMARK  Name = 
REMARK  12 active torsions:
REMARK  status: ('A' for Active; 'I' for Inactive)
REMARK    1  A    between atoms: C_1  and  O_2
REMARK    2  A    between atoms: O_2  and  C_3
REMARK    3  A    between atoms: C_6  and  C_7
REMARK    4  A    between atoms: C_8  and  C_9
REMARK    5  A    between atoms: C_9  and  C_11
REMARK    6  A    between atoms: C_11  and  C_12
REMARK    7  A    between atoms: C_11  and  C_13
REMARK    8  A    between atoms: C_11  and  C_14
REMARK    9  A    between atoms: C_14  and  C_16
REMARK   10  A    between atoms: C_17  and  C_18
REMARK   11  A    between atoms: C_21  and  O_22
REMARK   12  A    between atoms: O_22  and  C_23
REMARK                            x       y       z     vdW  Elec       q    Type
REMARK                         _______ _______ _______ _____ _____    ______ ____
ROOT
ATOM      1  C   UNL     1       5.705   5.389  17.694  0.00  0.00    +0.000 C 
ATOM      2  C   UNL     1       5.599   5.298  19.228  0.00  0.00    +0.000 C 
ATOM      3  C   UNL     1       5.413   3.987  17.125  0.00  0.00    +0.000 C 
ENDROOT
BRANCH   1   4
ATOM      4  C   UNL     1       4.667   6.394  17.177  0.00  0.00    +0.000 C 
ATOM      5  O   UNL     1       4.680   6.805  16.016  0.00  0.00    +0.000 OA
BRANCH   4   7
ATOM      6  C   UNL     1       2.934   8.010  17.855  0.00  0.00    +0.000 C 
ATOM      7  C   UNL     1       3.642   6.906  18.139  0.00  0.00    +0.000 C 
BRANCH   6  11
ATOM      8  C   UNL     1       0.068   9.694  20.567  0.00  0.00    +0.000 A 
ATOM      9  C   UNL     1       0.912   8.658  20.963  0.00  0.00    +0.000 A 
ATOM     10  C   UNL     1       1.854   8.128  20.075  0.00  0.00    +0.000 A 
ATOM     11  C   UNL     1       1.944   8.607  18.763  0.00  0.00    +0.000 A 
ATOM     12  C   UNL     1       1.102   9.657  18.377  0.00  0.00    +0.000 A 
ATOM     13  C   UNL     1       0.165  10.192  19.269  0.00  0.00    +0.000 A 
BRANCH   8  15
ATOM     14  C   UNL     1      -0.526   9.759  22.857  0.00  0.00    +0.000 C 
ATOM     15  O   UNL     1      -0.828  10.112  21.511  0.00  0.00    +0.000 OA
ENDBRANCH   8  15
ENDBRANCH   6  11
ENDBRANCH   4   7
ENDBRANCH   1   4
BRANCH   1  16
ATOM     16  C   UNL     1       7.125   5.809  17.290  0.00  0.00    +0.000 C 
ATOM     17  O   UNL     1       7.776   5.185  16.453  0.00  0.00    +0.000 OA
BRANCH  16  18
ATOM     18  C   UNL     1       7.725   6.991  17.979  0.00  0.00    +0.000 C 
ATOM     19  C   UNL     1       7.655   8.216  17.433  0.00  0.00    +0.000 C 
BRANCH  19  20
ATOM     20  C   UNL     1       8.255   9.407  18.049  0.00  0.00    +0.000 A 
ATOM     21  C   UNL     1       9.000   9.331  19.233  0.00  0.00    +0.000 A 
ATOM     22  C   UNL     1       9.571  10.476  19.788  0.00  0.00    +0.000 A 
ATOM     23  C   UNL     1       9.443  11.710  19.154  0.00  0.00    +0.000 A 
ATOM     24  C   UNL     1       8.715  11.799  17.970  0.00  0.00    +0.000 A 
ATOM     25  C   UNL     1       8.129  10.652  17.417  0.00  0.00    +0.000 A 
BRANCH  23  26
ATOM     26  O   UNL     1      10.034  12.758  19.803  0.00  0.00    +0.000 OA
ATOM     27  C   UNL     1      10.328  12.540  21.178  0.00  0.00    +0.000 C 
ENDBRANCH  23  26
ENDBRANCH  19  20
ENDBRANCH  16  18
ENDBRANCH   1  16
TORSDOF 8
ENDMDL
MODEL 3
REMARK VINA RESULT:      -7.3      1.148      2.018
REMARK  Name = 
REMARK  12 active torsions:
REMARK  status: ('A' for Active; 'I' for Inactive)
REMARK    1  A    between atoms: C_1  and  O_2
REMARK    2  A    between atoms: O_2  and  C_3
REMARK    3  A    between atoms: C_6  and  C_7
REMARK    4  A    between atoms: C_8  and  C_9
REMARK    5  A    between atoms: C_9  and  C_11
REMARK    6  A    between atoms: C_11  and  C_12
REMARK    7  A    between atoms: C_11  and  C_13
REMARK    8  A    between atoms: C_11  and  C_14
REMARK    9  A    between atoms: C_14  and  C_16
REMARK   10  A    between atoms: C_17  and  C_18
REMARK   11  A    between atoms: C_21  and  O_22
REMARK   12  A    between atoms: O_22  and  C_23
REMARK                            x       y       z     vdW  Elec       q    Type
REMARK                         _______ _______ _______ _____ _____    ______ ____
ROOT
ATOM      1  C   UNL     1       2.415   2.996  19.243  0.00  0.00    +0.000 C 
ATOM      2  C   UNL     1       1.610   3.591  20.413  0.00  0.00    +0.000 C 
ATOM      3  C   UNL     1       1.944   1.541  19.049  0.00  0.00    +0.000 C 
ENDROOT
BRANCH   1   4
ATOM      4  C   UNL     1       2.137   3.812  17.974  0.00  0.00    +0.000 C 
ATOM      5  O   UNL     1       2.346   3.358  16.848  0.00  0.00    +0.000 OA
BRANCH   4   7
ATOM      6  C   UNL     1       2.484   6.209  18.432  0.00  0.00    +0.000 C 
ATOM      7  C   UNL     1       1.635   5.213  18.133  0.00  0.00    +0.000 C 
BRANCH   6  11
ATOM      8  C   UNL     1       1.242  10.251  19.157  0.00  0.00    +0.000 A 
ATOM      9  C   UNL     1       1.108   9.269  20.137  0.00  0.00    +0.000 A 
ATOM     10  C   UNL     1       1.531   7.958  19.896  0.00  0.00    +0.000 A 
ATOM     11  C   UNL     1       2.069   7.601  18.654  0.00  0.00    +0.000 A 
ATOM     12  C   UNL     1       2.214   8.596  17.678  0.00  0.00    +0.000 A 
ATOM     13  C   UNL     1       1.796   9.910  17.924  0.00  0.00    +0.000 A 
BRANCH   8  15
ATOM     14  C   UNL     1       0.730  11.777  20.891  0.00  0.00    +0.000 C 
ATOM     15  O   UNL     1       0.769  11.488  19.498  0.00  0.00    +0.000 OA
ENDBRANCH   8  15
ENDBRANCH   6  11
ENDBRANCH   4   7
ENDBRANCH   1   4
BRANCH   1  16
ATOM     16  C   UNL     1       3.912   2.998  19.581  0.00  0.00    +0.000 C 
ATOM     17  O   UNL     1       4.488   1.994  20.000  0.00  0.00    +0.000 OA
BRANCH  16  18
ATOM     18  C   UNL     1       4.660   4.283  19.427  0.00  0.00    +0.000 C 
ATOM     19  C   UNL     1       5.601   4.421  18.480  0.00  0.00    +0.000 C 
BRANCH  19  20
ATOM     20  C   UNL     1       6.391   5.648  18.304  0.00  0.00    +0.000 A 
ATOM     21  C   UNL     1       7.585   5.865  19.003  0.00  0.00    +0.000 A 
ATOM     22  C   UNL     1       8.322   7.032  18.806  0.00  0.00    +0.000 A 
ATOM     23  C   UNL     1       7.903   7.988  17.882  0.00  0.00    +0.000 A 
ATOM     24  C   UNL     1       6.722   7.781  17.172  0.00  0.00    +0.000 A 
ATOM     25  C   UNL     1       5.973   6.614  17.377  0.00  0.00    +0.000 A 
BRANCH  23  26
ATOM     26  O   UNL     1       8.701   9.093  17.791  0.00  0.00    +0.000 OA
ATOM     27  C   UNL     1       8.949   9.774  19.015  0.00  0.00    +0.000 C 
ENDBRANCH  23  26
ENDBRANCH  19  20
ENDBRANCH  16  18
ENDBRANCH   1  16
TORSDOF 8
ENDMDL
MODEL 4
REMARK VINA RESULT:      -7.3      2.215      2.896
REMARK  Name = 
REMARK  12 active torsions:
REMARK  status: ('A' for Active; 'I' for Inactive)
REMARK    1  A    between atoms: C_1  and  O_2
REMARK    2  A    between atoms: O_2  and  C_3
REMARK    3  A    between atoms: C_6  and  C_7
REMARK    4  A    between atoms: C_8  and  C_9
REMARK    5  A    between atoms: C_9  and  C_11
REMARK    6  A    between atoms: C_11  and  C_12
REMARK    7  A    between atoms: C_11  and  C_13
REMARK    8  A    between atoms: C_11  and  C_14
REMARK    9  A    between atoms: C_14  and  C_16
REMARK   10  A    between atoms: C_17  and  C_18
REMARK   11  A    between atoms: C_21  and  O_22
REMARK   12  A    between atoms: O_22  and  C_23
REMARK                            x       y       z     vdW  Elec       q    Type
REMARK                         _______ _______ _______ _____ _____    ______ ____
ROOT
ATOM      1  C   UNL     1       2.187   3.056  19.752  0.00  0.00    +0.000 C 
ATOM      2  C   UNL     1       1.374   1.809  20.149  0.00  0.00    +0.000 C 
ATOM      3  C   UNL     1       1.616   3.578  18.420  0.00  0.00    +0.000 C 
ENDROOT
BRANCH   1   4
ATOM      4  C   UNL     1       2.037   4.123  20.844  0.00  0.00    +0.000 C 
ATOM      5  O   UNL     1       2.293   3.887  22.026  0.00  0.00    +0.000 OA
BRANCH   4   7
ATOM      6  C   UNL     1       2.362   6.392  19.937  0.00  0.00    +0.000 C 
ATOM      7  C   UNL     1       1.527   5.471  20.445  0.00  0.00    +0.000 C 
BRANCH   6  11
ATOM      8  C   UNL     1       1.132  10.376  18.929  0.00  0.00    +0.000 A 
ATOM      9  C   UNL     1       0.896   9.849  20.197  0.00  0.00    +0.000 A 
ATOM     10  C   UNL     1       1.316   8.554  20.520  0.00  0.00    +0.000 A 
ATOM     11  C   UNL     1       1.953   7.754  19.565  0.00  0.00    +0.000 A 
ATOM     12  C   UNL     1       2.200   8.296  18.297  0.00  0.00    +0.000 A 
ATOM     13  C   UNL     1       1.786   9.595  17.977  0.00  0.00    +0.000 A 
BRANCH   8  15
ATOM     14  C   UNL     1       1.621  12.684  18.738  0.00  0.00    +0.000 C 
ATOM     15  O   UNL     1       0.653  11.640  18.722  0.00  0.00    +0.000 OA
ENDBRANCH   8  15
ENDBRANCH   6  11
ENDBRANCH   4   7
ENDBRANCH   1   4
BRANCH   1  16
ATOM     16  C   UNL     1       3.662   2.678  19.552  0.00  0.00    +0.000 C 
ATOM     17  O   UNL     1       4.337   2.185  20.455  0.00  0.00    +0.000 OA
BRANCH  16  18
ATOM     18  C   UNL     1       4.282   2.968  18.224  0.00  0.00    +0.000 C 
ATOM     19  C   UNL     1       5.133   3.996  18.071  0.00  0.00    +0.000 C 
BRANCH  19  20
ATOM     20  C   UNL     1       5.746   4.348  16.784  0.00  0.00    +0.000 A 
ATOM     21  C   UNL     1       7.075   4.782  16.691  0.00  0.00    +0.000 A 
ATOM     22  C   UNL     1       7.637   5.096  15.454  0.00  0.00    +0.000 A 
ATOM     23  C   UNL     1       6.896   4.948  14.282  0.00  0.00    +0.000 A 
ATOM     24  C   UNL     1       5.577   4.507  14.357  0.00  0.00    +0.000 A 
ATOM     25  C   UNL     1       5.007   4.203  15.601  0.00  0.00    +0.000 A 
BRANCH  23  26
ATOM     26  O   UNL     1       7.551   5.301  13.136  0.00  0.00    +0.000 OA
ATOM     27  C   UNL     1       7.348   4.440  12.022  0.00  0.00    +0.000 C 
ENDBRANCH  23  26
ENDBRANCH  19  20
ENDBRANCH  16  18
ENDBRANCH   1  16
TORSDOF 8
ENDMDL
MODEL 5
REMARK VINA RESULT:      -7.3      2.915      4.181
REMARK  Name = 
REMARK  12 active torsions:
REMARK  status: ('A' for Active; 'I' for Inactive)
REMARK    1  A    between atoms: C_1  and  O_2
REMARK    2  A    between atoms: O_2  and  C_3
REMARK    3  A    between atoms: C_6  and  C_7
REMARK    4  A    between atoms: C_8  and  C_9
REMARK    5  A    between atoms: C_9  and  C_11
REMARK    6  A    between atoms: C_11  and  C_12
REMARK    7  A    between atoms: C_11  and  C_13
REMARK    8  A    between atoms: C_11  and  C_14
REMARK    9  A    between atoms: C_14  and  C_16
REMARK   10  A    between atoms: C_17  and  C_18
REMARK   11  A    between atoms: C_21  and  O_22
REMARK   12  A    between atoms: O_22  and  C_23
REMARK                            x       y       z     vdW  Elec       q    Type
REMARK                         _______ _______ _______ _____ _____    ______ ____
ROOT
ATOM      1  C   UNL     1       5.643   5.479  17.730  0.00  0.00    +0.000 C 
ATOM      2  C   UNL     1       5.521   5.553  19.263  0.00  0.00    +0.000 C 
ATOM      3  C   UNL     1       5.371   4.021  17.312  0.00  0.00    +0.000 C 
ENDROOT
BRANCH   1   4
ATOM      4  C   UNL     1       4.601   6.411  17.096  0.00  0.00    +0.000 C 
ATOM      5  O   UNL     1       4.666   6.753  15.914  0.00  0.00    +0.000 OA
BRANCH   4   7
ATOM      6  C   UNL     1       2.954   8.136  17.715  0.00  0.00    +0.000 C 
ATOM      7  C   UNL     1       3.506   6.939  17.968  0.00  0.00    +0.000 C 
BRANCH   6  11
ATOM      8  C   UNL     1      -0.117   9.977  20.078  0.00  0.00    +0.000 A 
ATOM      9  C   UNL     1       0.049  10.303  18.733  0.00  0.00    +0.000 A 
ATOM     10  C   UNL     1       1.043   9.684  17.968  0.00  0.00    +0.000 A 
ATOM     11  C   UNL     1       1.909   8.750  18.548  0.00  0.00    +0.000 A 
ATOM     12  C   UNL     1       1.727   8.418  19.896  0.00  0.00    +0.000 A 
ATOM     13  C   UNL     1       0.726   9.032  20.659  0.00  0.00    +0.000 A 
BRANCH   8  15
ATOM     14  C   UNL     1      -1.567  11.848  20.086  0.00  0.00    +0.000 C 
ATOM     15  O   UNL     1      -1.103  10.666  20.730  0.00  0.00    +0.000 OA
ENDBRANCH   8  15
ENDBRANCH   6  11
ENDBRANCH   4   7
ENDBRANCH   1   4
BRANCH   1  16
ATOM     16  C   UNL     1       7.063   5.869  17.297  0.00  0.00    +0.000 C 
ATOM     17  O   UNL     1       7.680   5.238  16.439  0.00  0.00    +0.000 OA
BRANCH  16  18
ATOM     18  C   UNL     1       7.709   7.028  17.985  0.00  0.00    +0.000 C 
ATOM     19  C   UNL     1       7.694   8.252  17.432  0.00  0.00    +0.000 C 
BRANCH  19  20
ATOM     20  C   UNL     1       8.341   9.419  18.046  0.00  0.00    +0.000 A 
ATOM     21  C   UNL     1       8.254  10.697  17.477  0.00  0.00    +0.000 A 
ATOM     22  C   UNL     1       8.865  11.790  18.088  0.00  0.00    +0.000 A 
ATOM     23  C   UNL     1       9.543  11.639  19.297  0.00  0.00    +0.000 A 
ATOM     24  C   UNL     1       9.629  10.377  19.880  0.00  0.00    +0.000 A 
ATOM     25  C   UNL     1       9.025   9.273  19.261  0.00  0.00    +0.000 A 
BRANCH  23  26
ATOM     26  O   UNL     1      10.111  12.781  19.788  0.00  0.00    +0.000 OA
ATOM     27  C   UNL     1      11.526  12.867  19.660  0.00  0.00    +0.000 C 
ENDBRANCH  23  26
ENDBRANCH  19  20
ENDBRANCH  16  18
ENDBRANCH   1  16
TORSDOF 8
ENDMDL
MODEL 6
REMARK VINA RESULT:      -7.2      2.647      7.008
REMARK  Name = 
REMARK  12 active torsions:
REMARK  status: ('A' for Active; 'I' for Inactive)
REMARK    1  A    between atoms: C_1  and  O_2
REMARK    2  A    between atoms: O_2  and  C_3
REMARK    3  A    between atoms: C_6  and  C_7
REMARK    4  A    between atoms: C_8  and  C_9
REMARK    5  A    between atoms: C_9  and  C_11
REMARK    6  A    between atoms: C_11  and  C_12
REMARK    7  A    between atoms: C_11  and  C_13
REMARK    8  A    between atoms: C_11  and  C_14
REMARK    9  A    between atoms: C_14  and  C_16
REMARK   10  A    between atoms: C_17  and  C_18
REMARK   11  A    between atoms: C_21  and  O_22
REMARK   12  A    between atoms: O_22  and  C_23
REMARK                            x       y       z     vdW  Elec       q    Type
REMARK                         _______ _______ _______ _____ _____    ______ ____
ROOT
ATOM      1  C   UNL     1       2.179   3.674  19.951  0.00  0.00    +0.000 C 
ATOM      2  C   UNL     1       0.784   3.645  20.601  0.00  0.00    +0.000 C 
ATOM      3  C   UNL     1       3.024   2.570  20.616  0.00  0.00    +0.000 C 
ENDROOT
BRANCH   1   4
ATOM      4  C   UNL     1       2.041   3.399  18.448  0.00  0.00    +0.000 C 
ATOM      5  O   UNL     1       1.169   2.653  17.999  0.00  0.00    +0.000 OA
BRANCH   4   7
ATOM      6  C   UNL     1       4.195   3.424  17.250  0.00  0.00    +0.000 C 
ATOM      7  C   UNL     1       3.030   4.033  17.521  0.00  0.00    +0.000 C 
BRANCH   6  11
ATOM      8  C   UNL     1       7.196   5.089  14.676  0.00  0.00    +0.000 A 
ATOM      9  C   UNL     1       5.951   4.707  14.178  0.00  0.00    +0.000 A 
ATOM     10  C   UNL     1       4.975   4.181  15.030  0.00  0.00    +0.000 A 
ATOM     11  C   UNL     1       5.241   3.999  16.392  0.00  0.00    +0.000 A 
ATOM     12  C   UNL     1       6.489   4.398  16.887  0.00  0.00    +0.000 A 
ATOM     13  C   UNL     1       7.463   4.932  16.035  0.00  0.00    +0.000 A 
BRANCH   8  15
ATOM     14  C   UNL     1       7.829   5.180  12.397  0.00  0.00    +0.000 C 
ATOM     15  O   UNL     1       8.077   5.565  13.745  0.00  0.00    +0.000 OA
ENDBRANCH   8  15
ENDBRANCH   6  11
ENDBRANCH   4   7
ENDBRANCH   1   4
BRANCH   1  16
ATOM     16  C   UNL     1       2.846   5.034  20.200  0.00  0.00    +0.000 C 
ATOM     17  O   UNL     1       4.053   5.209  20.035  0.00  0.00    +0.000 OA
BRANCH  16  18
ATOM     18  C   UNL     1       1.987   6.151  20.698  0.00  0.00    +0.000 C 
ATOM     19  C   UNL     1       1.992   7.348  20.088  0.00  0.00    +0.000 C 
BRANCH  19  20
ATOM     20  C   UNL     1       1.195   8.491  20.553  0.00  0.00    +0.000 A 
ATOM     21  C   UNL     1       0.801   9.519  19.686  0.00  0.00    +0.000 A 
ATOM     22  C   UNL     1       0.032  10.585  20.151  0.00  0.00    +0.000 A 
ATOM     23  C   UNL     1      -0.390  10.628  21.479  0.00  0.00    +0.000 A 
ATOM     24  C   UNL     1      -0.016   9.608  22.350  0.00  0.00    +0.000 A 
ATOM     25  C   UNL     1       0.768   8.541  21.888  0.00  0.00    +0.000 A 
BRANCH  23  26
ATOM     26  O   UNL     1      -1.125  11.730  21.816  0.00  0.00    +0.000 OA
ATOM     27  C   UNL     1      -1.844  11.637  23.041  0.00  0.00    +0.000 C 
ENDBRANCH  23  26
ENDBRANCH  19  20
ENDBRANCH  16  18
ENDBRANCH   1  16
TORSDOF 8
ENDMDL
MODEL 7
REMARK VINA RESULT:      -7.2      2.467      6.753
REMARK  Name = 
REMARK  12 active torsions:
REMARK  status: ('A' for Active; 'I' for Inactive)
REMARK    1  A    between atoms: C_1  and  O_2
REMARK    2  A    between atoms: O_2  and  C_3
REMARK    3  A    between atoms: C_6  and  C_7
REMARK    4  A    between atoms: C_8  and  C_9
REMARK    5  A    between atoms: C_9  and  C_11
REMARK    6  A    between atoms: C_11  and  C_12
REMARK    7  A    between atoms: C_11  and  C_13
REMARK    8  A    between atoms: C_11  and  C_14
REMARK    9  A    between atoms: C_14  and  C_16
REMARK   10  A    between atoms: C_17  and  C_18
REMARK   11  A    between atoms: C_21  and  O_22
REMARK   12  A    between atoms: O_22  and  C_23
REMARK                            x       y       z     vdW  Elec       q    Type
REMARK                         _______ _______ _______ _____ _____    ______ ____
ROOT
ATOM      1  C   UNL     1       5.927   5.778  16.492  0.00  0.00    +0.000 C 
ATOM      2  C   UNL     1       5.415   6.968  15.659  0.00  0.00    +0.000 C 
ATOM      3  C   UNL     1       6.542   4.758  15.514  0.00  0.00    +0.000 C 
ENDROOT
BRANCH   1   4
ATOM      4  C   UNL     1       6.994   6.274  17.476  0.00  0.00    +0.000 C 
ATOM      5  O   UNL     1       7.601   5.504  18.222  0.00  0.00    +0.000 OA
BRANCH   4   7
ATOM      6  C   UNL     1       8.302   8.215  18.248  0.00  0.00    +0.000 C 
ATOM      7  C   UNL     1       7.261   7.745  17.543  0.00  0.00    +0.000 C 
BRANCH   6  11
ATOM      8  C   UNL     1       9.232  12.369  18.783  0.00  0.00    +0.000 A 
ATOM      9  C   UNL     1       9.697  11.406  19.677  0.00  0.00    +0.000 A 
ATOM     10  C   UNL     1       9.401  10.053  19.483  0.00  0.00    +0.000 A 
ATOM     11  C   UNL     1       8.607   9.645  18.406  0.00  0.00    +0.000 A 
ATOM     12  C   UNL     1       8.154  10.617  17.505  0.00  0.00    +0.000 A 
ATOM     13  C   UNL     1       8.457  11.971  17.695  0.00  0.00    +0.000 A 
BRANCH   8  15
ATOM     14  C   UNL     1       8.653  14.351  19.940  0.00  0.00    +0.000 C 
ATOM     15  O   UNL     1       9.562  13.660  19.090  0.00  0.00    +0.000 OA
ENDBRANCH   8  15
ENDBRANCH   6  11
ENDBRANCH   4   7
ENDBRANCH   1   4
BRANCH   1  16
ATOM     16  C   UNL     1       4.758   5.118  17.236  0.00  0.00    +0.000 C 
ATOM     17  O   UNL     1       4.427   3.951  17.026  0.00  0.00    +0.000 OA
BRANCH  16  18
ATOM     18  C   UNL     1       3.990   5.952  18.209  0.00  0.00    +0.000 C 
ATOM     19  C   UNL     1       3.061   6.824  17.785  0.00  0.00    +0.000 C 
BRANCH  19  20
ATOM     20  C   UNL     1       2.300   7.694  18.692  0.00  0.00    +0.000 A 
ATOM     21  C   UNL     1       2.102   7.363  20.039  0.00  0.00    +0.000 A 
ATOM     22  C   UNL     1       1.387   8.214  20.882  0.00  0.00    +0.000 A 
ATOM     23  C   UNL     1       0.889   9.426  20.408  0.00  0.00    +0.000 A 
ATOM     24  C   UNL     1       1.087   9.773  19.074  0.00  0.00    +0.000 A 
ATOM     25  C   UNL     1       1.795   8.914  18.221  0.00  0.00    +0.000 A 
BRANCH  23  26
ATOM     26  O   UNL     1       0.194  10.164  21.325  0.00  0.00    +0.000 OA
ATOM     27  C   UNL     1      -0.268   9.449  22.465  0.00  0.00    +0.000 C 
ENDBRANCH  23  26
ENDBRANCH  19  20
ENDBRANCH  16  18
ENDBRANCH   1  16
TORSDOF 8
ENDMDL
MODEL 8
REMARK VINA RESULT:      -7.2      2.342      4.352
REMARK  Name = 
REMARK  12 active torsions:
REMARK  status: ('A' for Active; 'I' for Inactive)
REMARK    1  A    between atoms: C_1  and  O_2
REMARK    2  A    between atoms: O_2  and  C_3
REMARK    3  A    between atoms: C_6  and  C_7
REMARK    4  A    between atoms: C_8  and  C_9
REMARK    5  A    between atoms: C_9  and  C_11
REMARK    6  A    between atoms: C_11  and  C_12
REMARK    7  A    between atoms: C_11  and  C_13
REMARK    8  A    between atoms: C_11  and  C_14
REMARK    9  A    between atoms: C_14  and  C_16
REMARK   10  A    between atoms: C_17  and  C_18
REMARK   11  A    between atoms: C_21  and  O_22
REMARK   12  A    between atoms: O_22  and  C_23
REMARK                            x       y       z     vdW  Elec       q    Type
REMARK                         _______ _______ _______ _____ _____    ______ ____
ROOT
ATOM      1  C   UNL     1       6.177   5.556  17.019  0.00  0.00    +0.000 C 
ATOM      2  C   UNL     1       6.616   4.330  16.198  0.00  0.00    +0.000 C 
ATOM      3  C   UNL     1       5.713   6.638  16.024  0.00  0.00    +0.000 C 
ENDROOT
BRANCH   1   4
ATOM      4  C   UNL     1       5.017   5.157  17.941  0.00  0.00    +0.000 C 
ATOM      5  O   UNL     1       4.699   3.979  18.116  0.00  0.00    +0.000 OA
BRANCH   4   7
ATOM      6  C   UNL     1       3.014   6.575  18.164  0.00  0.00    +0.000 C 
ATOM      7  C   UNL     1       4.238   6.247  18.606  0.00  0.00    +0.000 C 
BRANCH   6  11
ATOM      8  C   UNL     1       0.646   9.791  19.731  0.00  0.00    +0.000 A 
ATOM      9  C   UNL     1       0.992   9.742  18.382  0.00  0.00    +0.000 A 
ATOM     10  C   UNL     1       1.751   8.681  17.879  0.00  0.00    +0.000 A 
ATOM     11  C   UNL     1       2.202   7.663  18.727  0.00  0.00    +0.000 A 
ATOM     12  C   UNL     1       1.839   7.712  20.079  0.00  0.00    +0.000 A 
ATOM     13  C   UNL     1       1.072   8.771  20.580  0.00  0.00    +0.000 A 
BRANCH   8  15
ATOM     14  C   UNL     1       0.238  11.426  21.392  0.00  0.00    +0.000 C 
ATOM     15  O   UNL     1      -0.074  10.889  20.111  0.00  0.00    +0.000 OA
ENDBRANCH   8  15
ENDBRANCH   6  11
ENDBRANCH   4   7
ENDBRANCH   1   4
BRANCH   1  16
ATOM     16  C   UNL     1       7.362   6.096  17.831  0.00  0.00    +0.000 C 
ATOM     17  O   UNL     1       8.033   5.372  18.567  0.00  0.00    +0.000 OA
BRANCH  16  18
ATOM     18  C   UNL     1       7.663   7.557  17.738  0.00  0.00    +0.000 C 
ATOM     19  C   UNL     1       8.430   8.161  18.660  0.00  0.00    +0.000 C 
BRANCH  19  20
ATOM     20  C   UNL     1       8.732   9.599  18.638  0.00  0.00    +0.000 A 
ATOM     21  C   UNL     1       9.595  10.188  19.572  0.00  0.00    +0.000 A 
ATOM     22  C   UNL     1       9.875  11.553  19.520  0.00  0.00    +0.000 A 
ATOM     23  C   UNL     1       9.330  12.350  18.514  0.00  0.00    +0.000 A 
ATOM     24  C   UNL     1       8.478  11.777  17.573  0.00  0.00    +0.000 A 
ATOM     25  C   UNL     1       8.185  10.407  17.631  0.00  0.00    +0.000 A 
BRANCH  23  26
ATOM     26  O   UNL     1       9.667  13.672  18.579  0.00  0.00    +0.000 OA
ATOM     27  C   UNL     1      10.959  14.001  18.083  0.00  0.00    +0.000 C 
ENDBRANCH  23  26
ENDBRANCH  19  20
ENDBRANCH  16  18
ENDBRANCH   1  16
TORSDOF 8
ENDMDL
MODEL 9
REMARK VINA RESULT:      -7.1      2.408      6.658
REMARK  Name = 
REMARK  12 active torsions:
REMARK  status: ('A' for Active; 'I' for Inactive)
REMARK    1  A    between atoms: C_1  and  O_2
REMARK    2  A    between atoms: O_2  and  C_3
REMARK    3  A    between atoms: C_6  and  C_7
REMARK    4  A    between atoms: C_8  and  C_9
REMARK    5  A    between atoms: C_9  and  C_11
REMARK    6  A    between atoms: C_11  and  C_12
REMARK    7  A    between atoms: C_11  and  C_13
REMARK    8  A    between atoms: C_11  and  C_14
REMARK    9  A    between atoms: C_14  and  C_16
REMARK   10  A    between atoms: C_17  and  C_18
REMARK   11  A    between atoms: C_21  and  O_22
REMARK   12  A    between atoms: O_22  and  C_23
REMARK                            x       y       z     vdW  Elec       q    Type
REMARK                         _______ _______ _______ _____ _____    ______ ____
ROOT
ATOM      1  C   UNL     1       2.243   3.562  19.856  0.00  0.00    +0.000 C 
ATOM      2  C   UNL     1       0.912   3.544  20.631  0.00  0.00    +0.000 C 
ATOM      3  C   UNL     1       3.109   2.405  20.394  0.00  0.00    +0.000 C 
ENDROOT
BRANCH   1   4
ATOM      4  C   UNL     1       1.960   3.357  18.362  0.00  0.00    +0.000 C 
ATOM      5  O   UNL     1       0.981   2.723  17.965  0.00  0.00    +0.000 OA
BRANCH   4   7
ATOM      6  C   UNL     1       4.218   3.526  17.390  0.00  0.00    +0.000 C 
ATOM      7  C   UNL     1       2.935   3.920  17.377  0.00  0.00    +0.000 C 
BRANCH   6  11
ATOM      8  C   UNL     1       7.186   5.060  14.699  0.00  0.00    +0.000 A 
ATOM      9  C   UNL     1       6.037   4.433  14.221  0.00  0.00    +0.000 A 
ATOM     10  C   UNL     1       5.068   3.951  15.108  0.00  0.00    +0.000 A 
ATOM     11  C   UNL     1       5.250   4.062  16.491  0.00  0.00    +0.000 A 
ATOM     12  C   UNL     1       6.401   4.706  16.963  0.00  0.00    +0.000 A 
ATOM     13  C   UNL     1       7.367   5.195  16.074  0.00  0.00    +0.000 A 
BRANCH   8  15
ATOM     14  C   UNL     1       7.694   5.208  12.392  0.00  0.00    +0.000 C 
ATOM     15  O   UNL     1       8.073   5.465  13.740  0.00  0.00    +0.000 OA
ENDBRANCH   8  15
ENDBRANCH   6  11
ENDBRANCH   4   7
ENDBRANCH   1   4
BRANCH   1  16
ATOM     16  C   UNL     1       2.974   4.890  20.099  0.00  0.00    +0.000 C 
ATOM     17  O   UNL     1       4.193   4.944  20.259  0.00  0.00    +0.000 OA
BRANCH  16  18
ATOM     18  C   UNL     1       2.150   6.134  20.183  0.00  0.00    +0.000 C 
ATOM     19  C   UNL     1       2.347   7.149  19.326  0.00  0.00    +0.000 C 
BRANCH  19  20
ATOM     20  C   UNL     1       1.592   8.407  19.381  0.00  0.00    +0.000 A 
ATOM     21  C   UNL     1       0.988   8.855  20.564  0.00  0.00    +0.000 A 
ATOM     22  C   UNL     1       0.288  10.061  20.592  0.00  0.00    +0.000 A 
ATOM     23  C   UNL     1       0.208  10.861  19.453  0.00  0.00    +0.000 A 
ATOM     24  C   UNL     1       0.812  10.433  18.273  0.00  0.00    +0.000 A 
ATOM     25  C   UNL     1       1.506   9.215  18.239  0.00  0.00    +0.000 A 
BRANCH  23  26
ATOM     26  O   UNL     1      -0.517  12.009  19.603  0.00  0.00    +0.000 OA
ATOM     27  C   UNL     1      -1.329  12.372  18.493  0.00  0.00    +0.000 C 
ENDBRANCH  23  26
ENDBRANCH  19  20
ENDBRANCH  16  18
ENDBRANCH   1  16
TORSDOF 8
ENDMDL
