MODEL 1
REMARK VINA RESULT:      -7.0      0.000      0.000
REMARK  Name = 
REMARK  6 active torsions:
REMARK  status: ('A' for Active; 'I' for Inactive)
REMARK    1  A    between atoms: C_1  and  C_2
REMARK    2  A    between atoms: C_2  and  C_3
REMARK    3  A    between atoms: C_3  and  C_4
REMARK    4  A    between atoms: C_4  and  N_5
REMARK    5  A    between atoms: C_6  and  C_8
REMARK    6  A    between atoms: C_13  and  C_14
REMARK                            x       y       z     vdW  Elec       q    Type
REMARK                         _______ _______ _______ _____ _____    ______ ____
ROOT
ATOM      1  N   UNL     1       4.348   4.627  17.599  0.00  0.00    +0.000 N 
ATOM      2  C   UNL     1       3.838   3.355  17.966  0.00  0.00    +0.000 C 
ATOM      3  O   UNL     1       4.070   2.341  17.302  0.00  0.00    +0.000 OA
ATOM      4  C   UNL     1       5.344   4.639  16.582  0.00  0.00    +0.000 A 
ATOM      5  C   UNL     1       5.033   4.159  15.310  0.00  0.00    +0.000 A 
ATOM      6  C   UNL     1       5.987   4.231  14.298  0.00  0.00    +0.000 A 
ATOM      7  C   UNL     1       7.241   4.748  14.591  0.00  0.00    +0.000 A 
ATOM      8  C   UNL     1       7.473   5.204  15.877  0.00  0.00    +0.000 A 
ATOM      9  N   UNL     1       6.547   5.200  16.863  0.00  0.00    +0.000 NA
ENDROOT
BRANCH   2  10
ATOM     10  C   UNL     1       2.993   3.162  19.201  0.00  0.00    +0.000 A 
ATOM     11  C   UNL     1       3.560   2.606  20.362  0.00  0.00    +0.000 A 
ATOM     12  C   UNL     1       2.849   2.528  21.560  0.00  0.00    +0.000 A 
ATOM     13  C   UNL     1       1.521   2.923  21.601  0.00  0.00    +0.000 A 
ATOM     14  C   UNL     1       0.897   3.348  20.431  0.00  0.00    +0.000 A 
ATOM     15  C   UNL     1       1.605   3.446  19.214  0.00  0.00    +0.000 A 
ATOM     16  C   UNL     1       0.809   3.861  18.005  0.00  0.00    +0.000 C 
ENDBRANCH   2  10
BRANCH   1  17
ATOM     17  C   UNL     1       4.209   5.869  18.375  0.00  0.00    +0.000 C 
BRANCH  17  18
ATOM     18  C   UNL     1       3.559   7.081  17.689  0.00  0.00    +0.000 C 
BRANCH  18  20
ATOM     19  C   UNL     1       2.244   7.008  19.824  0.00  0.00    +0.000 C 
ATOM     20  C   UNL     1       2.353   7.639  18.443  0.00  0.00    +0.000 C 
ENDBRANCH  18  20
ENDBRANCH  17  18
ENDBRANCH   1  17
TORSDOF 4
ENDMDL
MODEL 2
REMARK VINA RESULT:      -7.0      0.577      1.678
REMARK  Name = 
REMARK  6 active torsions:
REMARK  status: ('A' for Active; 'I' for Inactive)
REMARK    1  A    between atoms: C_1  and  C_2
REMARK    2  A    between atoms: C_2  and  C_3
REMARK    3  A    between atoms: C_3  and  C_4
REMARK    4  A    between atoms: C_4  and  N_5
REMARK    5  A    between atoms: C_6  and  C_8
REMARK    6  A    between atoms: C_13  and  C_14
REMARK                            x       y       z     vdW  Elec       q    Type
REMARK                         _______ _______ _______ _____ _____    ______ ____
ROOT
ATOM      1  N   UNL     1       4.320   4.752  17.488  0.00  0.00    +0.000 N 
ATOM      2  C   UNL     1       3.688   3.541  17.868  0.00  0.00    +0.000 C 
ATOM      3  O   UNL     1       3.776   2.517  17.185  0.00  0.00    +0.000 OA
ATOM      4  C   UNL     1       5.267   4.668  16.429  0.00  0.00    +0.000 A 
ATOM      5  C   UNL     1       4.850   4.242  15.168  0.00  0.00    +0.000 A 
ATOM      6  C   UNL     1       5.761   4.222  14.115  0.00  0.00    +0.000 A 
ATOM      7  C   UNL     1       7.076   4.592  14.356  0.00  0.00    +0.000 A 
ATOM      8  C   UNL     1       7.413   5.002  15.635  0.00  0.00    +0.000 A 
ATOM      9  N   UNL     1       6.536   5.087  16.660  0.00  0.00    +0.000 NA
ENDROOT
BRANCH   2  10
ATOM     10  C   UNL     1       2.881   3.427  19.137  0.00  0.00    +0.000 A 
ATOM     11  C   UNL     1       1.652   4.100  19.254  0.00  0.00    +0.000 A 
ATOM     12  C   UNL     1       0.818   3.920  20.358  0.00  0.00    +0.000 A 
ATOM     13  C   UNL     1       1.237   3.129  21.416  0.00  0.00    +0.000 A 
ATOM     14  C   UNL     1       2.508   2.562  21.386  0.00  0.00    +0.000 A 
ATOM     15  C   UNL     1       3.359   2.723  20.270  0.00  0.00    +0.000 A 
ATOM     16  C   UNL     1       4.731   2.112  20.378  0.00  0.00    +0.000 C 
ENDBRANCH   2  10
BRANCH   1  17
ATOM     17  C   UNL     1       4.354   5.992  18.281  0.00  0.00    +0.000 C 
BRANCH  17  18
ATOM     18  C   UNL     1       3.674   7.241  17.698  0.00  0.00    +0.000 C 
BRANCH  18  20
ATOM     19  C   UNL     1       1.781   8.884  17.802  0.00  0.00    +0.000 C 
ATOM     20  C   UNL     1       2.410   7.657  18.448  0.00  0.00    +0.000 C 
ENDBRANCH  18  20
ENDBRANCH  17  18
ENDBRANCH   1  17
TORSDOF 4
ENDMDL
MODEL 3
REMARK VINA RESULT:      -6.9      2.162      3.904
REMARK  Name = 
REMARK  6 active torsions:
REMARK  status: ('A' for Active; 'I' for Inactive)
REMARK    1  A    between atoms: C_1  and  C_2
REMARK    2  A    between atoms: C_2  and  C_3
REMARK    3  A    between atoms: C_3  and  C_4
REMARK    4  A    between atoms: C_4  and  N_5
REMARK    5  A    between atoms: C_6  and  C_8
REMARK    6  A    between atoms: C_13  and  C_14
REMARK                            x       y       z     vdW  Elec       q    Type
REMARK                         _______ _______ _______ _____ _____    ______ ____
ROOT
ATOM      1  N   UNL     1       5.478   5.151  17.656  0.00  0.00    +0.000 N 
ATOM      2  C   UNL     1       4.697   4.788  18.783  0.00  0.00    +0.000 C 
ATOM      3  O   UNL     1       4.969   5.182  19.921  0.00  0.00    +0.000 OA
ATOM      4  C   UNL     1       6.430   6.189  17.854  0.00  0.00    +0.000 A 
ATOM      5  C   UNL     1       7.460   6.010  18.777  0.00  0.00    +0.000 A 
ATOM      6  C   UNL     1       8.429   6.999  18.924  0.00  0.00    +0.000 A 
ATOM      7  C   UNL     1       8.326   8.159  18.171  0.00  0.00    +0.000 A 
ATOM      8  C   UNL     1       7.276   8.263  17.275  0.00  0.00    +0.000 A 
ATOM      9  N   UNL     1       6.354   7.295  17.071  0.00  0.00    +0.000 NA
ENDROOT
BRANCH   2  10
ATOM     10  C   UNL     1       3.476   3.911  18.658  0.00  0.00    +0.000 A 
ATOM     11  C   UNL     1       3.602   2.513  18.736  0.00  0.00    +0.000 A 
ATOM     12  C   UNL     1       2.487   1.675  18.751  0.00  0.00    +0.000 A 
ATOM     13  C   UNL     1       1.219   2.212  18.598  0.00  0.00    +0.000 A 
ATOM     14  C   UNL     1       1.077   3.580  18.380  0.00  0.00    +0.000 A 
ATOM     15  C   UNL     1       2.194   4.444  18.375  0.00  0.00    +0.000 A 
ATOM     16  C   UNL     1       1.921   5.893  18.072  0.00  0.00    +0.000 C 
ENDBRANCH   2  10
BRANCH   1  17
ATOM     17  C   UNL     1       5.178   4.813  16.255  0.00  0.00    +0.000 C 
BRANCH  17  18
ATOM     18  C   UNL     1       6.168   3.911  15.502  0.00  0.00    +0.000 C 
BRANCH  18  20
ATOM     19  C   UNL     1       6.087   3.626  13.011  0.00  0.00    +0.000 C 
ATOM     20  C   UNL     1       6.614   4.480  14.157  0.00  0.00    +0.000 C 
ENDBRANCH  18  20
ENDBRANCH  17  18
ENDBRANCH   1  17
TORSDOF 4
ENDMDL
MODEL 4
REMARK VINA RESULT:      -6.8      2.047      4.027
REMARK  Name = 
REMARK  6 active torsions:
REMARK  status: ('A' for Active; 'I' for Inactive)
REMARK    1  A    between atoms: C_1  and  C_2
REMARK    2  A    between atoms: C_2  and  C_3
REMARK    3  A    between atoms: C_3  and  C_4
REMARK    4  A    between atoms: C_4  and  N_5
REMARK    5  A    between atoms: C_6  and  C_8
REMARK    6  A    between atoms: C_13  and  C_14
REMARK                            x       y       z     vdW  Elec       q    Type
REMARK                         _______ _______ _______ _____ _____    ______ ____
ROOT
ATOM      1  N   UNL     1       5.285   5.036  17.739  0.00  0.00    +0.000 N 
ATOM      2  C   UNL     1       4.502   4.791  18.896  0.00  0.00    +0.000 C 
ATOM      3  O   UNL     1       4.787   5.281  19.993  0.00  0.00    +0.000 OA
ATOM      4  C   UNL     1       6.258   6.069  17.839  0.00  0.00    +0.000 A 
ATOM      5  C   UNL     1       7.288   5.954  18.772  0.00  0.00    +0.000 A 
ATOM      6  C   UNL     1       8.277   6.933  18.827  0.00  0.00    +0.000 A 
ATOM      7  C   UNL     1       8.192   8.023  17.973  0.00  0.00    +0.000 A 
ATOM      8  C   UNL     1       7.140   8.066  17.074  0.00  0.00    +0.000 A 
ATOM      9  N   UNL     1       6.199   7.101  16.961  0.00  0.00    +0.000 NA
ENDROOT
BRANCH   2  10
ATOM     10  C   UNL     1       3.264   3.930  18.853  0.00  0.00    +0.000 A 
ATOM     11  C   UNL     1       2.044   4.473  18.413  0.00  0.00    +0.000 A 
ATOM     12  C   UNL     1       0.909   3.680  18.239  0.00  0.00    +0.000 A 
ATOM     13  C   UNL     1       0.944   2.339  18.589  0.00  0.00    +0.000 A 
ATOM     14  C   UNL     1       2.100   1.810  19.157  0.00  0.00    +0.000 A 
ATOM     15  C   UNL     1       3.261   2.595  19.327  0.00  0.00    +0.000 A 
ATOM     16  C   UNL     1       4.428   1.928  20.006  0.00  0.00    +0.000 C 
ENDBRANCH   2  10
BRANCH   1  17
ATOM     17  C   UNL     1       4.973   4.579  16.375  0.00  0.00    +0.000 C 
BRANCH  17  18
ATOM     18  C   UNL     1       6.045   3.780  15.617  0.00  0.00    +0.000 C 
BRANCH  18  20
ATOM     19  C   UNL     1       6.122   3.685  13.112  0.00  0.00    +0.000 C 
ATOM     20  C   UNL     1       6.540   4.469  14.348  0.00  0.00    +0.000 C 
ENDBRANCH  18  20
ENDBRANCH  17  18
ENDBRANCH   1  17
TORSDOF 4
ENDMDL
MODEL 5
REMARK VINA RESULT:      -6.7      2.384      6.048
REMARK  Name = 
REMARK  6 active torsions:
REMARK  status: ('A' for Active; 'I' for Inactive)
REMARK    1  A    between atoms: C_1  and  C_2
REMARK    2  A    between atoms: C_2  and  C_3
REMARK    3  A    between atoms: C_3  and  C_4
REMARK    4  A    between atoms: C_4  and  N_5
REMARK    5  A    between atoms: C_6  and  C_8
REMARK    6  A    between atoms: C_13  and  C_14
REMARK                            x       y       z     vdW  Elec       q    Type
REMARK                         _______ _______ _______ _____ _____    ______ ____
ROOT
ATOM      1  N   UNL     1       3.029   6.446  18.200  0.00  0.00    +0.000 N 
ATOM      2  C   UNL     1       4.192   6.855  17.497  0.00  0.00    +0.000 C 
ATOM      3  O   UNL     1       4.447   8.046  17.295  0.00  0.00    +0.000 OA
ATOM      4  C   UNL     1       2.307   7.467  18.879  0.00  0.00    +0.000 A 
ATOM      5  C   UNL     1       1.755   8.519  18.149  0.00  0.00    +0.000 A 
ATOM      6  C   UNL     1       0.993   9.483  18.805  0.00  0.00    +0.000 A 
ATOM      7  C   UNL     1       0.833   9.392  20.180  0.00  0.00    +0.000 A 
ATOM      8  C   UNL     1       1.412   8.318  20.834  0.00  0.00    +0.000 A 
ATOM      9  N   UNL     1       2.107   7.338  20.214  0.00  0.00    +0.000 NA
ENDROOT
BRANCH   2  10
ATOM     10  C   UNL     1       5.196   5.861  16.970  0.00  0.00    +0.000 A 
ATOM     11  C   UNL     1       5.082   5.376  15.655  0.00  0.00    +0.000 A 
ATOM     12  C   UNL     1       6.058   4.555  15.088  0.00  0.00    +0.000 A 
ATOM     13  C   UNL     1       7.129   4.127  15.857  0.00  0.00    +0.000 A 
ATOM     14  C   UNL     1       7.191   4.480  17.202  0.00  0.00    +0.000 A 
ATOM     15  C   UNL     1       6.219   5.321  17.787  0.00  0.00    +0.000 A 
ATOM     16  C   UNL     1       6.361   5.586  19.262  0.00  0.00    +0.000 C 
ENDBRANCH   2  10
BRANCH   1  17
ATOM     17  C   UNL     1       2.691   5.063  18.574  0.00  0.00    +0.000 C 
BRANCH  17  18
ATOM     18  C   UNL     1       1.867   4.227  17.582  0.00  0.00    +0.000 C 
BRANCH  18  20
ATOM     19  C   UNL     1       3.727   2.628  18.108  0.00  0.00    +0.000 C 
ATOM     20  C   UNL     1       2.502   2.881  17.240  0.00  0.00    +0.000 C 
ENDBRANCH  18  20
ENDBRANCH  17  18
ENDBRANCH   1  17
TORSDOF 4
ENDMDL
MODEL 6
REMARK VINA RESULT:      -6.6      1.426      5.719
REMARK  Name = 
REMARK  6 active torsions:
REMARK  status: ('A' for Active; 'I' for Inactive)
REMARK    1  A    between atoms: C_1  and  C_2
REMARK    2  A    between atoms: C_2  and  C_3
REMARK    3  A    between atoms: C_3  and  C_4
REMARK    4  A    between atoms: C_4  and  N_5
REMARK    5  A    between atoms: C_6  and  C_8
REMARK    6  A    between atoms: C_13  and  C_14
REMARK                            x       y       z     vdW  Elec       q    Type
REMARK                         _______ _______ _______ _____ _____    ______ ____
ROOT
ATOM      1  N   UNL     1       3.542   4.579  18.545  0.00  0.00    +0.000 N 
ATOM      2  C   UNL     1       4.784   3.942  18.291  0.00  0.00    +0.000 C 
ATOM      3  O   UNL     1       5.217   3.043  19.017  0.00  0.00    +0.000 OA
ATOM      4  C   UNL     1       2.703   3.966  19.517  0.00  0.00    +0.000 A 
ATOM      5  C   UNL     1       3.152   3.843  20.832  0.00  0.00    +0.000 A 
ATOM      6  C   UNL     1       2.307   3.303  21.797  0.00  0.00    +0.000 A 
ATOM      7  C   UNL     1       1.046   2.865  21.419  0.00  0.00    +0.000 A 
ATOM      8  C   UNL     1       0.673   3.021  20.095  0.00  0.00    +0.000 A 
ATOM      9  N   UNL     1       1.452   3.595  19.149  0.00  0.00    +0.000 NA
ENDROOT
BRANCH   2  10
ATOM     10  C   UNL     1       5.643   4.314  17.108  0.00  0.00    +0.000 A 
ATOM     11  C   UNL     1       5.481   3.643  15.882  0.00  0.00    +0.000 A 
ATOM     12  C   UNL     1       6.165   4.040  14.733  0.00  0.00    +0.000 A 
ATOM     13  C   UNL     1       7.097   5.064  14.804  0.00  0.00    +0.000 A 
ATOM     14  C   UNL     1       7.375   5.652  16.035  0.00  0.00    +0.000 A 
ATOM     15  C   UNL     1       6.683   5.271  17.205  0.00  0.00    +0.000 A 
ATOM     16  C   UNL     1       7.112   5.936  18.486  0.00  0.00    +0.000 C 
ENDBRANCH   2  10
BRANCH   1  17
ATOM     17  C   UNL     1       2.899   5.587  17.687  0.00  0.00    +0.000 C 
BRANCH  17  18
ATOM     18  C   UNL     1       3.317   7.056  17.859  0.00  0.00    +0.000 C 
BRANCH  18  20
ATOM     19  C   UNL     1       1.971   9.173  17.846  0.00  0.00    +0.000 C 
ATOM     20  C   UNL     1       2.294   7.900  18.616  0.00  0.00    +0.000 C 
ENDBRANCH  18  20
ENDBRANCH  17  18
ENDBRANCH   1  17
TORSDOF 4
ENDMDL
MODEL 7
REMARK VINA RESULT:      -6.4      1.757      5.813
REMARK  Name = 
REMARK  6 active torsions:
REMARK  status: ('A' for Active; 'I' for Inactive)
REMARK    1  A    between atoms: C_1  and  C_2
REMARK    2  A    between atoms: C_2  and  C_3
REMARK    3  A    between atoms: C_3  and  C_4
REMARK    4  A    between atoms: C_4  and  N_5
REMARK    5  A    between atoms: C_6  and  C_8
REMARK    6  A    between atoms: C_13  and  C_14
REMARK                            x       y       z     vdW  Elec       q    Type
REMARK                         _______ _______ _______ _____ _____    ______ ____
ROOT
ATOM      1  N   UNL     1       4.267   3.657  18.596  0.00  0.00    +0.000 N 
ATOM      2  C   UNL     1       3.900   3.917  17.251  0.00  0.00    +0.000 C 
ATOM      3  O   UNL     1       2.742   3.769  16.849  0.00  0.00    +0.000 OA
ATOM      4  C   UNL     1       3.200   3.467  19.518  0.00  0.00    +0.000 A 
ATOM      5  C   UNL     1       2.311   2.408  19.332  0.00  0.00    +0.000 A 
ATOM      6  C   UNL     1       1.306   2.184  20.269  0.00  0.00    +0.000 A 
ATOM      7  C   UNL     1       1.190   3.044  21.351  0.00  0.00    +0.000 A 
ATOM      8  C   UNL     1       2.110   4.072  21.467  0.00  0.00    +0.000 A 
ATOM      9  N   UNL     1       3.130   4.279  20.603  0.00  0.00    +0.000 NA
ENDROOT
BRANCH   2  10
ATOM     10  C   UNL     1       4.900   4.405  16.232  0.00  0.00    +0.000 A 
ATOM     11  C   UNL     1       5.750   3.491  15.585  0.00  0.00    +0.000 A 
ATOM     12  C   UNL     1       6.598   3.884  14.549  0.00  0.00    +0.000 A 
ATOM     13  C   UNL     1       6.681   5.222  14.196  0.00  0.00    +0.000 A 
ATOM     14  C   UNL     1       5.952   6.166  14.915  0.00  0.00    +0.000 A 
ATOM     15  C   UNL     1       5.079   5.783  15.957  0.00  0.00    +0.000 A 
ATOM     16  C   UNL     1       4.390   6.898  16.698  0.00  0.00    +0.000 C 
ENDBRANCH   2  10
BRANCH   1  17
ATOM     17  C   UNL     1       5.592   3.896  19.190  0.00  0.00    +0.000 C 
BRANCH  17  18
ATOM     18  C   UNL     1       6.098   5.345  19.269  0.00  0.00    +0.000 C 
BRANCH  18  20
ATOM     19  C   UNL     1       7.763   6.893  18.209  0.00  0.00    +0.000 C 
ATOM     20  C   UNL     1       7.547   5.514  18.819  0.00  0.00    +0.000 C 
ENDBRANCH  18  20
ENDBRANCH  17  18
ENDBRANCH   1  17
TORSDOF 4
ENDMDL
MODEL 8
REMARK VINA RESULT:      -6.3      1.146      5.648
REMARK  Name = 
REMARK  6 active torsions:
REMARK  status: ('A' for Active; 'I' for Inactive)
REMARK    1  A    between atoms: C_1  and  C_2
REMARK    2  A    between atoms: C_2  and  C_3
REMARK    3  A    between atoms: C_3  and  C_4
REMARK    4  A    between atoms: C_4  and  N_5
REMARK    5  A    between atoms: C_6  and  C_8
REMARK    6  A    between atoms: C_13  and  C_14
REMARK                            x       y       z     vdW  Elec       q    Type
REMARK                         _______ _______ _______ _____ _____    ______ ____
ROOT
ATOM      1  N   UNL     1       4.074   4.521  18.684  0.00  0.00    +0.000 N 
ATOM      2  C   UNL     1       4.606   3.599  17.746  0.00  0.00    +0.000 C 
ATOM      3  O   UNL     1       4.405   2.385  17.838  0.00  0.00    +0.000 OA
ATOM      4  C   UNL     1       3.091   4.016  19.580  0.00  0.00    +0.000 A 
ATOM      5  C   UNL     1       3.428   2.989  20.461  0.00  0.00    +0.000 A 
ATOM      6  C   UNL     1       2.486   2.539  21.383  0.00  0.00    +0.000 A 
ATOM      7  C   UNL     1       1.219   3.102  21.378  0.00  0.00    +0.000 A 
ATOM      8  C   UNL     1       0.960   4.117  20.473  0.00  0.00    +0.000 A 
ATOM      9  N   UNL     1       1.873   4.613  19.607  0.00  0.00    +0.000 NA
ENDROOT
BRANCH   2  10
ATOM     10  C   UNL     1       5.439   4.049  16.571  0.00  0.00    +0.000 A 
ATOM     11  C   UNL     1       4.954   3.886  15.262  0.00  0.00    +0.000 A 
ATOM     12  C   UNL     1       5.635   4.401  14.158  0.00  0.00    +0.000 A 
ATOM     13  C   UNL     1       6.865   5.014  14.332  0.00  0.00    +0.000 A 
ATOM     14  C   UNL     1       7.432   5.064  15.602  0.00  0.00    +0.000 A 
ATOM     15  C   UNL     1       6.750   4.560  16.732  0.00  0.00    +0.000 A 
ATOM     16  C   UNL     1       7.488   4.619  18.043  0.00  0.00    +0.000 C 
ENDBRANCH   2  10
BRANCH   1  17
ATOM     17  C   UNL     1       4.178   5.988  18.605  0.00  0.00    +0.000 C 
BRANCH  17  18
ATOM     18  C   UNL     1       3.531   6.694  17.403  0.00  0.00    +0.000 C 
BRANCH  18  20
ATOM     19  C   UNL     1       2.133   7.981  19.041  0.00  0.00    +0.000 C 
ATOM     20  C   UNL     1       2.927   8.055  17.744  0.00  0.00    +0.000 C 
ENDBRANCH  18  20
ENDBRANCH  17  18
ENDBRANCH   1  17
TORSDOF 4
ENDMDL
MODEL 9
REMARK VINA RESULT:      -6.0      1.638      5.658
REMARK  Name = 
REMARK  6 active torsions:
REMARK  status: ('A' for Active; 'I' for Inactive)
REMARK    1  A    between atoms: C_1  and  C_2
REMARK    2  A    between atoms: C_2  and  C_3
REMARK    3  A    between atoms: C_3  and  C_4
REMARK    4  A    between atoms: C_4  and  N_5
REMARK    5  A    between atoms: C_6  and  C_8
REMARK    6  A    between atoms: C_13  and  C_14
REMARK                            x       y       z     vdW  Elec       q    Type
REMARK                         _______ _______ _______ _____ _____    ______ ____
ROOT
ATOM      1  N   UNL     1       3.479   5.034  18.959  0.00  0.00    +0.000 N 
ATOM      2  C   UNL     1       4.831   4.625  18.826  0.00  0.00    +0.000 C 
ATOM      3  O   UNL     1       5.307   3.712  19.506  0.00  0.00    +0.000 OA
ATOM      4  C   UNL     1       2.632   4.181  19.720  0.00  0.00    +0.000 A 
ATOM      5  C   UNL     1       2.918   3.952  21.066  0.00  0.00    +0.000 A 
ATOM      6  C   UNL     1       2.054   3.171  21.828  0.00  0.00    +0.000 A 
ATOM      7  C   UNL     1       0.944   2.606  21.217  0.00  0.00    +0.000 A 
ATOM      8  C   UNL     1       0.727   2.879  19.878  0.00  0.00    +0.000 A 
ATOM      9  N   UNL     1       1.518   3.681  19.129  0.00  0.00    +0.000 NA
ENDROOT
BRANCH   2  10
ATOM     10  C   UNL     1       5.766   5.272  17.834  0.00  0.00    +0.000 A 
ATOM     11  C   UNL     1       6.473   6.435  18.188  0.00  0.00    +0.000 A 
ATOM     12  C   UNL     1       7.439   6.990  17.347  0.00  0.00    +0.000 A 
ATOM     13  C   UNL     1       7.655   6.445  16.092  0.00  0.00    +0.000 A 
ATOM     14  C   UNL     1       6.870   5.378  15.664  0.00  0.00    +0.000 A 
ATOM     15  C   UNL     1       5.898   4.796  16.506  0.00  0.00    +0.000 A 
ATOM     16  C   UNL     1       5.072   3.686  15.912  0.00  0.00    +0.000 C 
ENDBRANCH   2  10
BRANCH   1  17
ATOM     17  C   UNL     1       2.798   6.041  18.129  0.00  0.00    +0.000 C 
BRANCH  17  18
ATOM     18  C   UNL     1       2.478   7.403  18.763  0.00  0.00    +0.000 C 
BRANCH  18  20
ATOM     19  C   UNL     1       1.211   9.429  17.999  0.00  0.00    +0.000 C 
ATOM     20  C   UNL     1       2.432   8.552  17.758  0.00  0.00    +0.000 C 
ENDBRANCH  18  20
ENDBRANCH  17  18
ENDBRANCH   1  17
TORSDOF 4
ENDMDL
