MODEL 1
REMARK VINA RESULT:      -6.7      0.000      0.000
REMARK  Name = 
REMARK  10 active torsions:
REMARK  status: ('A' for Active; 'I' for Inactive)
REMARK    1  A    between atoms: C_1  and  C_2
REMARK    2  A    between atoms: N_4  and  C_5
REMARK    3  A    between atoms: C_11  and  N_12
REMARK    4  A    between atoms: C_17  and  N_18
REMARK    5  A    between atoms: N_18  and  C_19
REMARK    6  A    between atoms: C_19  and  C_20
REMARK    7  A    between atoms: C_20  and  C_21
REMARK    8  A    between atoms: C_21  and  N_22
REMARK    9  A    between atoms: N_22  and  C_23
REMARK   10  A    between atoms: N_22  and  C_24
REMARK                            x       y       z     vdW  Elec       q    Type
REMARK                         _______ _______ _______ _____ _____    ______ ____
ROOT
ATOM      1  C   UNL     1       1.854   9.791  17.521  0.00  0.00    +0.000 C 
ATOM      2  C   UNL     1       1.881   8.903  18.741  0.00  0.00    +0.000 A 
ATOM      3  N   UNL     1       1.224   9.426  19.813  0.00  0.00    +0.000 NA
ATOM      4  N   UNL     1       1.178   8.535  20.766  0.00  0.00    +0.000 N 
ATOM      5  C   UNL     1       0.628   8.764  22.091  0.00  0.00    +0.000 C 
ATOM      6  C   UNL     1       1.730   7.406  20.341  0.00  0.00    +0.000 A 
ATOM      7  N   UNL     1       1.706   6.275  21.032  0.00  0.00    +0.000 NA
ATOM      8  C   UNL     1       2.285   5.147  20.575  0.00  0.00    +0.000 A 
ATOM      9  C   UNL     1       2.090   3.993  21.326  0.00  0.00    +0.000 A 
ATOM     10  C   UNL     1       2.715   2.816  20.962  0.00  0.00    +0.000 A 
ATOM     11  C   UNL     1       3.573   2.779  19.854  0.00  0.00    +0.000 A 
ATOM     12  C   UNL     1       3.739   3.954  19.069  0.00  0.00    +0.000 A 
ATOM     13  C   UNL     1       3.058   5.187  19.385  0.00  0.00    +0.000 A 
ATOM     14  C   UNL     1       3.119   6.422  18.608  0.00  0.00    +0.000 A 
ATOM     15  C   UNL     1       2.326   7.576  19.110  0.00  0.00    +0.000 A 
ENDROOT
BRANCH  11  16
ATOM     16  N   UNL     1       4.243   1.548  19.551  0.00  0.00    +0.000 N 
ATOM     17  O   UNL     1       3.905   0.855  18.637  0.00  0.00    +0.000 OA
ATOM     18  O   UNL     1       5.221   1.134  20.333  0.00  0.00    +0.000 OA
ENDBRANCH  11  16
BRANCH  14  19
ATOM     19  N   UNL     1       4.015   6.467  17.463  0.00  0.00    +0.000 N 
ATOM     20  H   UNL     1       3.829   5.813  16.694  0.00  0.00    +0.000 HD
BRANCH  19  21
ATOM     21  C   UNL     1       5.323   7.056  17.421  0.00  0.00    +0.000 C 
BRANCH  21  22
ATOM     22  C   UNL     1       6.414   6.150  18.047  0.00  0.00    +0.000 C 
BRANCH  22  23
ATOM     23  C   UNL     1       6.994   5.087  17.070  0.00  0.00    +0.000 C 
BRANCH  23  24
ATOM     24  N   UNL     1       6.222   4.962  15.811  0.00  0.00    +0.000 NA
ATOM     25  C   UNL     1       7.079   5.027  14.612  0.00  0.00    +0.000 C 
ATOM     26  C   UNL     1       5.493   3.680  15.798  0.00  0.00    +0.000 C 
ENDBRANCH  23  24
ENDBRANCH  22  23
ENDBRANCH  21  22
ENDBRANCH  19  21
ENDBRANCH  14  19
TORSDOF 6
ENDMDL
MODEL 2
REMARK VINA RESULT:      -6.7      0.999      1.448
REMARK  Name = 
REMARK  10 active torsions:
REMARK  status: ('A' for Active; 'I' for Inactive)
REMARK    1  A    between atoms: C_1  and  C_2
REMARK    2  A    between atoms: N_4  and  C_5
REMARK    3  A    between atoms: C_11  and  N_12
REMARK    4  A    between atoms: C_17  and  N_18
REMARK    5  A    between atoms: N_18  and  C_19
REMARK    6  A    between atoms: C_19  and  C_20
REMARK    7  A    between atoms: C_20  and  C_21
REMARK    8  A    between atoms: C_21  and  N_22
REMARK    9  A    between atoms: N_22  and  C_23
REMARK   10  A    between atoms: N_22  and  C_24
REMARK                            x       y       z     vdW  Elec       q    Type
REMARK                         _______ _______ _______ _____ _____    ______ ____
ROOT
ATOM      1  C   UNL     1       1.878  10.060  17.807  0.00  0.00    +0.000 C 
ATOM      2  C   UNL     1       1.752   9.095  18.961  0.00  0.00    +0.000 A 
ATOM      3  N   UNL     1       0.908   9.521  19.941  0.00  0.00    +0.000 NA
ATOM      4  N   UNL     1       0.753   8.568  20.820  0.00  0.00    +0.000 N 
ATOM      5  C   UNL     1      -0.011   8.689  22.050  0.00  0.00    +0.000 C 
ATOM      6  C   UNL     1       1.420   7.491  20.425  0.00  0.00    +0.000 A 
ATOM      7  N   UNL     1       1.340   6.317  21.035  0.00  0.00    +0.000 NA
ATOM      8  C   UNL     1       2.037   5.244  20.612  0.00  0.00    +0.000 A 
ATOM      9  C   UNL     1       1.780   4.037  21.252  0.00  0.00    +0.000 A 
ATOM     10  C   UNL     1       2.510   2.911  20.926  0.00  0.00    +0.000 A 
ATOM     11  C   UNL     1       3.535   2.978  19.971  0.00  0.00    +0.000 A 
ATOM     12  C   UNL     1       3.768   4.208  19.294  0.00  0.00    +0.000 A 
ATOM     13  C   UNL     1       2.987   5.392  19.567  0.00  0.00    +0.000 A 
ATOM     14  C   UNL     1       3.113   6.676  18.885  0.00  0.00    +0.000 A 
ATOM     15  C   UNL     1       2.195   7.763  19.319  0.00  0.00    +0.000 A 
ENDROOT
BRANCH  11  16
ATOM     16  N   UNL     1       4.303   1.796  19.709  0.00  0.00    +0.000 N 
ATOM     17  O   UNL     1       4.045   1.067  18.797  0.00  0.00    +0.000 OA
ATOM     18  O   UNL     1       5.284   1.466  20.527  0.00  0.00    +0.000 OA
ENDBRANCH  11  16
BRANCH  14  19
ATOM     19  N   UNL     1       4.176   6.829  17.905  0.00  0.00    +0.000 N 
ATOM     20  H   UNL     1       4.753   7.677  17.965  0.00  0.00    +0.000 HD
BRANCH  19  21
ATOM     21  C   UNL     1       4.300   6.130  16.658  0.00  0.00    +0.000 C 
BRANCH  21  22
ATOM     22  C   UNL     1       5.770   5.994  16.186  0.00  0.00    +0.000 C 
BRANCH  22  23
ATOM     23  C   UNL     1       6.678   5.187  17.159  0.00  0.00    +0.000 C 
BRANCH  23  24
ATOM     24  N   UNL     1       7.747   6.005  17.779  0.00  0.00    +0.000 NA
ATOM     25  C   UNL     1       7.576   7.448  17.526  0.00  0.00    +0.000 C 
ATOM     26  C   UNL     1       7.762   5.783  19.237  0.00  0.00    +0.000 C 
ENDBRANCH  23  24
ENDBRANCH  22  23
ENDBRANCH  21  22
ENDBRANCH  19  21
ENDBRANCH  14  19
TORSDOF 6
ENDMDL
MODEL 3
REMARK VINA RESULT:      -6.6      3.396      6.480
REMARK  Name = 
REMARK  10 active torsions:
REMARK  status: ('A' for Active; 'I' for Inactive)
REMARK    1  A    between atoms: C_1  and  C_2
REMARK    2  A    between atoms: N_4  and  C_5
REMARK    3  A    between atoms: C_11  and  N_12
REMARK    4  A    between atoms: C_17  and  N_18
REMARK    5  A    between atoms: N_18  and  C_19
REMARK    6  A    between atoms: C_19  and  C_20
REMARK    7  A    between atoms: C_20  and  C_21
REMARK    8  A    between atoms: C_21  and  N_22
REMARK    9  A    between atoms: N_22  and  C_23
REMARK   10  A    between atoms: N_22  and  C_24
REMARK                            x       y       z     vdW  Elec       q    Type
REMARK                         _______ _______ _______ _____ _____    ______ ____
ROOT
ATOM      1  C   UNL     1       4.860   2.745  19.606  0.00  0.00    +0.000 C 
ATOM      2  C   UNL     1       4.877   4.145  19.041  0.00  0.00    +0.000 A 
ATOM      3  N   UNL     1       5.844   4.343  18.102  0.00  0.00    +0.000 NA
ATOM      4  N   UNL     1       5.692   5.526  17.571  0.00  0.00    +0.000 N 
ATOM      5  C   UNL     1       6.588   6.119  16.593  0.00  0.00    +0.000 C 
ATOM      6  C   UNL     1       4.612   6.103  18.082  0.00  0.00    +0.000 A 
ATOM      7  N   UNL     1       4.117   7.249  17.638  0.00  0.00    +0.000 NA
ATOM      8  C   UNL     1       3.022   7.813  18.185  0.00  0.00    +0.000 A 
ATOM      9  C   UNL     1       2.522   8.950  17.559  0.00  0.00    +0.000 A 
ATOM     10  C   UNL     1       1.449   9.627  18.106  0.00  0.00    +0.000 A 
ATOM     11  C   UNL     1       0.873   9.195  19.310  0.00  0.00    +0.000 A 
ATOM     12  C   UNL     1       1.366   8.010  19.925  0.00  0.00    +0.000 A 
ATOM     13  C   UNL     1       2.448   7.244  19.353  0.00  0.00    +0.000 A 
ATOM     14  C   UNL     1       2.980   5.990  19.878  0.00  0.00    +0.000 A 
ATOM     15  C   UNL     1       4.095   5.360  19.121  0.00  0.00    +0.000 A 
ENDROOT
BRANCH  11  16
ATOM     16  N   UNL     1      -0.201   9.964  19.867  0.00  0.00    +0.000 N 
ATOM     17  O   UNL     1      -0.223  10.270  21.022  0.00  0.00    +0.000 OA
ATOM     18  O   UNL     1      -1.226  10.292  19.104  0.00  0.00    +0.000 OA
ENDBRANCH  11  16
BRANCH  14  19
ATOM     19  N   UNL     1       2.453   5.498  21.141  0.00  0.00    +0.000 N 
ATOM     20  H   UNL     1       2.715   6.010  21.992  0.00  0.00    +0.000 HD
BRANCH  19  21
ATOM     21  C   UNL     1       1.906   4.196  21.392  0.00  0.00    +0.000 C 
BRANCH  21  22
ATOM     22  C   UNL     1       0.856   3.768  20.336  0.00  0.00    +0.000 C 
BRANCH  22  23
ATOM     23  C   UNL     1       1.224   2.465  19.567  0.00  0.00    +0.000 C 
BRANCH  23  24
ATOM     24  N   UNL     1       1.248   2.638  18.096  0.00  0.00    +0.000 NA
ATOM     25  C   UNL     1       1.242   4.057  17.692  0.00  0.00    +0.000 C 
ATOM     26  C   UNL     1       2.453   1.996  17.538  0.00  0.00    +0.000 C 
ENDBRANCH  23  24
ENDBRANCH  22  23
ENDBRANCH  21  22
ENDBRANCH  19  21
ENDBRANCH  14  19
TORSDOF 6
ENDMDL
MODEL 4
REMARK VINA RESULT:      -6.3      0.818      1.106
REMARK  Name = 
REMARK  10 active torsions:
REMARK  status: ('A' for Active; 'I' for Inactive)
REMARK    1  A    between atoms: C_1  and  C_2
REMARK    2  A    between atoms: N_4  and  C_5
REMARK    3  A    between atoms: C_11  and  N_12
REMARK    4  A    between atoms: C_17  and  N_18
REMARK    5  A    between atoms: N_18  and  C_19
REMARK    6  A    between atoms: C_19  and  C_20
REMARK    7  A    between atoms: C_20  and  C_21
REMARK    8  A    between atoms: C_21  and  N_22
REMARK    9  A    between atoms: N_22  and  C_23
REMARK   10  A    between atoms: N_22  and  C_24
REMARK                            x       y       z     vdW  Elec       q    Type
REMARK                         _______ _______ _______ _____ _____    ______ ____
ROOT
ATOM      1  C   UNL     1       2.033   9.809  17.719  0.00  0.00    +0.000 C 
ATOM      2  C   UNL     1       1.882   8.873  18.893  0.00  0.00    +0.000 A 
ATOM      3  N   UNL     1       1.002   9.315  19.835  0.00  0.00    +0.000 NA
ATOM      4  N   UNL     1       0.829   8.384  20.733  0.00  0.00    +0.000 N 
ATOM      5  C   UNL     1       0.025   8.528  21.935  0.00  0.00    +0.000 C 
ATOM      6  C   UNL     1       1.519   7.304  20.387  0.00  0.00    +0.000 A 
ATOM      7  N   UNL     1       1.432   6.146  21.026  0.00  0.00    +0.000 NA
ATOM      8  C   UNL     1       2.154   5.071  20.654  0.00  0.00    +0.000 A 
ATOM      9  C   UNL     1       1.889   3.877  21.317  0.00  0.00    +0.000 A 
ATOM     10  C   UNL     1       2.642   2.752  21.044  0.00  0.00    +0.000 A 
ATOM     11  C   UNL     1       3.696   2.806  20.121  0.00  0.00    +0.000 A 
ATOM     12  C   UNL     1       3.937   4.020  19.419  0.00  0.00    +0.000 A 
ATOM     13  C   UNL     1       3.135   5.202  19.636  0.00  0.00    +0.000 A 
ATOM     14  C   UNL     1       3.269   6.469  18.924  0.00  0.00    +0.000 A 
ATOM     15  C   UNL     1       2.327   7.557  19.300  0.00  0.00    +0.000 A 
ENDROOT
BRANCH  11  16
ATOM     16  N   UNL     1       4.484   1.626  19.914  0.00  0.00    +0.000 N 
ATOM     17  O   UNL     1       4.270   0.877  19.007  0.00  0.00    +0.000 OA
ATOM     18  O   UNL     1       5.433   1.322  20.778  0.00  0.00    +0.000 OA
ENDBRANCH  11  16
BRANCH  14  19
ATOM     19  N   UNL     1       4.362   6.609  17.975  0.00  0.00    +0.000 N 
ATOM     20  H   UNL     1       5.039   7.362  18.144  0.00  0.00    +0.000 HD
BRANCH  19  21
ATOM     21  C   UNL     1       4.421   6.063  16.649  0.00  0.00    +0.000 C 
BRANCH  21  22
ATOM     22  C   UNL     1       5.785   5.402  16.329  0.00  0.00    +0.000 C 
BRANCH  22  23
ATOM     23  C   UNL     1       5.670   3.987  15.688  0.00  0.00    +0.000 C 
BRANCH  23  24
ATOM     24  N   UNL     1       6.414   3.858  14.413  0.00  0.00    +0.000 NA
ATOM     25  C   UNL     1       5.522   3.704  13.249  0.00  0.00    +0.000 C 
ATOM     26  C   UNL     1       7.257   5.050  14.205  0.00  0.00    +0.000 C 
ENDBRANCH  23  24
ENDBRANCH  22  23
ENDBRANCH  21  22
ENDBRANCH  19  21
ENDBRANCH  14  19
TORSDOF 6
ENDMDL
MODEL 5
REMARK VINA RESULT:      -6.3      1.915      4.423
REMARK  Name = 
REMARK  10 active torsions:
REMARK  status: ('A' for Active; 'I' for Inactive)
REMARK    1  A    between atoms: C_1  and  C_2
REMARK    2  A    between atoms: N_4  and  C_5
REMARK    3  A    between atoms: C_11  and  N_12
REMARK    4  A    between atoms: C_17  and  N_18
REMARK    5  A    between atoms: N_18  and  C_19
REMARK    6  A    between atoms: C_19  and  C_20
REMARK    7  A    between atoms: C_20  and  C_21
REMARK    8  A    between atoms: C_21  and  N_22
REMARK    9  A    between atoms: N_22  and  C_23
REMARK   10  A    between atoms: N_22  and  C_24
REMARK                            x       y       z     vdW  Elec       q    Type
REMARK                         _______ _______ _______ _____ _____    ______ ____
ROOT
ATOM      1  C   UNL     1       0.865   8.287  22.090  0.00  0.00    +0.000 C 
ATOM      2  C   UNL     1       1.215   8.355  20.624  0.00  0.00    +0.000 A 
ATOM      3  N   UNL     1       0.672   9.426  19.981  0.00  0.00    +0.000 NA
ATOM      4  N   UNL     1       1.141   9.480  18.764  0.00  0.00    +0.000 N 
ATOM      5  C   UNL     1       0.725  10.440  17.755  0.00  0.00    +0.000 C 
ATOM      6  C   UNL     1       2.033   8.513  18.591  0.00  0.00    +0.000 A 
ATOM      7  N   UNL     1       2.785   8.398  17.506  0.00  0.00    +0.000 NA
ATOM      8  C   UNL     1       3.676   7.397  17.359  0.00  0.00    +0.000 A 
ATOM      9  C   UNL     1       4.497   7.448  16.237  0.00  0.00    +0.000 A 
ATOM     10  C   UNL     1       5.380   6.418  15.978  0.00  0.00    +0.000 A 
ATOM     11  C   UNL     1       5.440   5.301  16.824  0.00  0.00    +0.000 A 
ATOM     12  C   UNL     1       4.624   5.273  17.990  0.00  0.00    +0.000 A 
ATOM     13  C   UNL     1       3.729   6.357  18.324  0.00  0.00    +0.000 A 
ATOM     14  C   UNL     1       2.901   6.444  19.522  0.00  0.00    +0.000 A 
ATOM     15  C   UNL     1       2.058   7.660  19.673  0.00  0.00    +0.000 A 
ENDROOT
BRANCH  11  16
ATOM     16  N   UNL     1       6.332   4.232  16.482  0.00  0.00    +0.000 N 
ATOM     17  O   UNL     1       7.517   4.338  16.604  0.00  0.00    +0.000 OA
ATOM     18  O   UNL     1       5.844   3.123  15.962  0.00  0.00    +0.000 OA
ENDBRANCH  11  16
BRANCH  14  19
ATOM     19  N   UNL     1       2.887   5.307  20.429  0.00  0.00    +0.000 N 
ATOM     20  H   UNL     1       3.696   4.675  20.405  0.00  0.00    +0.000 HD
BRANCH  19  21
ATOM     21  C   UNL     1       1.742   4.758  21.097  0.00  0.00    +0.000 C 
BRANCH  21  22
ATOM     22  C   UNL     1       1.157   3.518  20.374  0.00  0.00    +0.000 C 
BRANCH  22  23
ATOM     23  C   UNL     1       2.195   2.389  20.110  0.00  0.00    +0.000 C 
BRANCH  23  24
ATOM     24  N   UNL     1       2.939   2.559  18.840  0.00  0.00    +0.000 NA
ATOM     25  C   UNL     1       3.652   1.334  18.432  0.00  0.00    +0.000 C 
ATOM     26  C   UNL     1       2.005   2.938  17.763  0.00  0.00    +0.000 C 
ENDBRANCH  23  24
ENDBRANCH  22  23
ENDBRANCH  21  22
ENDBRANCH  19  21
ENDBRANCH  14  19
TORSDOF 6
ENDMDL
MODEL 6
REMARK VINA RESULT:      -6.3      3.714      6.944
REMARK  Name = 
REMARK  10 active torsions:
REMARK  status: ('A' for Active; 'I' for Inactive)
REMARK    1  A    between atoms: C_1  and  C_2
REMARK    2  A    between atoms: N_4  and  C_5
REMARK    3  A    between atoms: C_11  and  N_12
REMARK    4  A    between atoms: C_17  and  N_18
REMARK    5  A    between atoms: N_18  and  C_19
REMARK    6  A    between atoms: C_19  and  C_20
REMARK    7  A    between atoms: C_20  and  C_21
REMARK    8  A    between atoms: C_21  and  N_22
REMARK    9  A    between atoms: N_22  and  C_23
REMARK   10  A    between atoms: N_22  and  C_24
REMARK                            x       y       z     vdW  Elec       q    Type
REMARK                         _______ _______ _______ _____ _____    ______ ____
ROOT
ATOM      1  C   UNL     1       5.218   4.725  19.999  0.00  0.00    +0.000 C 
ATOM      2  C   UNL     1       5.766   5.289  18.710  0.00  0.00    +0.000 A 
ATOM      3  N   UNL     1       6.611   6.342  18.891  0.00  0.00    +0.000 NA
ATOM      4  N   UNL     1       7.142   6.668  17.744  0.00  0.00    +0.000 N 
ATOM      5  C   UNL     1       8.029   7.800  17.531  0.00  0.00    +0.000 C 
ATOM      6  C   UNL     1       6.726   5.823  16.809  0.00  0.00    +0.000 A 
ATOM      7  N   UNL     1       7.202   5.810  15.572  0.00  0.00    +0.000 NA
ATOM      8  C   UNL     1       6.751   4.944  14.643  0.00  0.00    +0.000 A 
ATOM      9  C   UNL     1       7.409   4.939  13.418  0.00  0.00    +0.000 A 
ATOM     10  C   UNL     1       6.956   4.133  12.392  0.00  0.00    +0.000 A 
ATOM     11  C   UNL     1       5.814   3.337  12.562  0.00  0.00    +0.000 A 
ATOM     12  C   UNL     1       5.168   3.319  13.830  0.00  0.00    +0.000 A 
ATOM     13  C   UNL     1       5.647   4.104  14.944  0.00  0.00    +0.000 A 
ATOM     14  C   UNL     1       5.087   4.106  16.292  0.00  0.00    +0.000 A 
ATOM     15  C   UNL     1       5.746   4.987  17.295  0.00  0.00    +0.000 A 
ENDROOT
BRANCH  11  16
ATOM     16  N   UNL     1       5.349   2.561  11.449  0.00  0.00    +0.000 N 
ATOM     17  O   UNL     1       4.312   2.800  10.905  0.00  0.00    +0.000 OA
ATOM     18  O   UNL     1       6.051   1.518  11.050  0.00  0.00    +0.000 OA
ENDBRANCH  11  16
BRANCH  14  19
ATOM     19  N   UNL     1       3.882   3.329  16.535  0.00  0.00    +0.000 N 
ATOM     20  H   UNL     1       3.051   3.563  15.980  0.00  0.00    +0.000 HD
BRANCH  19  21
ATOM     21  C   UNL     1       3.602   2.520  17.686  0.00  0.00    +0.000 C 
BRANCH  21  22
ATOM     22  C   UNL     1       2.101   2.516  18.071  0.00  0.00    +0.000 C 
BRANCH  22  23
ATOM     23  C   UNL     1       1.552   3.909  18.500  0.00  0.00    +0.000 C 
BRANCH  23  24
ATOM     24  N   UNL     1       1.025   3.932  19.884  0.00  0.00    +0.000 NA
ATOM     25  C   UNL     1       1.340   2.699  20.631  0.00  0.00    +0.000 C 
ATOM     26  C   UNL     1       1.592   5.081  20.615  0.00  0.00    +0.000 C 
ENDBRANCH  23  24
ENDBRANCH  22  23
ENDBRANCH  21  22
ENDBRANCH  19  21
ENDBRANCH  14  19
TORSDOF 6
ENDMDL
MODEL 7
REMARK VINA RESULT:      -6.2      2.139      5.889
REMARK  Name = 
REMARK  10 active torsions:
REMARK  status: ('A' for Active; 'I' for Inactive)
REMARK    1  A    between atoms: C_1  and  C_2
REMARK    2  A    between atoms: N_4  and  C_5
REMARK    3  A    between atoms: C_11  and  N_12
REMARK    4  A    between atoms: C_17  and  N_18
REMARK    5  A    between atoms: N_18  and  C_19
REMARK    6  A    between atoms: C_19  and  C_20
REMARK    7  A    between atoms: C_20  and  C_21
REMARK    8  A    between atoms: C_21  and  N_22
REMARK    9  A    between atoms: N_22  and  C_23
REMARK   10  A    between atoms: N_22  and  C_24
REMARK                            x       y       z     vdW  Elec       q    Type
REMARK                         _______ _______ _______ _____ _____    ______ ____
ROOT
ATOM      1  C   UNL     1       7.423   8.128  17.584  0.00  0.00    +0.000 C 
ATOM      2  C   UNL     1       6.767   6.893  17.016  0.00  0.00    +0.000 A 
ATOM      3  N   UNL     1       7.435   6.357  15.957  0.00  0.00    +0.000 NA
ATOM      4  N   UNL     1       6.878   5.223  15.627  0.00  0.00    +0.000 N 
ATOM      5  C   UNL     1       7.267   4.407  14.489  0.00  0.00    +0.000 C 
ATOM      6  C   UNL     1       5.894   4.951  16.475  0.00  0.00    +0.000 A 
ATOM      7  N   UNL     1       5.235   3.802  16.484  0.00  0.00    +0.000 NA
ATOM      8  C   UNL     1       4.233   3.561  17.354  0.00  0.00    +0.000 A 
ATOM      9  C   UNL     1       3.698   2.278  17.354  0.00  0.00    +0.000 A 
ATOM     10  C   UNL     1       2.619   1.978  18.163  0.00  0.00    +0.000 A 
ATOM     11  C   UNL     1       2.035   2.967  18.967  0.00  0.00    +0.000 A 
ATOM     12  C   UNL     1       2.611   4.268  18.989  0.00  0.00    +0.000 A 
ATOM     13  C   UNL     1       3.774   4.604  18.201  0.00  0.00    +0.000 A 
ATOM     14  C   UNL     1       4.467   5.888  18.203  0.00  0.00    +0.000 A 
ATOM     15  C   UNL     1       5.657   6.014  17.318  0.00  0.00    +0.000 A 
ENDROOT
BRANCH  11  16
ATOM     16  N   UNL     1       0.881   2.621  19.746  0.00  0.00    +0.000 N 
ATOM     17  O   UNL     1      -0.138   2.261  19.235  0.00  0.00    +0.000 OA
ATOM     18  O   UNL     1       0.920   2.761  21.057  0.00  0.00    +0.000 OA
ENDBRANCH  11  16
BRANCH  14  19
ATOM     19  N   UNL     1       3.899   6.972  18.989  0.00  0.00    +0.000 N 
ATOM     20  H   UNL     1       4.391   7.237  19.850  0.00  0.00    +0.000 HD
BRANCH  19  21
ATOM     21  C   UNL     1       2.560   7.480  18.905  0.00  0.00    +0.000 C 
BRANCH  21  22
ATOM     22  C   UNL     1       2.421   8.656  17.905  0.00  0.00    +0.000 C 
BRANCH  22  23
ATOM     23  C   UNL     1       1.063   9.411  17.998  0.00  0.00    +0.000 C 
BRANCH  23  24
ATOM     24  N   UNL     1       0.979  10.329  19.158  0.00  0.00    +0.000 NA
ATOM     25  C   UNL     1       1.436  11.694  18.836  0.00  0.00    +0.000 C 
ATOM     26  C   UNL     1      -0.414  10.401  19.637  0.00  0.00    +0.000 C 
ENDBRANCH  23  24
ENDBRANCH  22  23
ENDBRANCH  21  22
ENDBRANCH  19  21
ENDBRANCH  14  19
TORSDOF 6
ENDMDL
MODEL 8
REMARK VINA RESULT:      -6.2      0.938      1.284
REMARK  Name = 
REMARK  10 active torsions:
REMARK  status: ('A' for Active; 'I' for Inactive)
REMARK    1  A    between atoms: C_1  and  C_2
REMARK    2  A    between atoms: N_4  and  C_5
REMARK    3  A    between atoms: C_11  and  N_12
REMARK    4  A    between atoms: C_17  and  N_18
REMARK    5  A    between atoms: N_18  and  C_19
REMARK    6  A    between atoms: C_19  and  C_20
REMARK    7  A    between atoms: C_20  and  C_21
REMARK    8  A    between atoms: C_21  and  N_22
REMARK    9  A    between atoms: N_22  and  C_23
REMARK   10  A    between atoms: N_22  and  C_24
REMARK                            x       y       z     vdW  Elec       q    Type
REMARK                         _______ _______ _______ _____ _____    ______ ____
ROOT
ATOM      1  C   UNL     1       1.245  10.439  17.915  0.00  0.00    +0.000 C 
ATOM      2  C   UNL     1       1.388   9.476  19.068  0.00  0.00    +0.000 A 
ATOM      3  N   UNL     1       0.828   9.924  20.227  0.00  0.00    +0.000 NA
ATOM      4  N   UNL     1       0.873   8.974  21.121  0.00  0.00    +0.000 N 
ATOM      5  C   UNL     1       0.446   9.114  22.503  0.00  0.00    +0.000 C 
ATOM      6  C   UNL     1       1.389   7.880  20.577  0.00  0.00    +0.000 A 
ATOM      7  N   UNL     1       1.433   6.708  21.194  0.00  0.00    +0.000 NA
ATOM      8  C   UNL     1       1.973   5.617  20.616  0.00  0.00    +0.000 A 
ATOM      9  C   UNL     1       1.852   4.416  21.306  0.00  0.00    +0.000 A 
ATOM     10  C   UNL     1       2.447   3.271  20.813  0.00  0.00    +0.000 A 
ATOM     11  C   UNL     1       3.201   3.311  19.631  0.00  0.00    +0.000 A 
ATOM     12  C   UNL     1       3.289   4.536  18.911  0.00  0.00    +0.000 A 
ATOM     13  C   UNL     1       2.634   5.740  19.365  0.00  0.00    +0.000 A 
ATOM     14  C   UNL     1       2.619   7.021  18.666  0.00  0.00    +0.000 A 
ATOM     15  C   UNL     1       1.870   8.133  19.311  0.00  0.00    +0.000 A 
ENDROOT
BRANCH  11  16
ATOM     16  N   UNL     1       3.846   2.109  19.191  0.00  0.00    +0.000 N 
ATOM     17  O   UNL     1       4.853   1.712  19.699  0.00  0.00    +0.000 OA
ATOM     18  O   UNL     1       3.353   1.452  18.159  0.00  0.00    +0.000 OA
ENDBRANCH  11  16
BRANCH  14  19
ATOM     19  N   UNL     1       3.407   7.147  17.450  0.00  0.00    +0.000 N 
ATOM     20  H   UNL     1       2.983   6.811  16.577  0.00  0.00    +0.000 HD
BRANCH  19  21
ATOM     21  C   UNL     1       4.824   7.354  17.365  0.00  0.00    +0.000 C 
BRANCH  21  22
ATOM     22  C   UNL     1       5.510   6.420  16.336  0.00  0.00    +0.000 C 
BRANCH  22  23
ATOM     23  C   UNL     1       7.055   6.325  16.495  0.00  0.00    +0.000 C 
BRANCH  23  24
ATOM     24  N   UNL     1       7.556   4.932  16.551  0.00  0.00    +0.000 NA
ATOM     25  C   UNL     1       7.822   4.480  17.929  0.00  0.00    +0.000 C 
ATOM     26  C   UNL     1       6.568   4.022  15.941  0.00  0.00    +0.000 C 
ENDBRANCH  23  24
ENDBRANCH  22  23
ENDBRANCH  21  22
ENDBRANCH  19  21
ENDBRANCH  14  19
TORSDOF 6
ENDMDL
MODEL 9
REMARK VINA RESULT:      -6.1      0.775      1.198
REMARK  Name = 
REMARK  10 active torsions:
REMARK  status: ('A' for Active; 'I' for Inactive)
REMARK    1  A    between atoms: C_1  and  C_2
REMARK    2  A    between atoms: N_4  and  C_5
REMARK    3  A    between atoms: C_11  and  N_12
REMARK    4  A    between atoms: C_17  and  N_18
REMARK    5  A    between atoms: N_18  and  C_19
REMARK    6  A    between atoms: C_19  and  C_20
REMARK    7  A    between atoms: C_20  and  C_21
REMARK    8  A    between atoms: C_21  and  N_22
REMARK    9  A    between atoms: N_22  and  C_23
REMARK   10  A    between atoms: N_22  and  C_24
REMARK                            x       y       z     vdW  Elec       q    Type
REMARK                         _______ _______ _______ _____ _____    ______ ____
ROOT
ATOM      1  C   UNL     1       2.005   9.787  17.748  0.00  0.00    +0.000 C 
ATOM      2  C   UNL     1       1.824   8.870  18.932  0.00  0.00    +0.000 A 
ATOM      3  N   UNL     1       0.897   9.311  19.828  0.00  0.00    +0.000 NA
ATOM      4  N   UNL     1       0.706   8.392  20.736  0.00  0.00    +0.000 N 
ATOM      5  C   UNL     1      -0.151   8.541  21.901  0.00  0.00    +0.000 C 
ATOM      6  C   UNL     1       1.430   7.321  20.440  0.00  0.00    +0.000 A 
ATOM      7  N   UNL     1       1.340   6.173  21.096  0.00  0.00    +0.000 NA
ATOM      8  C   UNL     1       2.098   5.106  20.775  0.00  0.00    +0.000 A 
ATOM      9  C   UNL     1       1.830   3.920  21.449  0.00  0.00    +0.000 A 
ATOM     10  C   UNL     1       2.615   2.805  21.229  0.00  0.00    +0.000 A 
ATOM     11  C   UNL     1       3.706   2.865  20.349  0.00  0.00    +0.000 A 
ATOM     12  C   UNL     1       3.952   4.071  19.635  0.00  0.00    +0.000 A 
ATOM     13  C   UNL     1       3.118   5.239  19.796  0.00  0.00    +0.000 A 
ATOM     14  C   UNL     1       3.256   6.496  19.066  0.00  0.00    +0.000 A 
ATOM     15  C   UNL     1       2.277   7.571  19.382  0.00  0.00    +0.000 A 
ENDROOT
BRANCH  11  16
ATOM     16  N   UNL     1       4.526   1.698  20.197  0.00  0.00    +0.000 N 
ATOM     17  O   UNL     1       4.402   0.959  19.266  0.00  0.00    +0.000 OA
ATOM     18  O   UNL     1       5.399   1.394  21.137  0.00  0.00    +0.000 OA
ENDBRANCH  11  16
BRANCH  14  19
ATOM     19  N   UNL     1       4.384   6.641  18.160  0.00  0.00    +0.000 N 
ATOM     20  H   UNL     1       5.212   7.135  18.514  0.00  0.00    +0.000 HD
BRANCH  19  21
ATOM     21  C   UNL     1       4.362   6.497  16.733  0.00  0.00    +0.000 C 
BRANCH  21  22
ATOM     22  C   UNL     1       4.282   5.019  16.276  0.00  0.00    +0.000 C 
BRANCH  22  23
ATOM     23  C   UNL     1       5.569   4.193  16.571  0.00  0.00    +0.000 C 
BRANCH  23  24
ATOM     24  N   UNL     1       6.800   5.016  16.605  0.00  0.00    +0.000 NA
ATOM     25  C   UNL     1       7.730   4.602  17.673  0.00  0.00    +0.000 C 
ATOM     26  C   UNL     1       7.500   4.921  15.310  0.00  0.00    +0.000 C 
ENDBRANCH  23  24
ENDBRANCH  22  23
ENDBRANCH  21  22
ENDBRANCH  19  21
ENDBRANCH  14  19
TORSDOF 6
ENDMDL
