MODEL 1
REMARK VINA RESULT:      -6.6      0.000      0.000
REMARK  Name = 
REMARK  4 active torsions:
REMARK  status: ('A' for Active; 'I' for Inactive)
REMARK    1  A    between atoms: S_2  and  N_4
REMARK    2  A    between atoms: S_2  and  N_11
REMARK    3  A    between atoms: N_14  and  S_15
REMARK    4  A    between atoms: S_15  and  N_18
REMARK                            x       y       z     vdW  Elec       q    Type
REMARK                         _______ _______ _______ _____ _____    ______ ____
ROOT
ATOM      1  N   UNL     1       6.533   4.411  17.099  0.00  0.00    +0.000 NA
ATOM      2  C   UNL     1       6.345   4.590  18.581  0.00  0.00    +0.000 C 
ATOM      3  C   UNL     1       4.852   4.698  18.962  0.00  0.00    +0.000 C 
ATOM      4  N   UNL     1       4.026   3.565  18.404  0.00  0.00    +0.000 NA
ATOM      5  C   UNL     1       4.298   3.371  16.942  0.00  0.00    +0.000 C 
ATOM      6  C   UNL     1       5.790   3.207  16.640  0.00  0.00    +0.000 C 
ENDROOT
BRANCH   1   8
ATOM      7  O   UNL     1       7.522   6.629  16.326  0.00  0.00    +0.000 OA
ATOM      8  S   UNL     1       6.352   5.805  16.148  0.00  0.00    +0.000 S 
ATOM      9  O   UNL     1       5.012   6.331  16.319  0.00  0.00    +0.000 OA
BRANCH   8  10
ATOM     10  N   UNL     1       6.445   5.091  14.612  0.00  0.00    +0.000 NA
ATOM     11  C   UNL     1       5.156   4.958  13.907  0.00  0.00    +0.000 C 
ATOM     12  C   UNL     1       5.029   3.596  13.246  0.00  0.00    +0.000 C 
ATOM     13  C   UNL     1       5.704   3.529  11.886  0.00  0.00    +0.000 C 
ATOM     14  C   UNL     1       7.215   3.720  11.946  0.00  0.00    +0.000 C 
ATOM     15  C   UNL     1       7.613   5.138  12.343  0.00  0.00    +0.000 C 
ATOM     16  C   UNL     1       7.667   5.396  13.843  0.00  0.00    +0.000 C 
ENDBRANCH   8  10
ENDBRANCH   1   8
BRANCH   4  17
ATOM     17  S   UNL     1       3.987   2.189  19.376  0.00  0.00    +0.000 S 
ATOM     18  O   UNL     1       3.926   1.044  18.501  0.00  0.00    +0.000 OA
ATOM     19  O   UNL     1       5.016   2.306  20.380  0.00  0.00    +0.000 OA
BRANCH  17  20
ATOM     20  N   UNL     1       2.496   2.374  20.105  0.00  0.00    +0.000 NA
ATOM     21  C   UNL     1       1.297   2.640  19.265  0.00  0.00    +0.000 C 
ATOM     22  C   UNL     1       0.819   4.099  19.328  0.00  0.00    +0.000 C 
ATOM     23  O   UNL     1       0.830   4.653  20.651  0.00  0.00    +0.000 OA
ATOM     24  C   UNL     1       2.130   4.524  21.238  0.00  0.00    +0.000 C 
ATOM     25  C   UNL     1       2.445   3.047  21.420  0.00  0.00    +0.000 C 
ENDBRANCH  17  20
ENDBRANCH   4  17
TORSDOF 4
ENDMDL
MODEL 2
REMARK VINA RESULT:      -6.1      0.391      1.272
REMARK  Name = 
REMARK  4 active torsions:
REMARK  status: ('A' for Active; 'I' for Inactive)
REMARK    1  A    between atoms: S_2  and  N_4
REMARK    2  A    between atoms: S_2  and  N_11
REMARK    3  A    between atoms: N_14  and  S_15
REMARK    4  A    between atoms: S_15  and  N_18
REMARK                            x       y       z     vdW  Elec       q    Type
REMARK                         _______ _______ _______ _____ _____    ______ ____
ROOT
ATOM      1  N   UNL     1       6.427   4.405  17.023  0.00  0.00    +0.000 NA
ATOM      2  C   UNL     1       6.449   4.524  18.523  0.00  0.00    +0.000 C 
ATOM      3  C   UNL     1       5.030   4.699  19.106  0.00  0.00    +0.000 C 
ATOM      4  N   UNL     1       4.067   3.642  18.621  0.00  0.00    +0.000 NA
ATOM      5  C   UNL     1       4.130   3.502  17.130  0.00  0.00    +0.000 C 
ATOM      6  C   UNL     1       5.556   3.267  16.623  0.00  0.00    +0.000 C 
ENDROOT
BRANCH   1   8
ATOM      7  O   UNL     1       7.336   6.710  16.426  0.00  0.00    +0.000 OA
ATOM      8  S   UNL     1       6.209   5.850  16.160  0.00  0.00    +0.000 S 
ATOM      9  O   UNL     1       4.843   6.305  16.326  0.00  0.00    +0.000 OA
BRANCH   8  10
ATOM     10  N   UNL     1       6.373   5.244  14.585  0.00  0.00    +0.000 NA
ATOM     11  C   UNL     1       7.759   4.965  14.164  0.00  0.00    +0.000 C 
ATOM     12  C   UNL     1       8.013   5.455  12.748  0.00  0.00    +0.000 C 
ATOM     13  C   UNL     1       7.563   4.464  11.686  0.00  0.00    +0.000 C 
ATOM     14  C   UNL     1       6.058   4.221  11.680  0.00  0.00    +0.000 C 
ATOM     15  C   UNL     1       5.578   3.477  12.923  0.00  0.00    +0.000 C 
ATOM     16  C   UNL     1       5.283   4.359  14.128  0.00  0.00    +0.000 C 
ENDBRANCH   8  10
ENDBRANCH   1   8
BRANCH   4  17
ATOM     17  S   UNL     1       4.071   2.227  19.536  0.00  0.00    +0.000 S 
ATOM     18  O   UNL     1       4.009   1.119  18.615  0.00  0.00    +0.000 OA
ATOM     19  O   UNL     1       5.121   2.319  20.521  0.00  0.00    +0.000 OA
BRANCH  17  20
ATOM     20  N   UNL     1       2.595   2.357  20.304  0.00  0.00    +0.000 NA
ATOM     21  C   UNL     1       1.347   2.391  19.494  0.00  0.00    +0.000 C 
ATOM     22  C   UNL     1       0.722   3.791  19.395  0.00  0.00    +0.000 C 
ATOM     23  O   UNL     1       0.719   4.511  20.635  0.00  0.00    +0.000 OA
ATOM     24  C   UNL     1       2.045   4.589  21.172  0.00  0.00    +0.000 C 
ATOM     25  C   UNL     1       2.518   3.187  21.525  0.00  0.00    +0.000 C 
ENDBRANCH  17  20
ENDBRANCH   4  17
TORSDOF 4
ENDMDL
MODEL 3
REMARK VINA RESULT:      -5.7      1.540      1.997
REMARK  Name = 
REMARK  4 active torsions:
REMARK  status: ('A' for Active; 'I' for Inactive)
REMARK    1  A    between atoms: S_2  and  N_4
REMARK    2  A    between atoms: S_2  and  N_11
REMARK    3  A    between atoms: N_14  and  S_15
REMARK    4  A    between atoms: S_15  and  N_18
REMARK                            x       y       z     vdW  Elec       q    Type
REMARK                         _______ _______ _______ _____ _____    ______ ____
ROOT
ATOM      1  N   UNL     1       6.798   4.120  15.791  0.00  0.00    +0.000 NA
ATOM      2  C   UNL     1       7.145   4.745  17.114  0.00  0.00    +0.000 C 
ATOM      3  C   UNL     1       5.958   5.538  17.703  0.00  0.00    +0.000 C 
ATOM      4  N   UNL     1       4.686   4.727  17.760  0.00  0.00    +0.000 NA
ATOM      5  C   UNL     1       4.416   4.061  16.444  0.00  0.00    +0.000 C 
ATOM      6  C   UNL     1       5.609   3.239  15.947  0.00  0.00    +0.000 C 
ENDROOT
BRANCH   1   8
ATOM      7  O   UNL     1       8.132   5.600  14.201  0.00  0.00    +0.000 OA
ATOM      8  S   UNL     1       6.780   5.163  14.452  0.00  0.00    +0.000 S 
ATOM      9  O   UNL     1       5.685   6.102  14.591  0.00  0.00    +0.000 OA
BRANCH   8  10
ATOM     10  N   UNL     1       6.362   4.042  13.249  0.00  0.00    +0.000 NA
ATOM     11  C   UNL     1       5.188   4.409  12.435  0.00  0.00    +0.000 C 
ATOM     12  C   UNL     1       4.271   3.217  12.223  0.00  0.00    +0.000 C 
ATOM     13  C   UNL     1       4.709   2.327  11.070  0.00  0.00    +0.000 C 
ATOM     14  C   UNL     1       6.061   1.661  11.294  0.00  0.00    +0.000 C 
ATOM     15  C   UNL     1       7.217   2.657  11.283  0.00  0.00    +0.000 C 
ATOM     16  C   UNL     1       7.495   3.338  12.616  0.00  0.00    +0.000 C 
ENDBRANCH   8  10
ENDBRANCH   1   8
BRANCH   4  17
ATOM     17  S   UNL     1       4.518   3.794  19.153  0.00  0.00    +0.000 S 
ATOM     18  O   UNL     1       4.322   2.428  18.735  0.00  0.00    +0.000 OA
ATOM     19  O   UNL     1       5.572   4.148  20.072  0.00  0.00    +0.000 OA
BRANCH  17  20
ATOM     20  N   UNL     1       3.069   4.379  19.738  0.00  0.00    +0.000 NA
ATOM     21  C   UNL     1       2.629   4.010  21.111  0.00  0.00    +0.000 C 
ATOM     22  C   UNL     1       1.505   2.963  21.130  0.00  0.00    +0.000 C 
ATOM     23  O   UNL     1       0.481   3.198  20.155  0.00  0.00    +0.000 OA
ATOM     24  C   UNL     1       1.051   3.299  18.844  0.00  0.00    +0.000 C 
ATOM     25  C   UNL     1       1.946   4.528  18.788  0.00  0.00    +0.000 C 
ENDBRANCH  17  20
ENDBRANCH   4  17
TORSDOF 4
ENDMDL
MODEL 4
REMARK VINA RESULT:      -5.7      1.782      2.354
REMARK  Name = 
REMARK  4 active torsions:
REMARK  status: ('A' for Active; 'I' for Inactive)
REMARK    1  A    between atoms: S_2  and  N_4
REMARK    2  A    between atoms: S_2  and  N_11
REMARK    3  A    between atoms: N_14  and  S_15
REMARK    4  A    between atoms: S_15  and  N_18
REMARK                            x       y       z     vdW  Elec       q    Type
REMARK                         _______ _______ _______ _____ _____    ______ ____
ROOT
ATOM      1  N   UNL     1       5.570   4.417  16.869  0.00  0.00    +0.000 NA
ATOM      2  C   UNL     1       5.440   4.053  18.323  0.00  0.00    +0.000 C 
ATOM      3  C   UNL     1       5.268   5.302  19.214  0.00  0.00    +0.000 C 
ATOM      4  N   UNL     1       4.157   6.208  18.740  0.00  0.00    +0.000 NA
ATOM      5  C   UNL     1       4.281   6.485  17.272  0.00  0.00    +0.000 C 
ATOM      6  C   UNL     1       4.383   5.204  16.439  0.00  0.00    +0.000 C 
ENDROOT
BRANCH   1   8
ATOM      7  O   UNL     1       8.108   4.202  16.975  0.00  0.00    +0.000 OA
ATOM      8  S   UNL     1       7.079   5.020  16.380  0.00  0.00    +0.000 S 
ATOM      9  O   UNL     1       7.082   6.464  16.506  0.00  0.00    +0.000 OA
BRANCH   8  10
ATOM     10  N   UNL     1       6.996   4.637  14.730  0.00  0.00    +0.000 NA
ATOM     11  C   UNL     1       5.639   4.364  14.220  0.00  0.00    +0.000 C 
ATOM     12  C   UNL     1       5.629   3.151  13.305  0.00  0.00    +0.000 C 
ATOM     13  C   UNL     1       6.027   3.481  11.876  0.00  0.00    +0.000 C 
ATOM     14  C   UNL     1       7.463   3.976  11.742  0.00  0.00    +0.000 C 
ATOM     15  C   UNL     1       7.672   5.349  12.374  0.00  0.00    +0.000 C 
ATOM     16  C   UNL     1       7.971   5.333  13.867  0.00  0.00    +0.000 C 
ENDBRANCH   8  10
ENDBRANCH   1   8
BRANCH   4  17
ATOM     17  S   UNL     1       2.631   5.802  19.329  0.00  0.00    +0.000 S 
ATOM     18  O   UNL     1       2.514   6.371  20.648  0.00  0.00    +0.000 OA
ATOM     19  O   UNL     1       1.654   6.084  18.306  0.00  0.00    +0.000 OA
BRANCH  17  20
ATOM     20  N   UNL     1       2.794   4.148  19.481  0.00  0.00    +0.000 NA
ATOM     21  C   UNL     1       2.227   3.255  18.434  0.00  0.00    +0.000 C 
ATOM     22  C   UNL     1       0.935   2.547  18.869  0.00  0.00    +0.000 C 
ATOM     23  O   UNL     1       0.979   2.040  20.209  0.00  0.00    +0.000 OA
ATOM     24  C   UNL     1       1.314   3.085  21.130  0.00  0.00    +0.000 C 
ATOM     25  C   UNL     1       2.727   3.566  20.839  0.00  0.00    +0.000 C 
ENDBRANCH  17  20
ENDBRANCH   4  17
TORSDOF 4
ENDMDL
MODEL 5
REMARK VINA RESULT:      -5.7      9.591     11.475
REMARK  Name = 
REMARK  4 active torsions:
REMARK  status: ('A' for Active; 'I' for Inactive)
REMARK    1  A    between atoms: S_2  and  N_4
REMARK    2  A    between atoms: S_2  and  N_11
REMARK    3  A    between atoms: N_14  and  S_15
REMARK    4  A    between atoms: S_15  and  N_18
REMARK                            x       y       z     vdW  Elec       q    Type
REMARK                         _______ _______ _______ _____ _____    ______ ____
ROOT
ATOM      1  N   UNL     1      -0.825  11.237  20.757  0.00  0.00    +0.000 NA
ATOM      2  C   UNL     1      -0.933  11.169  22.257  0.00  0.00    +0.000 C 
ATOM      3  C   UNL     1      -1.085  12.571  22.885  0.00  0.00    +0.000 C 
ATOM      4  N   UNL     1      -2.200  13.373  22.258  0.00  0.00    +0.000 NA
ATOM      5  C   UNL     1      -2.100  13.353  20.763  0.00  0.00    +0.000 C 
ATOM      6  C   UNL     1      -2.017  11.932  20.199  0.00  0.00    +0.000 C 
ENDROOT
BRANCH   1   8
ATOM      7  O   UNL     1       1.495  12.178  21.233  0.00  0.00    +0.000 OA
ATOM      8  S   UNL     1       0.678  11.721  20.136  0.00  0.00    +0.000 S 
ATOM      9  O   UNL     1       0.469  12.527  18.949  0.00  0.00    +0.000 OA
BRANCH   8  10
ATOM     10  N   UNL     1       1.261  10.206  19.645  0.00  0.00    +0.000 NA
ATOM     11  C   UNL     1       0.656   9.050  20.333  0.00  0.00    +0.000 C 
ATOM     12  C   UNL     1       1.710   8.027  20.721  0.00  0.00    +0.000 C 
ATOM     13  C   UNL     1       2.064   7.079  19.585  0.00  0.00    +0.000 C 
ATOM     14  C   UNL     1       2.710   7.774  18.392  0.00  0.00    +0.000 C 
ATOM     15  C   UNL     1       1.740   8.688  17.649  0.00  0.00    +0.000 C 
ATOM     16  C   UNL     1       1.618  10.096  18.216  0.00  0.00    +0.000 C 
ENDBRANCH   8  10
ENDBRANCH   1   8
BRANCH   4  17
ATOM     17  S   UNL     1      -3.718  13.102  22.939  0.00  0.00    +0.000 S 
ATOM     18  O   UNL     1      -4.674  13.069  21.860  0.00  0.00    +0.000 OA
ATOM     19  O   UNL     1      -3.613  12.011  23.876  0.00  0.00    +0.000 OA
BRANCH  17  20
ATOM     20  N   UNL     1      -3.929  14.525  23.786  0.00  0.00    +0.000 NA
ATOM     21  C   UNL     1      -3.936  15.820  23.055  0.00  0.00    +0.000 C 
ATOM     22  C   UNL     1      -2.642  16.629  23.232  0.00  0.00    +0.000 C 
ATOM     23  O   UNL     1      -2.148  16.639  24.579  0.00  0.00    +0.000 OA
ATOM     24  C   UNL     1      -1.975  15.300  25.059  0.00  0.00    +0.000 C 
ATOM     25  C   UNL     1      -3.335  14.623  25.137  0.00  0.00    +0.000 C 
ENDBRANCH  17  20
ENDBRANCH   4  17
TORSDOF 4
ENDMDL
MODEL 6
REMARK VINA RESULT:      -5.7     10.124     11.993
REMARK  Name = 
REMARK  4 active torsions:
REMARK  status: ('A' for Active; 'I' for Inactive)
REMARK    1  A    between atoms: S_2  and  N_4
REMARK    2  A    between atoms: S_2  and  N_11
REMARK    3  A    between atoms: N_14  and  S_15
REMARK    4  A    between atoms: S_15  and  N_18
REMARK                            x       y       z     vdW  Elec       q    Type
REMARK                         _______ _______ _______ _____ _____    ______ ____
ROOT
ATOM      1  N   UNL     1      -0.909  11.557  20.991  0.00  0.00    +0.000 NA
ATOM      2  C   UNL     1      -0.962  11.598  22.494  0.00  0.00    +0.000 C 
ATOM      3  C   UNL     1      -1.125  13.040  23.023  0.00  0.00    +0.000 C 
ATOM      4  N   UNL     1      -2.280  13.769  22.381  0.00  0.00    +0.000 NA
ATOM      5  C   UNL     1      -2.231  13.642  20.888  0.00  0.00    +0.000 C 
ATOM      6  C   UNL     1      -2.135  12.184  20.427  0.00  0.00    +0.000 C 
ENDROOT
BRANCH   1   8
ATOM      7  O   UNL     1       1.439  12.490  21.325  0.00  0.00    +0.000 OA
ATOM      8  S   UNL     1       0.560  12.025  20.281  0.00  0.00    +0.000 S 
ATOM      9  O   UNL     1       0.289  12.818  19.098  0.00  0.00    +0.000 OA
BRANCH   8  10
ATOM     10  N   UNL     1       1.107  10.500  19.776  0.00  0.00    +0.000 NA
ATOM     11  C   UNL     1       0.515   9.356  20.495  0.00  0.00    +0.000 C 
ATOM     12  C   UNL     1       1.572   8.323  20.847  0.00  0.00    +0.000 C 
ATOM     13  C   UNL     1       1.872   7.365  19.704  0.00  0.00    +0.000 C 
ATOM     14  C   UNL     1       2.478   8.045  18.483  0.00  0.00    +0.000 C 
ATOM     15  C   UNL     1       1.491   8.967  17.772  0.00  0.00    +0.000 C 
ATOM     16  C   UNL     1       1.407  10.379  18.336  0.00  0.00    +0.000 C 
ENDBRANCH   8  10
ENDBRANCH   1   8
BRANCH   4  17
ATOM     17  S   UNL     1      -3.766  13.519  23.135  0.00  0.00    +0.000 S 
ATOM     18  O   UNL     1      -4.323  12.303  22.597  0.00  0.00    +0.000 OA
ATOM     19  O   UNL     1      -3.595  13.695  24.556  0.00  0.00    +0.000 OA
BRANCH  17  20
ATOM     20  N   UNL     1      -4.635  14.809  22.531  0.00  0.00    +0.000 NA
ATOM     21  C   UNL     1      -4.551  16.132  23.207  0.00  0.00    +0.000 C 
ATOM     22  C   UNL     1      -5.800  16.475  24.034  0.00  0.00    +0.000 C 
ATOM     23  O   UNL     1      -7.033  16.151  23.377  0.00  0.00    +0.000 OA
ATOM     24  C   UNL     1      -7.048  14.771  22.992  0.00  0.00    +0.000 C 
ATOM     25  C   UNL     1      -5.966  14.538  21.948  0.00  0.00    +0.000 C 
ENDBRANCH  17  20
ENDBRANCH   4  17
TORSDOF 4
ENDMDL
MODEL 7
REMARK VINA RESULT:      -5.6     10.032     11.889
REMARK  Name = 
REMARK  4 active torsions:
REMARK  status: ('A' for Active; 'I' for Inactive)
REMARK    1  A    between atoms: S_2  and  N_4
REMARK    2  A    between atoms: S_2  and  N_11
REMARK    3  A    between atoms: N_14  and  S_15
REMARK    4  A    between atoms: S_15  and  N_18
REMARK                            x       y       z     vdW  Elec       q    Type
REMARK                         _______ _______ _______ _____ _____    ______ ____
ROOT
ATOM      1  N   UNL     1      -0.984  11.365  20.960  0.00  0.00    +0.000 NA
ATOM      2  C   UNL     1      -1.174  11.398  22.453  0.00  0.00    +0.000 C 
ATOM      3  C   UNL     1      -1.449  12.828  22.965  0.00  0.00    +0.000 C 
ATOM      4  N   UNL     1      -2.573  13.507  22.221  0.00  0.00    +0.000 NA
ATOM      5  C   UNL     1      -2.384  13.388  20.739  0.00  0.00    +0.000 C 
ATOM      6  C   UNL     1      -2.181  11.938  20.288  0.00  0.00    +0.000 C 
ENDROOT
BRANCH   1   8
ATOM      7  O   UNL     1       1.325  12.289  21.519  0.00  0.00    +0.000 OA
ATOM      8  S   UNL     1       0.521  11.901  20.386  0.00  0.00    +0.000 S 
ATOM      9  O   UNL     1       0.314  12.785  19.255  0.00  0.00    +0.000 OA
BRANCH   8  10
ATOM     10  N   UNL     1       1.120  10.427  19.799  0.00  0.00    +0.000 NA
ATOM     11  C   UNL     1       0.592   9.226  20.471  0.00  0.00    +0.000 C 
ATOM     12  C   UNL     1       1.697   8.223  20.753  0.00  0.00    +0.000 C 
ATOM     13  C   UNL     1       2.013   7.334  19.561  0.00  0.00    +0.000 C 
ATOM     14  C   UNL     1       2.565   8.097  18.362  0.00  0.00    +0.000 C 
ATOM     15  C   UNL     1       1.526   9.008  17.716  0.00  0.00    +0.000 C 
ATOM     16  C   UNL     1       1.395  10.387  18.348  0.00  0.00    +0.000 C 
ENDBRANCH   8  10
ENDBRANCH   1   8
BRANCH   4  17
ATOM     17  S   UNL     1      -4.109  13.187  22.838  0.00  0.00    +0.000 S 
ATOM     18  O   UNL     1      -4.987  12.970  21.715  0.00  0.00    +0.000 OA
ATOM     19  O   UNL     1      -3.986  12.207  23.888  0.00  0.00    +0.000 OA
BRANCH  17  20
ATOM     20  N   UNL     1      -4.478  14.666  23.517  0.00  0.00    +0.000 NA
ATOM     21  C   UNL     1      -5.900  15.020  23.778  0.00  0.00    +0.000 C 
ATOM     22  C   UNL     1      -6.471  16.033  22.774  0.00  0.00    +0.000 C 
ATOM     23  O   UNL     1      -5.573  17.108  22.467  0.00  0.00    +0.000 OA
ATOM     24  C   UNL     1      -4.317  16.597  22.005  0.00  0.00    +0.000 C 
ATOM     25  C   UNL     1      -3.650  15.831  23.137  0.00  0.00    +0.000 C 
ENDBRANCH  17  20
ENDBRANCH   4  17
TORSDOF 4
ENDMDL
MODEL 8
REMARK VINA RESULT:      -5.4     10.660     12.497
REMARK  Name = 
REMARK  4 active torsions:
REMARK  status: ('A' for Active; 'I' for Inactive)
REMARK    1  A    between atoms: S_2  and  N_4
REMARK    2  A    between atoms: S_2  and  N_11
REMARK    3  A    between atoms: N_14  and  S_15
REMARK    4  A    between atoms: S_15  and  N_18
REMARK                            x       y       z     vdW  Elec       q    Type
REMARK                         _______ _______ _______ _____ _____    ______ ____
ROOT
ATOM      1  N   UNL     1      -0.497  13.446  21.937  0.00  0.00    +0.000 NA
ATOM      2  C   UNL     1      -0.973  14.505  22.893  0.00  0.00    +0.000 C 
ATOM      3  C   UNL     1      -2.379  15.025  22.521  0.00  0.00    +0.000 C 
ATOM      4  N   UNL     1      -3.382  13.912  22.340  0.00  0.00    +0.000 NA
ATOM      5  C   UNL     1      -2.841  12.842  21.441  0.00  0.00    +0.000 C 
ATOM      6  C   UNL     1      -1.475  12.325  21.901  0.00  0.00    +0.000 C 
ENDROOT
BRANCH   1   8
ATOM      7  O   UNL     1       1.449  14.365  20.572  0.00  0.00    +0.000 OA
ATOM      8  S   UNL     1       0.063  13.993  20.431  0.00  0.00    +0.000 S 
ATOM      9  O   UNL     1      -0.916  14.895  19.855  0.00  0.00    +0.000 OA
BRANCH   8  10
ATOM     10  N   UNL     1      -0.003  12.530  19.576  0.00  0.00    +0.000 NA
ATOM     11  C   UNL     1      -0.840  12.554  18.362  0.00  0.00    +0.000 C 
ATOM     12  C   UNL     1      -1.695  11.302  18.259  0.00  0.00    +0.000 C 
ATOM     13  C   UNL     1      -0.955  10.124  17.646  0.00  0.00    +0.000 C 
ATOM     14  C   UNL     1       0.225   9.643  18.483  0.00  0.00    +0.000 C 
ATOM     15  C   UNL     1       1.368  10.653  18.522  0.00  0.00    +0.000 C 
ATOM     16  C   UNL     1       1.239  11.732  19.589  0.00  0.00    +0.000 C 
ENDBRANCH   8  10
ENDBRANCH   1   8
BRANCH   4  17
ATOM     17  S   UNL     1      -4.140  13.422  23.763  0.00  0.00    +0.000 S 
ATOM     18  O   UNL     1      -4.066  11.983  23.817  0.00  0.00    +0.000 OA
ATOM     19  O   UNL     1      -3.648  14.234  24.849  0.00  0.00    +0.000 OA
BRANCH  17  20
ATOM     20  N   UNL     1      -5.718  13.856  23.433  0.00  0.00    +0.000 NA
ATOM     21  C   UNL     1      -6.827  13.237  24.208  0.00  0.00    +0.000 C 
ATOM     22  C   UNL     1      -7.605  12.175  23.418  0.00  0.00    +0.000 C 
ATOM     23  O   UNL     1      -7.884  12.552  22.063  0.00  0.00    +0.000 OA
ATOM     24  C   UNL     1      -6.672  12.899  21.381  0.00  0.00    +0.000 C 
ATOM     25  C   UNL     1      -6.079  14.142  22.028  0.00  0.00    +0.000 C 
ENDBRANCH  17  20
ENDBRANCH   4  17
TORSDOF 4
ENDMDL
MODEL 9
REMARK VINA RESULT:      -5.4      6.448      9.556
REMARK  Name = 
REMARK  4 active torsions:
REMARK  status: ('A' for Active; 'I' for Inactive)
REMARK    1  A    between atoms: S_2  and  N_4
REMARK    2  A    between atoms: S_2  and  N_11
REMARK    3  A    between atoms: N_14  and  S_15
REMARK    4  A    between atoms: S_15  and  N_18
REMARK                            x       y       z     vdW  Elec       q    Type
REMARK                         _______ _______ _______ _____ _____    ______ ____
ROOT
ATOM      1  N   UNL     1       0.055   9.771  19.943  0.00  0.00    +0.000 NA
ATOM      2  C   UNL     1       0.586   9.355  18.598  0.00  0.00    +0.000 C 
ATOM      3  C   UNL     1       2.076   8.954  18.667  0.00  0.00    +0.000 C 
ATOM      4  N   UNL     1       2.353   7.931  19.743  0.00  0.00    +0.000 NA
ATOM      5  C   UNL     1       1.745   8.347  21.048  0.00  0.00    +0.000 C 
ATOM      6  C   UNL     1       0.253   8.669  20.923  0.00  0.00    +0.000 C 
ENDROOT
BRANCH   1   8
ATOM      7  O   UNL     1       0.815  12.121  19.314  0.00  0.00    +0.000 OA
ATOM      8  S   UNL     1       0.489  11.324  20.472  0.00  0.00    +0.000 S 
ATOM      9  O   UNL     1       1.390  11.212  21.602  0.00  0.00    +0.000 OA
BRANCH   8  10
ATOM     10  N   UNL     1      -1.020  11.837  21.052  0.00  0.00    +0.000 NA
ATOM     11  C   UNL     1      -1.023  12.311  22.449  0.00  0.00    +0.000 C 
ATOM     12  C   UNL     1      -2.224  11.772  23.208  0.00  0.00    +0.000 C 
ATOM     13  C   UNL     1      -3.482  12.598  22.996  0.00  0.00    +0.000 C 
ATOM     14  C   UNL     1      -3.980  12.589  21.555  0.00  0.00    +0.000 C 
ATOM     15  C   UNL     1      -3.043  13.328  20.605  0.00  0.00    +0.000 C 
ATOM     16  C   UNL     1      -1.891  12.496  20.058  0.00  0.00    +0.000 C 
ENDBRANCH   8  10
ENDBRANCH   1   8
BRANCH   4  17
ATOM     17  S   UNL     1       2.133   6.333  19.256  0.00  0.00    +0.000 S 
ATOM     18  O   UNL     1       1.567   5.617  20.372  0.00  0.00    +0.000 OA
ATOM     19  O   UNL     1       1.489   6.331  17.965  0.00  0.00    +0.000 OA
BRANCH  17  20
ATOM     20  N   UNL     1       3.720   5.850  19.071  0.00  0.00    +0.000 NA
ATOM     21  C   UNL     1       4.480   6.275  17.864  0.00  0.00    +0.000 C 
ATOM     22  C   UNL     1       4.666   5.152  16.833  0.00  0.00    +0.000 C 
ATOM     23  O   UNL     1       5.011   3.887  17.413  0.00  0.00    +0.000 OA
ATOM     24  C   UNL     1       4.043   3.508  18.401  0.00  0.00    +0.000 C 
ATOM     25  C   UNL     1       4.096   4.503  19.550  0.00  0.00    +0.000 C 
ENDBRANCH  17  20
ENDBRANCH   4  17
TORSDOF 4
ENDMDL
