MODEL 1
REMARK VINA RESULT:      -8.5      0.000      0.000
REMARK  Name = 
REMARK  8 active torsions:
REMARK  status: ('A' for Active; 'I' for Inactive)
REMARK    1  A    between atoms: C_1  and  C_2
REMARK    2  A    between atoms: C_4  and  O_5
REMARK    3  A    between atoms: O_5  and  C_6
REMARK    4  A    between atoms: C_6  and  C_7
REMARK    5  A    between atoms: C_7  and  O_8
REMARK    6  A    between atoms: C_7  and  C_9
REMARK    7  A    between atoms: C_9  and  N_10
REMARK    8  A    between atoms: N_13  and  C_14
REMARK                            x       y       z     vdW  Elec       q    Type
REMARK                         _______ _______ _______ _____ _____    ______ ____
ROOT
ATOM      1  C   UNL     1       6.679   7.636  17.554  0.00  0.00    +0.000 C 
ENDROOT
BRANCH   1   2
ATOM      2  N   UNL     1       6.462   6.338  16.886  0.00  0.00    +0.000 NA
ATOM      3  C   UNL     1       6.704   5.182  17.788  0.00  0.00    +0.000 C 
ATOM      4  C   UNL     1       5.725   5.079  18.976  0.00  0.00    +0.000 C 
ATOM      5  N   UNL     1       4.329   5.119  18.515  0.00  0.00    +0.000 N 
ATOM      6  C   UNL     1       3.989   6.161  17.529  0.00  0.00    +0.000 C 
ATOM      7  C   UNL     1       5.058   6.235  16.411  0.00  0.00    +0.000 C 
BRANCH   5   8
ATOM      8  C   UNL     1       3.445   4.078  18.730  0.00  0.00    +0.000 A 
ATOM      9  C   UNL     1       3.041   3.212  17.707  0.00  0.00    +0.000 A 
ATOM     10  C   UNL     1       2.133   2.172  17.939  0.00  0.00    +0.000 A 
ATOM     11  C   UNL     1       1.612   1.976  19.213  0.00  0.00    +0.000 A 
ATOM     12  C   UNL     1       2.006   2.817  20.246  0.00  0.00    +0.000 A 
ATOM     13 CL   UNL     1       1.375   2.584  21.831  0.00  0.00    +0.000 Cl
ATOM     14  C   UNL     1       2.913   3.851  20.009  0.00  0.00    +0.000 A 
ENDBRANCH   5   8
ENDBRANCH   1   2
BRANCH   1  15
ATOM     15  C   UNL     1       8.150   8.005  17.830  0.00  0.00    +0.000 C 
BRANCH  15  16
ATOM     16  O   UNL     1       8.556   7.349  19.042  0.00  0.00    +0.000 OA
ATOM     17  H   UNL     1       7.961   7.633  19.756  0.00  0.00    +0.000 HD
ENDBRANCH  15  16
BRANCH  15  18
ATOM     18  C   UNL     1       8.315   9.526  17.933  0.00  0.00    +0.000 C 
BRANCH  18  19
ATOM     19  O   UNL     1       9.028   9.849  19.129  0.00  0.00    +0.000 OA
BRANCH  19  23
ATOM     20  C   UNL     1      11.454  13.450  16.705  0.00  0.00    +0.000 C 
ATOM     21  C   UNL     1      11.014  12.790  17.982  0.00  0.00    +0.000 A 
ATOM     22  C   UNL     1      10.230  11.625  17.916  0.00  0.00    +0.000 A 
ATOM     23  C   UNL     1       9.797  10.980  19.080  0.00  0.00    +0.000 A 
ATOM     24  C   UNL     1      10.153  11.501  20.323  0.00  0.00    +0.000 A 
ATOM     25  C   UNL     1      10.933  12.656  20.406  0.00  0.00    +0.000 A 
ATOM     26  C   UNL     1      11.362  13.297  19.242  0.00  0.00    +0.000 A 
ATOM     27 CL   UNL     1      12.324  14.721  19.408  0.00  0.00    +0.000 Cl
ENDBRANCH  19  23
ENDBRANCH  18  19
ENDBRANCH  15  18
ENDBRANCH   1  15
TORSDOF 7
ENDMDL
MODEL 2
REMARK VINA RESULT:      -7.8      1.001      1.390
REMARK  Name = 
REMARK  8 active torsions:
REMARK  status: ('A' for Active; 'I' for Inactive)
REMARK    1  A    between atoms: C_1  and  C_2
REMARK    2  A    between atoms: C_4  and  O_5
REMARK    3  A    between atoms: O_5  and  C_6
REMARK    4  A    between atoms: C_6  and  C_7
REMARK    5  A    between atoms: C_7  and  O_8
REMARK    6  A    between atoms: C_7  and  C_9
REMARK    7  A    between atoms: C_9  and  N_10
REMARK    8  A    between atoms: N_13  and  C_14
REMARK                            x       y       z     vdW  Elec       q    Type
REMARK                         _______ _______ _______ _____ _____    ______ ____
ROOT
ATOM      1  C   UNL     1       6.669   7.148  17.358  0.00  0.00    +0.000 C 
ENDROOT
BRANCH   1   2
ATOM      2  N   UNL     1       6.538   5.679  17.300  0.00  0.00    +0.000 NA
ATOM      3  C   UNL     1       6.350   5.068  18.642  0.00  0.00    +0.000 C 
ATOM      4  C   UNL     1       5.036   5.462  19.348  0.00  0.00    +0.000 C 
ATOM      5  N   UNL     1       3.876   5.219  18.478  0.00  0.00    +0.000 N 
ATOM      6  C   UNL     1       3.986   5.685  17.084  0.00  0.00    +0.000 C 
ATOM      7  C   UNL     1       5.360   5.302  16.479  0.00  0.00    +0.000 C 
BRANCH   5   8
ATOM      8  C   UNL     1       2.862   4.343  18.819  0.00  0.00    +0.000 A 
ATOM      9  C   UNL     1       1.984   3.804  17.870  0.00  0.00    +0.000 A 
ATOM     10  C   UNL     1       0.953   2.931  18.236  0.00  0.00    +0.000 A 
ATOM     11  C   UNL     1       0.782   2.575  19.569  0.00  0.00    +0.000 A 
ATOM     12  C   UNL     1       1.647   3.090  20.526  0.00  0.00    +0.000 A 
ATOM     13 CL   UNL     1       1.454   2.655  22.180  0.00  0.00    +0.000 Cl
ATOM     14  C   UNL     1       2.675   3.959  20.157  0.00  0.00    +0.000 A 
ENDBRANCH   5   8
ENDBRANCH   1   2
BRANCH   1  15
ATOM     15  C   UNL     1       8.046   7.678  17.803  0.00  0.00    +0.000 C 
BRANCH  15  16
ATOM     16  O   UNL     1       8.360   7.094  19.078  0.00  0.00    +0.000 OA
ATOM     17  H   UNL     1       8.046   7.697  19.773  0.00  0.00    +0.000 HD
ENDBRANCH  15  16
BRANCH  15  18
ATOM     18  C   UNL     1       8.040   9.210  17.873  0.00  0.00    +0.000 C 
BRANCH  18  19
ATOM     19  O   UNL     1       9.002   9.648  18.836  0.00  0.00    +0.000 OA
BRANCH  19  23
ATOM     20  C   UNL     1      12.333  13.262  19.588  0.00  0.00    +0.000 C 
ATOM     21  C   UNL     1      11.055  12.758  18.977  0.00  0.00    +0.000 A 
ATOM     22  C   UNL     1      10.658  11.431  19.219  0.00  0.00    +0.000 A 
ATOM     23  C   UNL     1       9.477  10.920  18.670  0.00  0.00    +0.000 A 
ATOM     24  C   UNL     1       8.683  11.742  17.872  0.00  0.00    +0.000 A 
ATOM     25  C   UNL     1       9.062  13.062  17.623  0.00  0.00    +0.000 A 
ATOM     26  C   UNL     1      10.242  13.567  18.173  0.00  0.00    +0.000 A 
ATOM     27 CL   UNL     1      10.659  15.208  17.830  0.00  0.00    +0.000 Cl
ENDBRANCH  19  23
ENDBRANCH  18  19
ENDBRANCH  15  18
ENDBRANCH   1  15
TORSDOF 7
ENDMDL
MODEL 3
REMARK VINA RESULT:      -7.8      5.849      7.847
REMARK  Name = 
REMARK  8 active torsions:
REMARK  status: ('A' for Active; 'I' for Inactive)
REMARK    1  A    between atoms: C_1  and  C_2
REMARK    2  A    between atoms: C_4  and  O_5
REMARK    3  A    between atoms: O_5  and  C_6
REMARK    4  A    between atoms: C_6  and  C_7
REMARK    5  A    between atoms: C_7  and  O_8
REMARK    6  A    between atoms: C_7  and  C_9
REMARK    7  A    between atoms: C_9  and  N_10
REMARK    8  A    between atoms: N_13  and  C_14
REMARK                            x       y       z     vdW  Elec       q    Type
REMARK                         _______ _______ _______ _____ _____    ______ ____
ROOT
ATOM      1  C   UNL     1       1.752   2.579  20.002  0.00  0.00    +0.000 C 
ENDROOT
BRANCH   1   2
ATOM      2  N   UNL     1       2.687   1.802  19.164  0.00  0.00    +0.000 NA
ATOM      3  C   UNL     1       2.496   2.052  17.712  0.00  0.00    +0.000 C 
ATOM      4  C   UNL     1       2.811   3.494  17.262  0.00  0.00    +0.000 C 
ATOM      5  N   UNL     1       4.151   3.905  17.709  0.00  0.00    +0.000 N 
ATOM      6  C   UNL     1       4.500   3.610  19.110  0.00  0.00    +0.000 C 
ATOM      7  C   UNL     1       4.089   2.166  19.490  0.00  0.00    +0.000 C 
BRANCH   5   8
ATOM      8  C   UNL     1       5.151   4.263  16.824  0.00  0.00    +0.000 A 
ATOM      9  C   UNL     1       6.228   5.077  17.196  0.00  0.00    +0.000 A 
ATOM     10  C   UNL     1       7.224   5.442  16.283  0.00  0.00    +0.000 A 
ATOM     11  C   UNL     1       7.163   4.992  14.969  0.00  0.00    +0.000 A 
ATOM     12  C   UNL     1       6.108   4.175  14.580  0.00  0.00    +0.000 A 
ATOM     13 CL   UNL     1       6.021   3.603  12.958  0.00  0.00    +0.000 Cl
ATOM     14  C   UNL     1       5.119   3.812  15.494  0.00  0.00    +0.000 A 
ENDBRANCH   5   8
ENDBRANCH   1   2
BRANCH   1  15
ATOM     15  C   UNL     1       2.405   3.566  20.990  0.00  0.00    +0.000 C 
BRANCH  15  16
ATOM     16  O   UNL     1       2.340   2.991  22.305  0.00  0.00    +0.000 OA
ATOM     17  H   UNL     1       3.183   3.170  22.757  0.00  0.00    +0.000 HD
ENDBRANCH  15  16
BRANCH  15  18
ATOM     18  C   UNL     1       1.703   4.928  20.937  0.00  0.00    +0.000 C 
BRANCH  18  19
ATOM     19  O   UNL     1       2.488   5.841  20.166  0.00  0.00    +0.000 OA
BRANCH  19  23
ATOM     20  C   UNL     1       1.757  10.105  17.716  0.00  0.00    +0.000 C 
ATOM     21  C   UNL     1       1.575   9.238  18.931  0.00  0.00    +0.000 A 
ATOM     22  C   UNL     1       2.137   7.949  18.943  0.00  0.00    +0.000 A 
ATOM     23  C   UNL     1       1.990   7.110  20.052  0.00  0.00    +0.000 A 
ATOM     24  C   UNL     1       1.278   7.561  21.162  0.00  0.00    +0.000 A 
ATOM     25  C   UNL     1       0.715   8.838  21.167  0.00  0.00    +0.000 A 
ATOM     26  C   UNL     1       0.863   9.673  20.058  0.00  0.00    +0.000 A 
ATOM     27 CL   UNL     1       0.145  11.242  20.122  0.00  0.00    +0.000 Cl
ENDBRANCH  19  23
ENDBRANCH  18  19
ENDBRANCH  15  18
ENDBRANCH   1  15
TORSDOF 7
ENDMDL
MODEL 4
REMARK VINA RESULT:      -7.7      1.156      1.452
REMARK  Name = 
REMARK  8 active torsions:
REMARK  status: ('A' for Active; 'I' for Inactive)
REMARK    1  A    between atoms: C_1  and  C_2
REMARK    2  A    between atoms: C_4  and  O_5
REMARK    3  A    between atoms: O_5  and  C_6
REMARK    4  A    between atoms: C_6  and  C_7
REMARK    5  A    between atoms: C_7  and  O_8
REMARK    6  A    between atoms: C_7  and  C_9
REMARK    7  A    between atoms: C_9  and  N_10
REMARK    8  A    between atoms: N_13  and  C_14
REMARK                            x       y       z     vdW  Elec       q    Type
REMARK                         _______ _______ _______ _____ _____    ______ ____
ROOT
ATOM      1  C   UNL     1       6.706   7.617  17.523  0.00  0.00    +0.000 C 
ENDROOT
BRANCH   1   2
ATOM      2  N   UNL     1       6.592   6.178  17.215  0.00  0.00    +0.000 NA
ATOM      3  C   UNL     1       6.529   5.335  18.437  0.00  0.00    +0.000 C 
ATOM      4  C   UNL     1       5.275   5.559  19.308  0.00  0.00    +0.000 C 
ATOM      5  N   UNL     1       4.048   5.440  18.507  0.00  0.00    +0.000 N 
ATOM      6  C   UNL     1       4.031   6.148  17.215  0.00  0.00    +0.000 C 
ATOM      7  C   UNL     1       5.352   5.918  16.439  0.00  0.00    +0.000 C 
BRANCH   5   8
ATOM      8  C   UNL     1       3.080   4.488  18.770  0.00  0.00    +0.000 A 
ATOM      9  C   UNL     1       2.249   3.966  17.770  0.00  0.00    +0.000 A 
ATOM     10  C   UNL     1       1.263   3.015  18.056  0.00  0.00    +0.000 A 
ATOM     11  C   UNL     1       1.091   2.561  19.359  0.00  0.00    +0.000 A 
ATOM     12  C   UNL     1       1.910   3.058  20.365  0.00  0.00    +0.000 A 
ATOM     13 CL   UNL     1       1.714   2.503  21.983  0.00  0.00    +0.000 Cl
ATOM     14  C   UNL     1       2.893   4.006  20.075  0.00  0.00    +0.000 A 
ENDBRANCH   5   8
ENDBRANCH   1   2
BRANCH   1  15
ATOM     15  C   UNL     1       8.134   8.126  17.807  0.00  0.00    +0.000 C 
BRANCH  15  16
ATOM     16  O   UNL     1       8.602   7.497  19.011  0.00  0.00    +0.000 OA
ATOM     17  H   UNL     1       9.443   7.914  19.264  0.00  0.00    +0.000 HD
ENDBRANCH  15  16
BRANCH  15  18
ATOM     18  C   UNL     1       8.148   9.654  17.930  0.00  0.00    +0.000 C 
BRANCH  18  19
ATOM     19  O   UNL     1       9.436  10.086  18.377  0.00  0.00    +0.000 OA
BRANCH  19  23
ATOM     20  C   UNL     1       8.327  14.920  18.021  0.00  0.00    +0.000 C 
ATOM     21  C   UNL     1       9.307  13.784  17.919  0.00  0.00    +0.000 A 
ATOM     22  C   UNL     1       8.872  12.477  18.200  0.00  0.00    +0.000 A 
ATOM     23  C   UNL     1       9.752  11.392  18.120  0.00  0.00    +0.000 A 
ATOM     24  C   UNL     1      11.078  11.613  17.752  0.00  0.00    +0.000 A 
ATOM     25  C   UNL     1      11.525  12.904  17.469  0.00  0.00    +0.000 A 
ATOM     26  C   UNL     1      10.644  13.984  17.551  0.00  0.00    +0.000 A 
ATOM     27 CL   UNL     1      11.255  15.558  17.189  0.00  0.00    +0.000 Cl
ENDBRANCH  19  23
ENDBRANCH  18  19
ENDBRANCH  15  18
ENDBRANCH   1  15
TORSDOF 7
ENDMDL
MODEL 5
REMARK VINA RESULT:      -7.6      5.335      7.810
REMARK  Name = 
REMARK  8 active torsions:
REMARK  status: ('A' for Active; 'I' for Inactive)
REMARK    1  A    between atoms: C_1  and  C_2
REMARK    2  A    between atoms: C_4  and  O_5
REMARK    3  A    between atoms: O_5  and  C_6
REMARK    4  A    between atoms: C_6  and  C_7
REMARK    5  A    between atoms: C_7  and  O_8
REMARK    6  A    between atoms: C_7  and  C_9
REMARK    7  A    between atoms: C_9  and  N_10
REMARK    8  A    between atoms: N_13  and  C_14
REMARK                            x       y       z     vdW  Elec       q    Type
REMARK                         _______ _______ _______ _____ _____    ______ ____
ROOT
ATOM      1  C   UNL     1       1.623   2.251  19.895  0.00  0.00    +0.000 C 
ENDROOT
BRANCH   1   2
ATOM      2  N   UNL     1       2.703   1.671  19.073  0.00  0.00    +0.000 NA
ATOM      3  C   UNL     1       2.584   2.028  17.636  0.00  0.00    +0.000 C 
ATOM      4  C   UNL     1       2.747   3.532  17.333  0.00  0.00    +0.000 C 
ATOM      5  N   UNL     1       3.991   4.056  17.917  0.00  0.00    +0.000 N 
ATOM      6  C   UNL     1       4.276   3.678  19.312  0.00  0.00    +0.000 C 
ATOM      7  C   UNL     1       4.024   2.166  19.539  0.00  0.00    +0.000 C 
BRANCH   5   8
ATOM      8  C   UNL     1       4.997   4.609  17.147  0.00  0.00    +0.000 A 
ATOM      9  C   UNL     1       5.323   4.122  15.874  0.00  0.00    +0.000 A 
ATOM     10  C   UNL     1       6.356   4.684  15.115  0.00  0.00    +0.000 A 
ATOM     11  C   UNL     1       7.086   5.755  15.617  0.00  0.00    +0.000 A 
ATOM     12  C   UNL     1       6.775   6.260  16.873  0.00  0.00    +0.000 A 
ATOM     13 CL   UNL     1       7.665   7.590  17.508  0.00  0.00    +0.000 Cl
ATOM     14  C   UNL     1       5.743   5.698  17.626  0.00  0.00    +0.000 A 
ENDBRANCH   5   8
ENDBRANCH   1   2
BRANCH   1  15
ATOM     15  C   UNL     1       2.054   3.361  20.874  0.00  0.00    +0.000 C 
BRANCH  15  16
ATOM     16  O   UNL     1       1.869   2.874  22.213  0.00  0.00    +0.000 OA
ATOM     17  H   UNL     1       1.839   1.903  22.181  0.00  0.00    +0.000 HD
ENDBRANCH  15  16
BRANCH  15  18
ATOM     18  C   UNL     1       1.249   4.643  20.627  0.00  0.00    +0.000 C 
BRANCH  18  19
ATOM     19  O   UNL     1       1.942   5.759  21.190  0.00  0.00    +0.000 OA
BRANCH  19  23
ATOM     20  C   UNL     1       2.379   9.011  17.454  0.00  0.00    +0.000 C 
ATOM     21  C   UNL     1       1.865   8.633  18.815  0.00  0.00    +0.000 A 
ATOM     22  C   UNL     1       2.170   7.362  19.334  0.00  0.00    +0.000 A 
ATOM     23  C   UNL     1       1.710   6.969  20.595  0.00  0.00    +0.000 A 
ATOM     24  C   UNL     1       0.940   7.854  21.349  0.00  0.00    +0.000 A 
ATOM     25  C   UNL     1       0.630   9.119  20.849  0.00  0.00    +0.000 A 
ATOM     26  C   UNL     1       1.090   9.507  19.590  0.00  0.00    +0.000 A 
ATOM     27 CL   UNL     1       0.674  11.086  19.024  0.00  0.00    +0.000 Cl
ENDBRANCH  19  23
ENDBRANCH  18  19
ENDBRANCH  15  18
ENDBRANCH   1  15
TORSDOF 7
ENDMDL
MODEL 6
REMARK VINA RESULT:      -7.5      5.880      7.926
REMARK  Name = 
REMARK  8 active torsions:
REMARK  status: ('A' for Active; 'I' for Inactive)
REMARK    1  A    between atoms: C_1  and  C_2
REMARK    2  A    between atoms: C_4  and  O_5
REMARK    3  A    between atoms: O_5  and  C_6
REMARK    4  A    between atoms: C_6  and  C_7
REMARK    5  A    between atoms: C_7  and  O_8
REMARK    6  A    between atoms: C_7  and  C_9
REMARK    7  A    between atoms: C_9  and  N_10
REMARK    8  A    between atoms: N_13  and  C_14
REMARK                            x       y       z     vdW  Elec       q    Type
REMARK                         _______ _______ _______ _____ _____    ______ ____
ROOT
ATOM      1  C   UNL     1       4.955   5.267  19.238  0.00  0.00    +0.000 C 
ENDROOT
BRANCH   1   2
ATOM      2  N   UNL     1       5.714   4.154  18.634  0.00  0.00    +0.000 NA
ATOM      3  C   UNL     1       4.954   3.460  17.562  0.00  0.00    +0.000 C 
ATOM      4  C   UNL     1       4.653   4.329  16.323  0.00  0.00    +0.000 C 
ATOM      5  N   UNL     1       5.881   4.947  15.801  0.00  0.00    +0.000 N 
ATOM      6  C   UNL     1       6.775   5.576  16.788  0.00  0.00    +0.000 C 
ATOM      7  C   UNL     1       6.969   4.661  18.023  0.00  0.00    +0.000 C 
BRANCH   5   8
ATOM      8  C   UNL     1       6.349   4.702  14.523  0.00  0.00    +0.000 A 
ATOM      9  C   UNL     1       7.424   5.409  13.969  0.00  0.00    +0.000 A 
ATOM     10  C   UNL     1       7.875   5.159  12.668  0.00  0.00    +0.000 A 
ATOM     11  C   UNL     1       7.256   4.185  11.892  0.00  0.00    +0.000 A 
ATOM     12  C   UNL     1       6.194   3.465  12.424  0.00  0.00    +0.000 A 
ATOM     13 CL   UNL     1       5.421   2.252  11.478  0.00  0.00    +0.000 Cl
ATOM     14  C   UNL     1       5.749   3.717  13.722  0.00  0.00    +0.000 A 
ENDBRANCH   5   8
ENDBRANCH   1   2
BRANCH   1  15
ATOM     15  C   UNL     1       3.752   4.858  20.111  0.00  0.00    +0.000 C 
BRANCH  15  16
ATOM     16  O   UNL     1       3.658   3.424  20.098  0.00  0.00    +0.000 OA
ATOM     17  H   UNL     1       4.093   3.098  19.292  0.00  0.00    +0.000 HD
ENDBRANCH  15  16
BRANCH  15  18
ATOM     18  C   UNL     1       2.464   5.509  19.595  0.00  0.00    +0.000 C 
BRANCH  18  19
ATOM     19  O   UNL     1       2.791   6.650  18.798  0.00  0.00    +0.000 OA
BRANCH  19  23
ATOM     20  C   UNL     1       0.368   9.701  21.888  0.00  0.00    +0.000 C 
ATOM     21  C   UNL     1       0.903   9.363  20.524  0.00  0.00    +0.000 A 
ATOM     22  C   UNL     1       1.590   8.150  20.338  0.00  0.00    +0.000 A 
ATOM     23  C   UNL     1       2.104   7.798  19.086  0.00  0.00    +0.000 A 
ATOM     24  C   UNL     1       1.930   8.663  18.007  0.00  0.00    +0.000 A 
ATOM     25  C   UNL     1       1.249   9.870  18.174  0.00  0.00    +0.000 A 
ATOM     26  C   UNL     1       0.738  10.218  19.426  0.00  0.00    +0.000 A 
ATOM     27 CL   UNL     1      -0.095  11.724  19.571  0.00  0.00    +0.000 Cl
ENDBRANCH  19  23
ENDBRANCH  18  19
ENDBRANCH  15  18
ENDBRANCH   1  15
TORSDOF 7
ENDMDL
MODEL 7
REMARK VINA RESULT:      -7.5      0.862      1.611
REMARK  Name = 
REMARK  8 active torsions:
REMARK  status: ('A' for Active; 'I' for Inactive)
REMARK    1  A    between atoms: C_1  and  C_2
REMARK    2  A    between atoms: C_4  and  O_5
REMARK    3  A    between atoms: O_5  and  C_6
REMARK    4  A    between atoms: C_6  and  C_7
REMARK    5  A    between atoms: C_7  and  O_8
REMARK    6  A    between atoms: C_7  and  C_9
REMARK    7  A    between atoms: C_9  and  N_10
REMARK    8  A    between atoms: N_13  and  C_14
REMARK                            x       y       z     vdW  Elec       q    Type
REMARK                         _______ _______ _______ _____ _____    ______ ____
ROOT
ATOM      1  C   UNL     1       6.693   7.902  17.578  0.00  0.00    +0.000 C 
ENDROOT
BRANCH   1   2
ATOM      2  N   UNL     1       6.492   6.649  16.825  0.00  0.00    +0.000 NA
ATOM      3  C   UNL     1       6.783   5.440  17.639  0.00  0.00    +0.000 C 
ATOM      4  C   UNL     1       5.835   5.230  18.838  0.00  0.00    +0.000 C 
ATOM      5  N   UNL     1       4.428   5.266  18.411  0.00  0.00    +0.000 N 
ATOM      6  C   UNL     1       4.040   6.364  17.508  0.00  0.00    +0.000 C 
ATOM      7  C   UNL     1       5.080   6.543  16.374  0.00  0.00    +0.000 C 
BRANCH   5   8
ATOM      8  C   UNL     1       3.575   4.190  18.573  0.00  0.00    +0.000 A 
ATOM      9  C   UNL     1       3.327   3.268  17.548  0.00  0.00    +0.000 A 
ATOM     10  C   UNL     1       2.448   2.193  17.724  0.00  0.00    +0.000 A 
ATOM     11  C   UNL     1       1.798   2.017  18.941  0.00  0.00    +0.000 A 
ATOM     12  C   UNL     1       2.035   2.915  19.974  0.00  0.00    +0.000 A 
ATOM     13 CL   UNL     1       1.244   2.708  21.489  0.00  0.00    +0.000 Cl
ATOM     14  C   UNL     1       2.914   3.984  19.794  0.00  0.00    +0.000 A 
ENDBRANCH   5   8
ENDBRANCH   1   2
BRANCH   1  15
ATOM     15  C   UNL     1       8.160   8.344  17.756  0.00  0.00    +0.000 C 
BRANCH  15  16
ATOM     16  O   UNL     1       8.667   7.736  18.956  0.00  0.00    +0.000 OA
ATOM     17  H   UNL     1       9.636   7.812  18.948  0.00  0.00    +0.000 HD
ENDBRANCH  15  16
BRANCH  15  18
ATOM     18  C   UNL     1       8.261   9.873  17.815  0.00  0.00    +0.000 C 
BRANCH  18  19
ATOM     19  O   UNL     1       9.616  10.252  18.069  0.00  0.00    +0.000 OA
BRANCH  19  23
ATOM     20  C   UNL     1       9.494  13.386  21.928  0.00  0.00    +0.000 C 
ATOM     21  C   UNL     1       9.772  13.093  20.480  0.00  0.00    +0.000 A 
ATOM     22  C   UNL     1       9.547  11.795  19.988  0.00  0.00    +0.000 A 
ATOM     23  C   UNL     1       9.794  11.479  18.648  0.00  0.00    +0.000 A 
ATOM     24  C   UNL     1      10.269  12.469  17.789  0.00  0.00    +0.000 A 
ATOM     25  C   UNL     1      10.496  13.762  18.261  0.00  0.00    +0.000 A 
ATOM     26  C   UNL     1      10.249  14.073  19.599  0.00  0.00    +0.000 A 
ATOM     27 CL   UNL     1      10.549  15.690  20.126  0.00  0.00    +0.000 Cl
ENDBRANCH  19  23
ENDBRANCH  18  19
ENDBRANCH  15  18
ENDBRANCH   1  15
TORSDOF 7
ENDMDL
MODEL 8
REMARK VINA RESULT:      -7.4      6.052      8.301
REMARK  Name = 
REMARK  8 active torsions:
REMARK  status: ('A' for Active; 'I' for Inactive)
REMARK    1  A    between atoms: C_1  and  C_2
REMARK    2  A    between atoms: C_4  and  O_5
REMARK    3  A    between atoms: O_5  and  C_6
REMARK    4  A    between atoms: C_6  and  C_7
REMARK    5  A    between atoms: C_7  and  O_8
REMARK    6  A    between atoms: C_7  and  C_9
REMARK    7  A    between atoms: C_9  and  N_10
REMARK    8  A    between atoms: N_13  and  C_14
REMARK                            x       y       z     vdW  Elec       q    Type
REMARK                         _______ _______ _______ _____ _____    ______ ____
ROOT
ATOM      1  C   UNL     1       4.222   5.067  19.153  0.00  0.00    +0.000 C 
ENDROOT
BRANCH   1   2
ATOM      2  N   UNL     1       3.644   5.371  17.829  0.00  0.00    +0.000 NA
ATOM      3  C   UNL     1       4.426   6.392  17.084  0.00  0.00    +0.000 C 
ATOM      4  C   UNL     1       5.854   5.951  16.698  0.00  0.00    +0.000 C 
ATOM      5  N   UNL     1       5.835   4.663  15.989  0.00  0.00    +0.000 N 
ATOM      6  C   UNL     1       5.003   3.598  16.575  0.00  0.00    +0.000 C 
ATOM      7  C   UNL     1       3.614   4.146  16.990  0.00  0.00    +0.000 C 
BRANCH   5   8
ATOM      8  C   UNL     1       6.303   4.521  14.695  0.00  0.00    +0.000 A 
ATOM      9  C   UNL     1       7.388   5.258  14.203  0.00  0.00    +0.000 A 
ATOM     10  C   UNL     1       7.838   5.113  12.886  0.00  0.00    +0.000 A 
ATOM     11  C   UNL     1       7.208   4.216  12.030  0.00  0.00    +0.000 A 
ATOM     12  C   UNL     1       6.136   3.468  12.499  0.00  0.00    +0.000 A 
ATOM     13 CL   UNL     1       5.349   2.348  11.455  0.00  0.00    +0.000 Cl
ATOM     14  C   UNL     1       5.692   3.615  13.814  0.00  0.00    +0.000 A 
ENDBRANCH   5   8
ENDBRANCH   1   2
BRANCH   1  15
ATOM     15  C   UNL     1       3.214   4.986  20.316  0.00  0.00    +0.000 C 
BRANCH  15  16
ATOM     16  O   UNL     1       2.778   3.622  20.436  0.00  0.00    +0.000 OA
ATOM     17  H   UNL     1       2.107   3.457  19.751  0.00  0.00    +0.000 HD
ENDBRANCH  15  16
BRANCH  15  18
ATOM     18  C   UNL     1       2.033   5.934  20.076  0.00  0.00    +0.000 C 
BRANCH  18  19
ATOM     19  O   UNL     1       2.510   7.279  19.986  0.00  0.00    +0.000 OA
BRANCH  19  23
ATOM     20  C   UNL     1      -0.328   9.717  23.261  0.00  0.00    +0.000 C 
ATOM     21  C   UNL     1       0.193   9.516  21.865  0.00  0.00    +0.000 A 
ATOM     22  C   UNL     1       1.105   8.475  21.617  0.00  0.00    +0.000 A 
ATOM     23  C   UNL     1       1.616   8.254  20.334  0.00  0.00    +0.000 A 
ATOM     24  C   UNL     1       1.210   9.078  19.286  0.00  0.00    +0.000 A 
ATOM     25  C   UNL     1       0.304  10.114  19.514  0.00  0.00    +0.000 A 
ATOM     26  C   UNL     1      -0.203  10.332  20.796  0.00  0.00    +0.000 A 
ATOM     27 CL   UNL     1      -1.321  11.630  21.017  0.00  0.00    +0.000 Cl
ENDBRANCH  19  23
ENDBRANCH  18  19
ENDBRANCH  15  18
ENDBRANCH   1  15
TORSDOF 7
ENDMDL
MODEL 9
REMARK VINA RESULT:      -7.4      5.856      7.918
REMARK  Name = 
REMARK  8 active torsions:
REMARK  status: ('A' for Active; 'I' for Inactive)
REMARK    1  A    between atoms: C_1  and  C_2
REMARK    2  A    between atoms: C_4  and  O_5
REMARK    3  A    between atoms: O_5  and  C_6
REMARK    4  A    between atoms: C_6  and  C_7
REMARK    5  A    between atoms: C_7  and  O_8
REMARK    6  A    between atoms: C_7  and  C_9
REMARK    7  A    between atoms: C_9  and  N_10
REMARK    8  A    between atoms: N_13  and  C_14
REMARK                            x       y       z     vdW  Elec       q    Type
REMARK                         _______ _______ _______ _____ _____    ______ ____
ROOT
ATOM      1  C   UNL     1       1.899   2.831  19.900  0.00  0.00    +0.000 C 
ENDROOT
BRANCH   1   2
ATOM      2  N   UNL     1       2.741   1.996  19.022  0.00  0.00    +0.000 NA
ATOM      3  C   UNL     1       2.496   2.254  17.580  0.00  0.00    +0.000 C 
ATOM      4  C   UNL     1       2.880   3.672  17.108  0.00  0.00    +0.000 C 
ATOM      5  N   UNL     1       4.262   3.999  17.487  0.00  0.00    +0.000 N 
ATOM      6  C   UNL     1       4.659   3.686  18.871  0.00  0.00    +0.000 C 
ATOM      7  C   UNL     1       4.178   2.271  19.279  0.00  0.00    +0.000 C 
BRANCH   5   8
ATOM      8  C   UNL     1       5.239   4.291  16.553  0.00  0.00    +0.000 A 
ATOM      9  C   UNL     1       6.299   5.166  16.822  0.00  0.00    +0.000 A 
ATOM     10  C   UNL     1       7.270   5.463  15.860  0.00  0.00    +0.000 A 
ATOM     11  C   UNL     1       7.201   4.880  14.599  0.00  0.00    +0.000 A 
ATOM     12  C   UNL     1       6.164   4.002  14.312  0.00  0.00    +0.000 A 
ATOM     13 CL   UNL     1       6.068   3.267  12.758  0.00  0.00    +0.000 Cl
ATOM     14  C   UNL     1       5.199   3.708  15.276  0.00  0.00    +0.000 A 
ENDBRANCH   5   8
ENDBRANCH   1   2
BRANCH   1  15
ATOM     15  C   UNL     1       2.587   3.365  21.172  0.00  0.00    +0.000 C 
BRANCH  15  16
ATOM     16  O   UNL     1       1.943   2.773  22.312  0.00  0.00    +0.000 OA
ATOM     17  H   UNL     1       1.061   2.468  22.038  0.00  0.00    +0.000 HD
ENDBRANCH  15  16
BRANCH  15  18
ATOM     18  C   UNL     1       2.518   4.897  21.222  0.00  0.00    +0.000 C 
BRANCH  18  19
ATOM     19  O   UNL     1       2.282   5.407  19.907  0.00  0.00    +0.000 OA
BRANCH  19  23
ATOM     20  C   UNL     1       0.956   9.776  21.876  0.00  0.00    +0.000 C 
ATOM     21  C   UNL     1       1.357   8.932  20.699  0.00  0.00    +0.000 A 
ATOM     22  C   UNL     1       1.620   7.564  20.894  0.00  0.00    +0.000 A 
ATOM     23  C   UNL     1       1.998   6.743  19.827  0.00  0.00    +0.000 A 
ATOM     24  C   UNL     1       2.111   7.290  18.550  0.00  0.00    +0.000 A 
ATOM     25  C   UNL     1       1.851   8.645  18.338  0.00  0.00    +0.000 A 
ATOM     26  C   UNL     1       1.476   9.461  19.406  0.00  0.00    +0.000 A 
ATOM     27 CL   UNL     1       1.167  11.130  19.083  0.00  0.00    +0.000 Cl
ENDBRANCH  19  23
ENDBRANCH  18  19
ENDBRANCH  15  18
ENDBRANCH   1  15
TORSDOF 7
ENDMDL
