MODEL 1
REMARK VINA RESULT:      -7.0      0.000      0.000
REMARK  Name = 
REMARK  11 active torsions:
REMARK  status: ('A' for Active; 'I' for Inactive)
REMARK    1  A    between atoms: C_1  and  C_2
REMARK    2  A    between atoms: C_2  and  O_3
REMARK    3  A    between atoms: O_3  and  P_4
REMARK    4  A    between atoms: P_4  and  O_6
REMARK    5  A    between atoms: P_4  and  C_9
REMARK    6  A    between atoms: O_6  and  C_7
REMARK    7  A    between atoms: C_7  and  C_8
REMARK    8  A    between atoms: C_9  and  C_10
REMARK    9  A    between atoms: C_9  and  C_17
REMARK   10  A    between atoms: C_10  and  C_11
REMARK   11  A    between atoms: C_25  and  C_26
REMARK                            x       y       z     vdW  Elec       q    Type
REMARK                         _______ _______ _______ _____ _____    ______ ____
ROOT
ATOM      1  C   UNL     1       4.347   4.676  18.227  0.00  0.00    +0.000 C 
ENDROOT
BRANCH   1   2
ATOM      2  C   UNL     1       3.565   5.990  18.507  0.00  0.00    +0.000 A 
ATOM      3  S   UNL     1       2.594   6.115  19.919  0.00  0.00    +0.000 S 
ATOM      4  C   UNL     1       2.029   7.684  19.515  0.00  0.00    +0.000 A 
ATOM      5  C   UNL     1       1.171   8.502  20.279  0.00  0.00    +0.000 A 
ATOM      6  C   UNL     1       0.729   9.716  19.747  0.00  0.00    +0.000 A 
ATOM      7  C   UNL     1       1.118  10.105  18.475  0.00  0.00    +0.000 A 
ATOM      8  C   UNL     1       2.018   9.318  17.747  0.00  0.00    +0.000 A 
ATOM      9  C   UNL     1       2.520   8.095  18.276  0.00  0.00    +0.000 A 
ATOM     10  C   UNL     1       3.538   7.181  17.783  0.00  0.00    +0.000 A 
ATOM     11  C   UNL     1       4.456   7.519  16.647  0.00  0.00    +0.000 C 
ENDBRANCH   1   2
BRANCH   1  12
ATOM     12  P   UNL     1       3.860   3.396  19.441  0.00  0.00    +0.000 P 
ATOM     13  O   UNL     1       5.357   3.062  19.622  0.00  0.00    +0.000 OA
BRANCH  12  14
ATOM     14  O   UNL     1       3.400   2.186  20.589  0.00  0.00    +0.000 OA
BRANCH  14  16
ATOM     15  C   UNL     1       1.281   2.647  21.641  0.00  0.00    +0.000 C 
ATOM     16  C   UNL     1       2.787   2.725  21.761  0.00  0.00    +0.000 C 
ENDBRANCH  14  16
ENDBRANCH  12  14
BRANCH  12  17
ATOM     17  O   UNL     1       3.285   2.368  18.292  0.00  0.00    +0.000 OA
BRANCH  17  18
ATOM     18  C   UNL     1       1.913   2.010  18.210  0.00  0.00    +0.000 C 
ATOM     19  C   UNL     1       0.938   3.169  18.268  0.00  0.00    +0.000 C 
ENDBRANCH  17  18
ENDBRANCH  12  17
ENDBRANCH   1  12
BRANCH   1  20
ATOM     20  C   UNL     1       4.094   4.268  16.741  0.00  0.00    +0.000 C 
BRANCH  20  21
ATOM     21  C   UNL     1       5.273   4.295  15.784  0.00  0.00    +0.000 A 
ATOM     22  C   UNL     1       6.519   4.744  16.221  0.00  0.00    +0.000 A 
ATOM     23  C   UNL     1       7.560   4.971  15.314  0.00  0.00    +0.000 A 
ATOM     24  C   UNL     1       7.358   4.746  13.955  0.00  0.00    +0.000 A 
ATOM     25  C   UNL     1       6.157   4.201  13.521  0.00  0.00    +0.000 A 
ATOM     26  C   UNL     1       5.134   3.928  14.435  0.00  0.00    +0.000 A 
ENDBRANCH  20  21
ENDBRANCH   1  20
TORSDOF 8
ENDMDL
MODEL 2
REMARK VINA RESULT:      -6.9      2.986      5.286
REMARK  Name = 
REMARK  11 active torsions:
REMARK  status: ('A' for Active; 'I' for Inactive)
REMARK    1  A    between atoms: C_1  and  C_2
REMARK    2  A    between atoms: C_2  and  O_3
REMARK    3  A    between atoms: O_3  and  P_4
REMARK    4  A    between atoms: P_4  and  O_6
REMARK    5  A    between atoms: P_4  and  C_9
REMARK    6  A    between atoms: O_6  and  C_7
REMARK    7  A    between atoms: C_7  and  C_8
REMARK    8  A    between atoms: C_9  and  C_10
REMARK    9  A    between atoms: C_9  and  C_17
REMARK   10  A    between atoms: C_10  and  C_11
REMARK   11  A    between atoms: C_25  and  C_26
REMARK                            x       y       z     vdW  Elec       q    Type
REMARK                         _______ _______ _______ _____ _____    ______ ____
ROOT
ATOM      1  C   UNL     1       5.801   5.633  16.605  0.00  0.00    +0.000 C 
ENDROOT
BRANCH   1   2
ATOM      2  C   UNL     1       4.736   5.096  17.601  0.00  0.00    +0.000 A 
ATOM      3  S   UNL     1       4.908   3.518  18.257  0.00  0.00    +0.000 S 
ATOM      4  C   UNL     1       3.428   3.606  19.122  0.00  0.00    +0.000 A 
ATOM      5  C   UNL     1       2.887   2.628  19.985  0.00  0.00    +0.000 A 
ATOM      6  C   UNL     1       1.615   2.824  20.528  0.00  0.00    +0.000 A 
ATOM      7  C   UNL     1       0.886   3.959  20.211  0.00  0.00    +0.000 A 
ATOM      8  C   UNL     1       1.453   4.952  19.404  0.00  0.00    +0.000 A 
ATOM      9  C   UNL     1       2.763   4.804  18.866  0.00  0.00    +0.000 A 
ATOM     10  C   UNL     1       3.606   5.726  18.122  0.00  0.00    +0.000 A 
ATOM     11  C   UNL     1       3.287   7.183  17.973  0.00  0.00    +0.000 C 
ENDBRANCH   1   2
BRANCH   1  12
ATOM     12  P   UNL     1       6.955   6.753  17.477  0.00  0.00    +0.000 P 
ATOM     13  O   UNL     1       7.811   6.799  16.192  0.00  0.00    +0.000 OA
BRANCH  12  14
ATOM     14  O   UNL     1       8.046   7.813  18.302  0.00  0.00    +0.000 OA
BRANCH  14  16
ATOM     15  C   UNL     1       8.937  10.029  18.618  0.00  0.00    +0.000 C 
ATOM     16  C   UNL     1       8.046   9.142  17.778  0.00  0.00    +0.000 C 
ENDBRANCH  14  16
ENDBRANCH  12  14
BRANCH  12  17
ATOM     17  O   UNL     1       7.582   5.556  18.416  0.00  0.00    +0.000 OA
BRANCH  17  18
ATOM     18  C   UNL     1       7.511   5.587  19.835  0.00  0.00    +0.000 C 
ATOM     19  C   UNL     1       8.743   5.078  20.555  0.00  0.00    +0.000 C 
ENDBRANCH  17  18
ENDBRANCH  12  17
ENDBRANCH   1  12
BRANCH   1  20
ATOM     20  C   UNL     1       6.496   4.407  15.931  0.00  0.00    +0.000 C 
BRANCH  20  21
ATOM     21  C   UNL     1       6.502   4.337  14.414  0.00  0.00    +0.000 A 
ATOM     22  C   UNL     1       5.569   3.545  13.746  0.00  0.00    +0.000 A 
ATOM     23  C   UNL     1       5.682   3.302  12.373  0.00  0.00    +0.000 A 
ATOM     24  C   UNL     1       6.738   3.858  11.655  0.00  0.00    +0.000 A 
ATOM     25  C   UNL     1       7.613   4.731  12.287  0.00  0.00    +0.000 A 
ATOM     26  C   UNL     1       7.469   5.012  13.650  0.00  0.00    +0.000 A 
ENDBRANCH  20  21
ENDBRANCH   1  20
TORSDOF 8
ENDMDL
MODEL 3
REMARK VINA RESULT:      -6.7      1.832      3.108
REMARK  Name = 
REMARK  11 active torsions:
REMARK  status: ('A' for Active; 'I' for Inactive)
REMARK    1  A    between atoms: C_1  and  C_2
REMARK    2  A    between atoms: C_2  and  O_3
REMARK    3  A    between atoms: O_3  and  P_4
REMARK    4  A    between atoms: P_4  and  O_6
REMARK    5  A    between atoms: P_4  and  C_9
REMARK    6  A    between atoms: O_6  and  C_7
REMARK    7  A    between atoms: C_7  and  C_8
REMARK    8  A    between atoms: C_9  and  C_10
REMARK    9  A    between atoms: C_9  and  C_17
REMARK   10  A    between atoms: C_10  and  C_11
REMARK   11  A    between atoms: C_25  and  C_26
REMARK                            x       y       z     vdW  Elec       q    Type
REMARK                         _______ _______ _______ _____ _____    ______ ____
ROOT
ATOM      1  C   UNL     1       3.114   6.958  18.836  0.00  0.00    +0.000 C 
ENDROOT
BRANCH   1   2
ATOM      2  C   UNL     1       2.101   8.108  19.094  0.00  0.00    +0.000 A 
ATOM      3  S   UNL     1       1.683   9.174  17.814  0.00  0.00    +0.000 S 
ATOM      4  C   UNL     1       0.676  10.141  18.811  0.00  0.00    +0.000 A 
ATOM      5  C   UNL     1      -0.096  11.255  18.416  0.00  0.00    +0.000 A 
ATOM      6  C   UNL     1      -0.781  11.991  19.386  0.00  0.00    +0.000 A 
ATOM      7  C   UNL     1      -0.691  11.640  20.724  0.00  0.00    +0.000 A 
ATOM      8  C   UNL     1       0.026  10.499  21.101  0.00  0.00    +0.000 A 
ATOM      9  C   UNL     1       0.703   9.702  20.134  0.00  0.00    +0.000 A 
ATOM     10  C   UNL     1       1.394   8.428  20.253  0.00  0.00    +0.000 A 
ATOM     11  C   UNL     1       1.314   7.568  21.478  0.00  0.00    +0.000 C 
ENDBRANCH   1   2
BRANCH   1  12
ATOM     12  P   UNL     1       2.312   5.344  19.153  0.00  0.00    +0.000 P 
ATOM     13  O   UNL     1       3.556   4.938  19.973  0.00  0.00    +0.000 OA
BRANCH  12  14
ATOM     14  O   UNL     1       1.553   3.819  19.453  0.00  0.00    +0.000 OA
BRANCH  14  16
ATOM     15  C   UNL     1       1.630   2.555  21.503  0.00  0.00    +0.000 C 
ATOM     16  C   UNL     1       0.998   3.713  20.764  0.00  0.00    +0.000 C 
ENDBRANCH  14  16
ENDBRANCH  12  14
BRANCH  12  17
ATOM     17  O   UNL     1       2.559   4.795  17.621  0.00  0.00    +0.000 OA
BRANCH  17  18
ATOM     18  C   UNL     1       2.645   3.411  17.314  0.00  0.00    +0.000 C 
ATOM     19  C   UNL     1       4.043   2.829  17.338  0.00  0.00    +0.000 C 
ENDBRANCH  17  18
ENDBRANCH  12  17
ENDBRANCH   1  12
BRANCH   1  20
ATOM     20  C   UNL     1       3.667   7.116  17.384  0.00  0.00    +0.000 C 
BRANCH  20  21
ATOM     21  C   UNL     1       4.985   6.442  17.046  0.00  0.00    +0.000 A 
ATOM     22  C   UNL     1       5.232   5.998  15.747  0.00  0.00    +0.000 A 
ATOM     23  C   UNL     1       6.343   5.197  15.460  0.00  0.00    +0.000 A 
ATOM     24  C   UNL     1       7.220   4.836  16.478  0.00  0.00    +0.000 A 
ATOM     25  C   UNL     1       7.042   5.356  17.754  0.00  0.00    +0.000 A 
ATOM     26  C   UNL     1       5.959   6.197  18.029  0.00  0.00    +0.000 A 
ENDBRANCH  20  21
ENDBRANCH   1  20
TORSDOF 8
ENDMDL
MODEL 4
REMARK VINA RESULT:      -6.4      2.454      5.107
REMARK  Name = 
REMARK  11 active torsions:
REMARK  status: ('A' for Active; 'I' for Inactive)
REMARK    1  A    between atoms: C_1  and  C_2
REMARK    2  A    between atoms: C_2  and  O_3
REMARK    3  A    between atoms: O_3  and  P_4
REMARK    4  A    between atoms: P_4  and  O_6
REMARK    5  A    between atoms: P_4  and  C_9
REMARK    6  A    between atoms: O_6  and  C_7
REMARK    7  A    between atoms: C_7  and  C_8
REMARK    8  A    between atoms: C_9  and  C_10
REMARK    9  A    between atoms: C_9  and  C_17
REMARK   10  A    between atoms: C_10  and  C_11
REMARK   11  A    between atoms: C_25  and  C_26
REMARK                            x       y       z     vdW  Elec       q    Type
REMARK                         _______ _______ _______ _____ _____    ______ ____
ROOT
ATOM      1  C   UNL     1       4.503   5.011  16.387  0.00  0.00    +0.000 C 
ENDROOT
BRANCH   1   2
ATOM      2  C   UNL     1       3.818   4.465  17.671  0.00  0.00    +0.000 A 
ATOM      3  S   UNL     1       4.783   3.841  18.948  0.00  0.00    +0.000 S 
ATOM      4  C   UNL     1       3.423   3.387  19.891  0.00  0.00    +0.000 A 
ATOM      5  C   UNL     1       3.435   2.814  21.180  0.00  0.00    +0.000 A 
ATOM      6  C   UNL     1       2.229   2.411  21.761  0.00  0.00    +0.000 A 
ATOM      7  C   UNL     1       1.036   2.560  21.071  0.00  0.00    +0.000 A 
ATOM      8  C   UNL     1       1.026   3.186  19.819  0.00  0.00    +0.000 A 
ATOM      9  C   UNL     1       2.231   3.644  19.215  0.00  0.00    +0.000 A 
ATOM     10  C   UNL     1       2.465   4.421  18.008  0.00  0.00    +0.000 A 
ATOM     11  C   UNL     1       1.367   5.105  17.252  0.00  0.00    +0.000 C 
ENDBRANCH   1   2
BRANCH   1  12
ATOM     12  P   UNL     1       5.416   6.548  16.780  0.00  0.00    +0.000 P 
ATOM     13  O   UNL     1       6.438   5.689  17.556  0.00  0.00    +0.000 OA
BRANCH  12  14
ATOM     14  O   UNL     1       6.278   8.001  17.151  0.00  0.00    +0.000 OA
BRANCH  14  16
ATOM     15  C   UNL     1       8.255   9.048  18.048  0.00  0.00    +0.000 C 
ATOM     16  C   UNL     1       7.637   7.770  17.525  0.00  0.00    +0.000 C 
ENDBRANCH  14  16
ENDBRANCH  12  14
BRANCH  12  17
ATOM     17  O   UNL     1       4.302   7.059  17.879  0.00  0.00    +0.000 OA
BRANCH  17  18
ATOM     18  C   UNL     1       3.341   8.061  17.577  0.00  0.00    +0.000 C 
ATOM     19  C   UNL     1       2.228   8.216  18.593  0.00  0.00    +0.000 C 
ENDBRANCH  17  18
ENDBRANCH  12  17
ENDBRANCH   1  12
BRANCH   1  20
ATOM     20  C   UNL     1       5.399   3.877  15.795  0.00  0.00    +0.000 C 
BRANCH  20  21
ATOM     21  C   UNL     1       5.931   4.053  14.383  0.00  0.00    +0.000 A 
ATOM     22  C   UNL     1       5.354   3.351  13.326  0.00  0.00    +0.000 A 
ATOM     23  C   UNL     1       5.952   3.338  12.060  0.00  0.00    +0.000 A 
ATOM     24  C   UNL     1       7.138   4.034  11.846  0.00  0.00    +0.000 A 
ATOM     25  C   UNL     1       7.666   4.819  12.862  0.00  0.00    +0.000 A 
ATOM     26  C   UNL     1       7.039   4.872  14.112  0.00  0.00    +0.000 A 
ENDBRANCH  20  21
ENDBRANCH   1  20
TORSDOF 8
ENDMDL
MODEL 5
REMARK VINA RESULT:      -6.3      2.825      5.277
REMARK  Name = 
REMARK  11 active torsions:
REMARK  status: ('A' for Active; 'I' for Inactive)
REMARK    1  A    between atoms: C_1  and  C_2
REMARK    2  A    between atoms: C_2  and  O_3
REMARK    3  A    between atoms: O_3  and  P_4
REMARK    4  A    between atoms: P_4  and  O_6
REMARK    5  A    between atoms: P_4  and  C_9
REMARK    6  A    between atoms: O_6  and  C_7
REMARK    7  A    between atoms: C_7  and  C_8
REMARK    8  A    between atoms: C_9  and  C_10
REMARK    9  A    between atoms: C_9  and  C_17
REMARK   10  A    between atoms: C_10  and  C_11
REMARK   11  A    between atoms: C_25  and  C_26
REMARK                            x       y       z     vdW  Elec       q    Type
REMARK                         _______ _______ _______ _____ _____    ______ ____
ROOT
ATOM      1  C   UNL     1       4.859   5.277  16.625  0.00  0.00    +0.000 C 
ENDROOT
BRANCH   1   2
ATOM      2  C   UNL     1       4.092   4.677  17.837  0.00  0.00    +0.000 A 
ATOM      3  S   UNL     1       4.704   3.274  18.617  0.00  0.00    +0.000 S 
ATOM      4  C   UNL     1       3.379   3.175  19.702  0.00  0.00    +0.000 A 
ATOM      5  C   UNL     1       3.198   2.237  20.741  0.00  0.00    +0.000 A 
ATOM      6  C   UNL     1       2.003   2.241  21.466  0.00  0.00    +0.000 A 
ATOM      7  C   UNL     1       1.001   3.147  21.157  0.00  0.00    +0.000 A 
ATOM      8  C   UNL     1       1.212   4.113  20.167  0.00  0.00    +0.000 A 
ATOM      9  C   UNL     1       2.433   4.164  19.437  0.00  0.00    +0.000 A 
ATOM     10  C   UNL     1       2.934   5.127  18.469  0.00  0.00    +0.000 A 
ATOM     11  C   UNL     1       2.278   6.453  18.224  0.00  0.00    +0.000 C 
ENDBRANCH   1   2
BRANCH   1  12
ATOM     12  P   UNL     1       5.722   6.807  17.137  0.00  0.00    +0.000 P 
ATOM     13  O   UNL     1       5.476   7.367  15.719  0.00  0.00    +0.000 OA
BRANCH  12  14
ATOM     14  O   UNL     1       6.539   8.254  17.621  0.00  0.00    +0.000 OA
BRANCH  14  16
ATOM     15  C   UNL     1       8.633   9.229  18.307  0.00  0.00    +0.000 C 
ATOM     16  C   UNL     1       7.954   8.189  17.443  0.00  0.00    +0.000 C 
ENDBRANCH  14  16
ENDBRANCH  12  14
BRANCH  12  17
ATOM     17  O   UNL     1       7.212   6.107  17.113  0.00  0.00    +0.000 OA
BRANCH  17  18
ATOM     18  C   UNL     1       7.727   5.379  18.220  0.00  0.00    +0.000 C 
ATOM     19  C   UNL     1       7.068   5.674  19.551  0.00  0.00    +0.000 C 
ENDBRANCH  17  18
ENDBRANCH  12  17
ENDBRANCH   1  12
BRANCH   1  20
ATOM     20  C   UNL     1       5.808   4.175  16.057  0.00  0.00    +0.000 C 
BRANCH  20  21
ATOM     21  C   UNL     1       6.123   4.203  14.571  0.00  0.00    +0.000 A 
ATOM     22  C   UNL     1       5.331   3.486  13.675  0.00  0.00    +0.000 A 
ATOM     23  C   UNL     1       5.719   3.330  12.339  0.00  0.00    +0.000 A 
ATOM     24  C   UNL     1       6.909   3.897  11.891  0.00  0.00    +0.000 A 
ATOM     25  C   UNL     1       7.652   4.698  12.747  0.00  0.00    +0.000 A 
ATOM     26  C   UNL     1       7.238   4.895  14.069  0.00  0.00    +0.000 A 
ENDBRANCH  20  21
ENDBRANCH   1  20
TORSDOF 8
ENDMDL
MODEL 6
REMARK VINA RESULT:      -6.3      1.933      3.121
REMARK  Name = 
REMARK  11 active torsions:
REMARK  status: ('A' for Active; 'I' for Inactive)
REMARK    1  A    between atoms: C_1  and  C_2
REMARK    2  A    between atoms: C_2  and  O_3
REMARK    3  A    between atoms: O_3  and  P_4
REMARK    4  A    between atoms: P_4  and  O_6
REMARK    5  A    between atoms: P_4  and  C_9
REMARK    6  A    between atoms: O_6  and  C_7
REMARK    7  A    between atoms: C_7  and  C_8
REMARK    8  A    between atoms: C_9  and  C_10
REMARK    9  A    between atoms: C_9  and  C_17
REMARK   10  A    between atoms: C_10  and  C_11
REMARK   11  A    between atoms: C_25  and  C_26
REMARK                            x       y       z     vdW  Elec       q    Type
REMARK                         _______ _______ _______ _____ _____    ______ ____
ROOT
ATOM      1  C   UNL     1       2.881   7.223  19.046  0.00  0.00    +0.000 C 
ENDROOT
BRANCH   1   2
ATOM      2  C   UNL     1       1.833   8.361  19.187  0.00  0.00    +0.000 A 
ATOM      3  S   UNL     1       1.211   9.122  17.778  0.00  0.00    +0.000 S 
ATOM      4  C   UNL     1       0.262  10.236  18.674  0.00  0.00    +0.000 A 
ATOM      5  C   UNL     1      -0.616  11.213  18.159  0.00  0.00    +0.000 A 
ATOM      6  C   UNL     1      -1.235  12.108  19.036  0.00  0.00    +0.000 A 
ATOM      7  C   UNL     1      -0.977  12.045  20.396  0.00  0.00    +0.000 A 
ATOM      8  C   UNL     1      -0.153  11.035  20.906  0.00  0.00    +0.000 A 
ATOM      9  C   UNL     1       0.461  10.082  20.045  0.00  0.00    +0.000 A 
ATOM     10  C   UNL     1       1.239   8.887  20.334  0.00  0.00    +0.000 A 
ATOM     11  C   UNL     1       1.348   8.298  21.708  0.00  0.00    +0.000 C 
ENDBRANCH   1   2
BRANCH   1  12
ATOM     12  P   UNL     1       2.191   5.662  19.706  0.00  0.00    +0.000 P 
ATOM     13  O   UNL     1       3.634   5.211  20.023  0.00  0.00    +0.000 OA
BRANCH  12  14
ATOM     14  O   UNL     1       1.539   4.186  20.331  0.00  0.00    +0.000 OA
BRANCH  14  16
ATOM     15  C   UNL     1       2.333   2.296  21.597  0.00  0.00    +0.000 C 
ATOM     16  C   UNL     1       2.122   3.794  21.574  0.00  0.00    +0.000 C 
ENDBRANCH  14  16
ENDBRANCH  12  14
BRANCH  12  17
ATOM     17  O   UNL     1       1.829   5.063  18.217  0.00  0.00    +0.000 OA
BRANCH  17  18
ATOM     18  C   UNL     1       1.449   3.709  18.014  0.00  0.00    +0.000 C 
ATOM     19  C   UNL     1       2.537   2.806  17.471  0.00  0.00    +0.000 C 
ENDBRANCH  17  18
ENDBRANCH  12  17
ENDBRANCH   1  12
BRANCH   1  20
ATOM     20  C   UNL     1       3.309   7.141  17.546  0.00  0.00    +0.000 C 
BRANCH  20  21
ATOM     21  C   UNL     1       4.652   6.509  17.222  0.00  0.00    +0.000 A 
ATOM     22  C   UNL     1       5.831   7.106  17.663  0.00  0.00    +0.000 A 
ATOM     23  C   UNL     1       7.078   6.661  17.207  0.00  0.00    +0.000 A 
ATOM     24  C   UNL     1       7.148   5.606  16.302  0.00  0.00    +0.000 A 
ATOM     25  C   UNL     1       5.988   4.937  15.935  0.00  0.00    +0.000 A 
ATOM     26  C   UNL     1       4.747   5.351  16.431  0.00  0.00    +0.000 A 
ENDBRANCH  20  21
ENDBRANCH   1  20
TORSDOF 8
ENDMDL
MODEL 7
REMARK VINA RESULT:      -6.2      2.863      5.102
REMARK  Name = 
REMARK  11 active torsions:
REMARK  status: ('A' for Active; 'I' for Inactive)
REMARK    1  A    between atoms: C_1  and  C_2
REMARK    2  A    between atoms: C_2  and  O_3
REMARK    3  A    between atoms: O_3  and  P_4
REMARK    4  A    between atoms: P_4  and  O_6
REMARK    5  A    between atoms: P_4  and  C_9
REMARK    6  A    between atoms: O_6  and  C_7
REMARK    7  A    between atoms: C_7  and  C_8
REMARK    8  A    between atoms: C_9  and  C_10
REMARK    9  A    between atoms: C_9  and  C_17
REMARK   10  A    between atoms: C_10  and  C_11
REMARK   11  A    between atoms: C_25  and  C_26
REMARK                            x       y       z     vdW  Elec       q    Type
REMARK                         _______ _______ _______ _____ _____    ______ ____
ROOT
ATOM      1  C   UNL     1       5.346   5.235  15.971  0.00  0.00    +0.000 C 
ENDROOT
BRANCH   1   2
ATOM      2  C   UNL     1       4.419   4.880  17.167  0.00  0.00    +0.000 A 
ATOM      3  S   UNL     1       4.459   3.296  17.831  0.00  0.00    +0.000 S 
ATOM      4  C   UNL     1       3.204   3.625  18.955  0.00  0.00    +0.000 A 
ATOM      5  C   UNL     1       2.690   2.751  19.935  0.00  0.00    +0.000 A 
ATOM      6  C   UNL     1       1.592   3.152  20.701  0.00  0.00    +0.000 A 
ATOM      7  C   UNL     1       1.006   4.389  20.489  0.00  0.00    +0.000 A 
ATOM      8  C   UNL     1       1.559   5.275  19.558  0.00  0.00    +0.000 A 
ATOM      9  C   UNL     1       2.702   4.915  18.789  0.00  0.00    +0.000 A 
ATOM     10  C   UNL     1       3.524   5.686  17.869  0.00  0.00    +0.000 A 
ATOM     11  C   UNL     1       3.418   7.176  17.735  0.00  0.00    +0.000 C 
ENDBRANCH   1   2
BRANCH   1  12
ATOM     12  P   UNL     1       6.636   6.412  16.517  0.00  0.00    +0.000 P 
ATOM     13  O   UNL     1       7.663   5.593  15.704  0.00  0.00    +0.000 OA
BRANCH  12  14
ATOM     14  O   UNL     1       7.856   7.525  17.033  0.00  0.00    +0.000 OA
BRANCH  14  16
ATOM     15  C   UNL     1       8.447   9.519  18.250  0.00  0.00    +0.000 C 
ATOM     16  C   UNL     1       7.325   8.691  17.663  0.00  0.00    +0.000 C 
ENDBRANCH  14  16
ENDBRANCH  12  14
BRANCH  12  17
ATOM     17  O   UNL     1       6.678   5.824  18.054  0.00  0.00    +0.000 OA
BRANCH  17  18
ATOM     18  C   UNL     1       7.814   5.150  18.579  0.00  0.00    +0.000 C 
ATOM     19  C   UNL     1       8.236   5.581  19.968  0.00  0.00    +0.000 C 
ENDBRANCH  17  18
ENDBRANCH  12  17
ENDBRANCH   1  12
BRANCH   1  20
ATOM     20  C   UNL     1       5.911   3.903  15.384  0.00  0.00    +0.000 C 
BRANCH  20  21
ATOM     21  C   UNL     1       5.879   3.717  13.877  0.00  0.00    +0.000 A 
ATOM     22  C   UNL     1       7.024   3.955  13.118  0.00  0.00    +0.000 A 
ATOM     23  C   UNL     1       6.965   3.992  11.720  0.00  0.00    +0.000 A 
ATOM     24  C   UNL     1       5.751   3.786  11.071  0.00  0.00    +0.000 A 
ATOM     25  C   UNL     1       4.626   3.446  11.811  0.00  0.00    +0.000 A 
ATOM     26  C   UNL     1       4.697   3.361  13.206  0.00  0.00    +0.000 A 
ENDBRANCH  20  21
ENDBRANCH   1  20
TORSDOF 8
ENDMDL
MODEL 8
REMARK VINA RESULT:      -6.2      1.826      3.283
REMARK  Name = 
REMARK  11 active torsions:
REMARK  status: ('A' for Active; 'I' for Inactive)
REMARK    1  A    between atoms: C_1  and  C_2
REMARK    2  A    between atoms: C_2  and  O_3
REMARK    3  A    between atoms: O_3  and  P_4
REMARK    4  A    between atoms: P_4  and  O_6
REMARK    5  A    between atoms: P_4  and  C_9
REMARK    6  A    between atoms: O_6  and  C_7
REMARK    7  A    between atoms: C_7  and  C_8
REMARK    8  A    between atoms: C_9  and  C_10
REMARK    9  A    between atoms: C_9  and  C_17
REMARK   10  A    between atoms: C_10  and  C_11
REMARK   11  A    between atoms: C_25  and  C_26
REMARK                            x       y       z     vdW  Elec       q    Type
REMARK                         _______ _______ _______ _____ _____    ______ ____
ROOT
ATOM      1  C   UNL     1       3.367   6.560  18.533  0.00  0.00    +0.000 C 
ENDROOT
BRANCH   1   2
ATOM      2  C   UNL     1       2.339   7.660  18.919  0.00  0.00    +0.000 A 
ATOM      3  S   UNL     1       1.812   8.783  17.730  0.00  0.00    +0.000 S 
ATOM      4  C   UNL     1       0.842   9.659  18.842  0.00  0.00    +0.000 A 
ATOM      5  C   UNL     1       0.016  10.768  18.560  0.00  0.00    +0.000 A 
ATOM      6  C   UNL     1      -0.627  11.427  19.611  0.00  0.00    +0.000 A 
ATOM      7  C   UNL     1      -0.444  11.004  20.917  0.00  0.00    +0.000 A 
ATOM      8  C   UNL     1       0.327   9.866  21.183  0.00  0.00    +0.000 A 
ATOM      9  C   UNL     1       0.964   9.148  20.132  0.00  0.00    +0.000 A 
ATOM     10  C   UNL     1       1.698   7.891  20.135  0.00  0.00    +0.000 A 
ATOM     11  C   UNL     1       1.719   6.962  21.311  0.00  0.00    +0.000 C 
ENDBRANCH   1   2
BRANCH   1  12
ATOM     12  P   UNL     1       2.485   5.017  18.094  0.00  0.00    +0.000 P 
ATOM     13  O   UNL     1       1.250   5.876  17.744  0.00  0.00    +0.000 OA
BRANCH  12  14
ATOM     14  O   UNL     1       1.652   3.559  17.679  0.00  0.00    +0.000 OA
BRANCH  14  16
ATOM     15  C   UNL     1       3.933   2.860  17.340  0.00  0.00    +0.000 C 
ATOM     16  C   UNL     1       2.511   2.420  17.605  0.00  0.00    +0.000 C 
ENDBRANCH  14  16
ENDBRANCH  12  14
BRANCH  12  17
ATOM     17  O   UNL     1       2.301   4.546  19.661  0.00  0.00    +0.000 OA
BRANCH  17  18
ATOM     18  C   UNL     1       1.110   3.933  20.135  0.00  0.00    +0.000 C 
ATOM     19  C   UNL     1       1.305   2.902  21.227  0.00  0.00    +0.000 C 
ENDBRANCH  17  18
ENDBRANCH  12  17
ENDBRANCH   1  12
BRANCH   1  20
ATOM     20  C   UNL     1       4.271   7.120  17.389  0.00  0.00    +0.000 C 
BRANCH  20  21
ATOM     21  C   UNL     1       5.370   6.223  16.846  0.00  0.00    +0.000 A 
ATOM     22  C   UNL     1       5.353   5.825  15.510  0.00  0.00    +0.000 A 
ATOM     23  C   UNL     1       6.232   4.842  15.041  0.00  0.00    +0.000 A 
ATOM     24  C   UNL     1       7.140   4.250  15.914  0.00  0.00    +0.000 A 
ATOM     25  C   UNL     1       7.238   4.711  17.220  0.00  0.00    +0.000 A 
ATOM     26  C   UNL     1       6.392   5.729  17.675  0.00  0.00    +0.000 A 
ENDBRANCH  20  21
ENDBRANCH   1  20
TORSDOF 8
ENDMDL
MODEL 9
REMARK VINA RESULT:      -6.1      5.337      9.273
REMARK  Name = 
REMARK  11 active torsions:
REMARK  status: ('A' for Active; 'I' for Inactive)
REMARK    1  A    between atoms: C_1  and  C_2
REMARK    2  A    between atoms: C_2  and  O_3
REMARK    3  A    between atoms: O_3  and  P_4
REMARK    4  A    between atoms: P_4  and  O_6
REMARK    5  A    between atoms: P_4  and  C_9
REMARK    6  A    between atoms: O_6  and  C_7
REMARK    7  A    between atoms: C_7  and  C_8
REMARK    8  A    between atoms: C_9  and  C_10
REMARK    9  A    between atoms: C_9  and  C_17
REMARK   10  A    between atoms: C_10  and  C_11
REMARK   11  A    between atoms: C_25  and  C_26
REMARK                            x       y       z     vdW  Elec       q    Type
REMARK                         _______ _______ _______ _____ _____    ______ ____
ROOT
ATOM      1  C   UNL     1      -0.518  10.958  19.672  0.00  0.00    +0.000 C 
ENDROOT
BRANCH   1   2
ATOM      2  C   UNL     1       0.534   9.829  19.482  0.00  0.00    +0.000 A 
ATOM      3  S   UNL     1       1.386   9.705  17.996  0.00  0.00    +0.000 S 
ATOM      4  C   UNL     1       2.226   8.288  18.477  0.00  0.00    +0.000 A 
ATOM      5  C   UNL     1       3.203   7.587  17.740  0.00  0.00    +0.000 A 
ATOM      6  C   UNL     1       3.711   6.387  18.246  0.00  0.00    +0.000 A 
ATOM      7  C   UNL     1       3.249   5.885  19.452  0.00  0.00    +0.000 A 
ATOM      8  C   UNL     1       2.325   6.618  20.207  0.00  0.00    +0.000 A 
ATOM      9  C   UNL     1       1.817   7.863  19.740  0.00  0.00    +0.000 A 
ATOM     10  C   UNL     1       0.965   8.853  20.380  0.00  0.00    +0.000 A 
ATOM     11  C   UNL     1       0.631   8.819  21.841  0.00  0.00    +0.000 C 
ENDBRANCH   1   2
BRANCH   1  12
ATOM     12  P   UNL     1       0.142  12.233  20.806  0.00  0.00    +0.000 P 
ATOM     13  O   UNL     1      -0.583  13.300  19.956  0.00  0.00    +0.000 OA
BRANCH  12  14
ATOM     14  O   UNL     1       0.766  13.439  21.879  0.00  0.00    +0.000 OA
BRANCH  14  16
ATOM     15  C   UNL     1      -1.252  13.182  23.171  0.00  0.00    +0.000 C 
ATOM     16  C   UNL     1      -0.254  14.152  22.580  0.00  0.00    +0.000 C 
ENDBRANCH  14  16
ENDBRANCH  12  14
BRANCH  12  17
ATOM     17  O   UNL     1       1.675  12.124  20.215  0.00  0.00    +0.000 OA
BRANCH  17  18
ATOM     18  C   UNL     1       2.368  13.247  19.691  0.00  0.00    +0.000 C 
ATOM     19  C   UNL     1       2.559  13.246  18.188  0.00  0.00    +0.000 C 
ENDBRANCH  17  18
ENDBRANCH  12  17
ENDBRANCH   1  12
BRANCH   1  20
ATOM     20  C   UNL     1      -0.903  11.504  18.261  0.00  0.00    +0.000 C 
BRANCH  20  21
ATOM     21  C   UNL     1      -2.339  11.330  17.797  0.00  0.00    +0.000 A 
ATOM     22  C   UNL     1      -2.608  10.891  16.502  0.00  0.00    +0.000 A 
ATOM     23  C   UNL     1      -3.910  10.920  15.988  0.00  0.00    +0.000 A 
ATOM     24  C   UNL     1      -4.956  11.389  16.776  0.00  0.00    +0.000 A 
ATOM     25  C   UNL     1      -4.718  11.731  18.101  0.00  0.00    +0.000 A 
ATOM     26  C   UNL     1      -3.424  11.654  18.629  0.00  0.00    +0.000 A 
ENDBRANCH  20  21
ENDBRANCH   1  20
TORSDOF 8
ENDMDL
