MODEL 1
REMARK VINA RESULT:      -7.3      0.000      0.000
REMARK  Name = 
REMARK  6 active torsions:
REMARK  status: ('A' for Active; 'I' for Inactive)
REMARK    1  A    between atoms: C_1  and  C_2
REMARK    2  A    between atoms: C_7  and  C_8
REMARK    3  A    between atoms: C_8  and  S_9
REMARK    4  A    between atoms: S_9  and  C_10
REMARK    5  A    between atoms: C_13  and  C_14
REMARK    6  A    between atoms: C_20  and  O_21
REMARK                            x       y       z     vdW  Elec       q    Type
REMARK                         _______ _______ _______ _____ _____    ______ ____
ROOT
ATOM      1  C   UNL     1       4.551   5.999  17.657  0.00  0.00    +0.000 A 
ATOM      2  N   UNL     1       4.777   6.843  16.628  0.00  0.00    +0.000 NA
ATOM      3  N   UNL     1       5.239   6.338  15.415  0.00  0.00    +0.000 NA
ATOM      4  C   UNL     1       5.473   5.013  15.277  0.00  0.00    +0.000 A 
ATOM      5  C   UNL     1       5.229   4.217  16.392  0.00  0.00    +0.000 A 
ATOM      6  N   UNL     1       4.759   4.677  17.569  0.00  0.00    +0.000 NA
ENDROOT
BRANCH   4   7
ATOM      7  C   UNL     1       5.980   4.537  13.967  0.00  0.00    +0.000 A 
ATOM      8  C   UNL     1       7.202   5.004  13.449  0.00  0.00    +0.000 A 
ATOM      9  C   UNL     1       7.705   4.537  12.224  0.00  0.00    +0.000 A 
ATOM     10  C   UNL     1       6.997   3.591  11.487  0.00  0.00    +0.000 A 
ATOM     11  C   UNL     1       5.780   3.121  11.969  0.00  0.00    +0.000 A 
ATOM     12  C   UNL     1       5.273   3.600  13.185  0.00  0.00    +0.000 A 
ENDBRANCH   4   7
BRANCH   5  13
ATOM     13  O   UNL     1       5.496   2.875  16.430  0.00  0.00    +0.000 OA
ATOM     14  H   UNL     1       4.710   2.420  16.769  0.00  0.00    +0.000 HD
ENDBRANCH   5  13
BRANCH   1  15
ATOM     15  S   UNL     1       4.157   6.592  19.284  0.00  0.00    +0.000 S 
BRANCH  15  16
ATOM     16  C   UNL     1       2.352   6.358  19.387  0.00  0.00    +0.000 C 
BRANCH  16  23
ATOM     17  C   UNL     1       1.257   4.216  17.503  0.00  0.00    +0.000 C 
ATOM     18  C   UNL     1       1.505   3.950  18.962  0.00  0.00    +0.000 A 
ATOM     19  C   UNL     1       1.193   2.673  19.467  0.00  0.00    +0.000 A 
ATOM     20  C   UNL     1       1.381   2.365  20.813  0.00  0.00    +0.000 A 
ATOM     21  C   UNL     1       1.888   3.329  21.674  0.00  0.00    +0.000 A 
ATOM     22  C   UNL     1       2.205   4.600  21.190  0.00  0.00    +0.000 A 
ATOM     23  C   UNL     1       2.027   4.935  19.832  0.00  0.00    +0.000 A 
ENDBRANCH  16  23
ENDBRANCH  15  16
ENDBRANCH   1  15
TORSDOF 5
ENDMDL
MODEL 2
REMARK VINA RESULT:      -7.2      0.047      1.025
REMARK  Name = 
REMARK  6 active torsions:
REMARK  status: ('A' for Active; 'I' for Inactive)
REMARK    1  A    between atoms: C_1  and  C_2
REMARK    2  A    between atoms: C_7  and  C_8
REMARK    3  A    between atoms: C_8  and  S_9
REMARK    4  A    between atoms: S_9  and  C_10
REMARK    5  A    between atoms: C_13  and  C_14
REMARK    6  A    between atoms: C_20  and  O_21
REMARK                            x       y       z     vdW  Elec       q    Type
REMARK                         _______ _______ _______ _____ _____    ______ ____
ROOT
ATOM      1  C   UNL     1       4.588   5.992  17.662  0.00  0.00    +0.000 A 
ATOM      2  N   UNL     1       4.827   6.837  16.638  0.00  0.00    +0.000 NA
ATOM      3  N   UNL     1       5.298   6.334  15.428  0.00  0.00    +0.000 NA
ATOM      4  C   UNL     1       5.526   5.007  15.289  0.00  0.00    +0.000 A 
ATOM      5  C   UNL     1       5.268   4.210  16.400  0.00  0.00    +0.000 A 
ATOM      6  N   UNL     1       4.790   4.670  17.573  0.00  0.00    +0.000 NA
ENDROOT
BRANCH   4   7
ATOM      7  C   UNL     1       6.043   4.533  13.983  0.00  0.00    +0.000 A 
ATOM      8  C   UNL     1       5.346   3.566  13.234  0.00  0.00    +0.000 A 
ATOM      9  C   UNL     1       5.811   3.132  11.982  0.00  0.00    +0.000 A 
ATOM     10  C   UNL     1       6.987   3.656  11.448  0.00  0.00    +0.000 A 
ATOM     11  C   UNL     1       7.703   4.603  12.172  0.00  0.00    +0.000 A 
ATOM     12  C   UNL     1       7.244   5.023  13.428  0.00  0.00    +0.000 A 
ENDBRANCH   4   7
BRANCH   5  13
ATOM     13  O   UNL     1       5.529   2.867  16.436  0.00  0.00    +0.000 OA
ATOM     14  H   UNL     1       5.238   2.526  17.296  0.00  0.00    +0.000 HD
ENDBRANCH   5  13
BRANCH   1  15
ATOM     15  S   UNL     1       4.181   6.583  19.287  0.00  0.00    +0.000 S 
BRANCH  15  16
ATOM     16  C   UNL     1       2.376   6.349  19.377  0.00  0.00    +0.000 C 
BRANCH  16  23
ATOM     17  C   UNL     1       1.278   4.198  17.503  0.00  0.00    +0.000 C 
ATOM     18  C   UNL     1       1.525   3.940  18.964  0.00  0.00    +0.000 A 
ATOM     19  C   UNL     1       1.210   2.666  19.475  0.00  0.00    +0.000 A 
ATOM     20  C   UNL     1       1.397   2.365  20.823  0.00  0.00    +0.000 A 
ATOM     21  C   UNL     1       1.904   3.332  21.680  0.00  0.00    +0.000 A 
ATOM     22  C   UNL     1       2.224   4.600  21.189  0.00  0.00    +0.000 A 
ATOM     23  C   UNL     1       2.048   4.929  19.829  0.00  0.00    +0.000 A 
ENDBRANCH  16  23
ENDBRANCH  15  16
ENDBRANCH   1  15
TORSDOF 5
ENDMDL
MODEL 3
REMARK VINA RESULT:      -7.2      5.188      7.147
REMARK  Name = 
REMARK  6 active torsions:
REMARK  status: ('A' for Active; 'I' for Inactive)
REMARK    1  A    between atoms: C_1  and  C_2
REMARK    2  A    between atoms: C_7  and  C_8
REMARK    3  A    between atoms: C_8  and  S_9
REMARK    4  A    between atoms: S_9  and  C_10
REMARK    5  A    between atoms: C_13  and  C_14
REMARK    6  A    between atoms: C_20  and  O_21
REMARK                            x       y       z     vdW  Elec       q    Type
REMARK                         _______ _______ _______ _____ _____    ______ ____
ROOT
ATOM      1  C   UNL     1       1.383   9.655  18.767  0.00  0.00    +0.000 A 
ATOM      2  N   UNL     1       2.019   9.263  17.643  0.00  0.00    +0.000 NA
ATOM      3  N   UNL     1       2.612   8.005  17.593  0.00  0.00    +0.000 NA
ATOM      4  C   UNL     1       2.563   7.189  18.671  0.00  0.00    +0.000 A 
ATOM      5  C   UNL     1       1.902   7.677  19.794  0.00  0.00    +0.000 A 
ATOM      6  N   UNL     1       1.299   8.881  19.859  0.00  0.00    +0.000 NA
ENDROOT
BRANCH   4   7
ATOM      7  C   UNL     1       3.228   5.867  18.564  0.00  0.00    +0.000 A 
ATOM      8  C   UNL     1       4.482   5.635  19.160  0.00  0.00    +0.000 A 
ATOM      9  C   UNL     1       5.105   4.379  19.089  0.00  0.00    +0.000 A 
ATOM     10  C   UNL     1       4.489   3.324  18.420  0.00  0.00    +0.000 A 
ATOM     11  C   UNL     1       3.256   3.528  17.812  0.00  0.00    +0.000 A 
ATOM     12  C   UNL     1       2.643   4.788  17.870  0.00  0.00    +0.000 A 
ENDBRANCH   4   7
BRANCH   5  13
ATOM     13  O   UNL     1       1.842   7.002  20.983  0.00  0.00    +0.000 OA
ATOM     14  H   UNL     1       1.453   6.129  20.815  0.00  0.00    +0.000 HD
ENDBRANCH   5  13
BRANCH   1  15
ATOM     15  S   UNL     1       0.781  11.313  18.972  0.00  0.00    +0.000 S 
BRANCH  15  16
ATOM     16  C   UNL     1      -0.876  11.069  19.692  0.00  0.00    +0.000 C 
BRANCH  16  23
ATOM     17  C   UNL     1      -3.565  12.518  19.815  0.00  0.00    +0.000 C 
ATOM     18  C   UNL     1      -3.176  11.645  18.654  0.00  0.00    +0.000 A 
ATOM     19  C   UNL     1      -4.105  11.479  17.608  0.00  0.00    +0.000 A 
ATOM     20  C   UNL     1      -3.816  10.670  16.510  0.00  0.00    +0.000 A 
ATOM     21  C   UNL     1      -2.594  10.016  16.441  0.00  0.00    +0.000 A 
ATOM     22  C   UNL     1      -1.660  10.171  17.469  0.00  0.00    +0.000 A 
ATOM     23  C   UNL     1      -1.926  10.987  18.588  0.00  0.00    +0.000 A 
ENDBRANCH  16  23
ENDBRANCH  15  16
ENDBRANCH   1  15
TORSDOF 5
ENDMDL
MODEL 4
REMARK VINA RESULT:      -7.1      4.427      7.819
REMARK  Name = 
REMARK  6 active torsions:
REMARK  status: ('A' for Active; 'I' for Inactive)
REMARK    1  A    between atoms: C_1  and  C_2
REMARK    2  A    between atoms: C_7  and  C_8
REMARK    3  A    between atoms: C_8  and  S_9
REMARK    4  A    between atoms: S_9  and  C_10
REMARK    5  A    between atoms: C_13  and  C_14
REMARK    6  A    between atoms: C_20  and  O_21
REMARK                            x       y       z     vdW  Elec       q    Type
REMARK                         _______ _______ _______ _____ _____    ______ ____
ROOT
ATOM      1  C   UNL     1       2.431   6.870  19.287  0.00  0.00    +0.000 A 
ATOM      2  N   UNL     1       2.423   7.455  18.072  0.00  0.00    +0.000 NA
ATOM      3  N   UNL     1       1.851   8.716  17.922  0.00  0.00    +0.000 NA
ATOM      4  C   UNL     1       1.296   9.340  18.986  0.00  0.00    +0.000 A 
ATOM      5  C   UNL     1       1.333   8.658  20.198  0.00  0.00    +0.000 A 
ATOM      6  N   UNL     1       1.901   7.448  20.375  0.00  0.00    +0.000 NA
ENDROOT
BRANCH   4   7
ATOM      7  C   UNL     1       0.688  10.674  18.761  0.00  0.00    +0.000 A 
ATOM      8  C   UNL     1       1.476  11.840  18.760  0.00  0.00    +0.000 A 
ATOM      9  C   UNL     1       0.914  13.104  18.517  0.00  0.00    +0.000 A 
ATOM     10  C   UNL     1      -0.451  13.232  18.269  0.00  0.00    +0.000 A 
ATOM     11  C   UNL     1      -1.255  12.098  18.276  0.00  0.00    +0.000 A 
ATOM     12  C   UNL     1      -0.695  10.839  18.534  0.00  0.00    +0.000 A 
ENDBRANCH   4   7
BRANCH   5  13
ATOM     13  O   UNL     1       0.740   9.125  21.340  0.00  0.00    +0.000 OA
ATOM     14  H   UNL     1      -0.182   8.823  21.347  0.00  0.00    +0.000 HD
ENDBRANCH   5  13
BRANCH   1  15
ATOM     15  S   UNL     1       2.958   5.189  19.512  0.00  0.00    +0.000 S 
BRANCH  15  16
ATOM     16  C   UNL     1       3.942   4.856  18.014  0.00  0.00    +0.000 C 
BRANCH  16  23
ATOM     17  C   UNL     1       5.140   6.661  15.858  0.00  0.00    +0.000 C 
ATOM     18  C   UNL     1       5.878   6.325  17.124  0.00  0.00    +0.000 A 
ATOM     19  C   UNL     1       7.175   6.846  17.295  0.00  0.00    +0.000 A 
ATOM     20  C   UNL     1       7.922   6.560  18.436  0.00  0.00    +0.000 A 
ATOM     21  C   UNL     1       7.382   5.749  19.425  0.00  0.00    +0.000 A 
ATOM     22  C   UNL     1       6.096   5.224  19.273  0.00  0.00    +0.000 A 
ATOM     23  C   UNL     1       5.319   5.503  18.130  0.00  0.00    +0.000 A 
ENDBRANCH  16  23
ENDBRANCH  15  16
ENDBRANCH   1  15
TORSDOF 5
ENDMDL
MODEL 5
REMARK VINA RESULT:      -7.1      5.135      7.130
REMARK  Name = 
REMARK  6 active torsions:
REMARK  status: ('A' for Active; 'I' for Inactive)
REMARK    1  A    between atoms: C_1  and  C_2
REMARK    2  A    between atoms: C_7  and  C_8
REMARK    3  A    between atoms: C_8  and  S_9
REMARK    4  A    between atoms: S_9  and  C_10
REMARK    5  A    between atoms: C_13  and  C_14
REMARK    6  A    between atoms: C_20  and  O_21
REMARK                            x       y       z     vdW  Elec       q    Type
REMARK                         _______ _______ _______ _____ _____    ______ ____
ROOT
ATOM      1  C   UNL     1       1.447   9.660  18.734  0.00  0.00    +0.000 A 
ATOM      2  N   UNL     1       2.090   9.297  17.605  0.00  0.00    +0.000 NA
ATOM      3  N   UNL     1       2.672   8.034  17.522  0.00  0.00    +0.000 NA
ATOM      4  C   UNL     1       2.603   7.186  18.574  0.00  0.00    +0.000 A 
ATOM      5  C   UNL     1       1.935   7.647  19.704  0.00  0.00    +0.000 A 
ATOM      6  N   UNL     1       1.343   8.854  19.801  0.00  0.00    +0.000 NA
ENDROOT
BRANCH   4   7
ATOM      7  C   UNL     1       3.255   5.862  18.433  0.00  0.00    +0.000 A 
ATOM      8  C   UNL     1       2.583   4.782  17.828  0.00  0.00    +0.000 A 
ATOM      9  C   UNL     1       3.203   3.533  17.663  0.00  0.00    +0.000 A 
ATOM     10  C   UNL     1       4.511   3.333  18.099  0.00  0.00    +0.000 A 
ATOM     11  C   UNL     1       5.194   4.378  18.710  0.00  0.00    +0.000 A 
ATOM     12  C   UNL     1       4.568   5.620  18.888  0.00  0.00    +0.000 A 
ENDBRANCH   4   7
BRANCH   5  13
ATOM     13  O   UNL     1       1.855   6.936  20.871  0.00  0.00    +0.000 OA
ATOM     14  H   UNL     1       2.119   6.021  20.686  0.00  0.00    +0.000 HD
ENDBRANCH   5  13
BRANCH   1  15
ATOM     15  S   UNL     1       0.860  11.318  18.983  0.00  0.00    +0.000 S 
BRANCH  15  16
ATOM     16  C   UNL     1      -0.795  11.070  19.707  0.00  0.00    +0.000 C 
BRANCH  16  23
ATOM     17  C   UNL     1      -3.479  12.525  19.848  0.00  0.00    +0.000 C 
ATOM     18  C   UNL     1      -3.096  11.658  18.681  0.00  0.00    +0.000 A 
ATOM     19  C   UNL     1      -4.029  11.501  17.637  0.00  0.00    +0.000 A 
ATOM     20  C   UNL     1      -3.747  10.697  16.534  0.00  0.00    +0.000 A 
ATOM     21  C   UNL     1      -2.526  10.040  16.456  0.00  0.00    +0.000 A 
ATOM     22  C   UNL     1      -1.589  10.187  17.482  0.00  0.00    +0.000 A 
ATOM     23  C   UNL     1      -1.849  10.997  18.606  0.00  0.00    +0.000 A 
ENDBRANCH  16  23
ENDBRANCH  15  16
ENDBRANCH   1  15
TORSDOF 5
ENDMDL
MODEL 6
REMARK VINA RESULT:      -7.1      4.827      6.537
REMARK  Name = 
REMARK  6 active torsions:
REMARK  status: ('A' for Active; 'I' for Inactive)
REMARK    1  A    between atoms: C_1  and  C_2
REMARK    2  A    between atoms: C_7  and  C_8
REMARK    3  A    between atoms: C_8  and  S_9
REMARK    4  A    between atoms: S_9  and  C_10
REMARK    5  A    between atoms: C_13  and  C_14
REMARK    6  A    between atoms: C_20  and  O_21
REMARK                            x       y       z     vdW  Elec       q    Type
REMARK                         _______ _______ _______ _____ _____    ______ ____
ROOT
ATOM      1  C   UNL     1       1.396   8.905  19.385  0.00  0.00    +0.000 A 
ATOM      2  N   UNL     1       1.804   9.111  18.116  0.00  0.00    +0.000 NA
ATOM      3  N   UNL     1       2.640   8.181  17.503  0.00  0.00    +0.000 NA
ATOM      4  C   UNL     1       3.051   7.087  18.185  0.00  0.00    +0.000 A 
ATOM      5  C   UNL     1       2.596   6.960  19.494  0.00  0.00    +0.000 A 
ATOM      6  N   UNL     1       1.768   7.834  20.101  0.00  0.00    +0.000 NA
ENDROOT
BRANCH   4   7
ATOM      7  C   UNL     1       3.954   6.140  17.486  0.00  0.00    +0.000 A 
ATOM      8  C   UNL     1       3.654   4.767  17.417  0.00  0.00    +0.000 A 
ATOM      9  C   UNL     1       4.487   3.868  16.732  0.00  0.00    +0.000 A 
ATOM     10  C   UNL     1       5.642   4.322  16.099  0.00  0.00    +0.000 A 
ATOM     11  C   UNL     1       5.970   5.671  16.162  0.00  0.00    +0.000 A 
ATOM     12  C   UNL     1       5.144   6.564  16.859  0.00  0.00    +0.000 A 
ENDBRANCH   4   7
BRANCH   5  13
ATOM     13  O   UNL     1       2.992   5.953  20.332  0.00  0.00    +0.000 OA
ATOM     14  H   UNL     1       2.197   5.529  20.691  0.00  0.00    +0.000 HD
ENDBRANCH   5  13
BRANCH   1  15
ATOM     15  S   UNL     1       0.499  10.141  20.292  0.00  0.00    +0.000 S 
BRANCH  15  16
ATOM     16  C   UNL     1       0.075  11.370  19.014  0.00  0.00    +0.000 C 
BRANCH  16  23
ATOM     17  C   UNL     1      -2.312  12.942  20.096  0.00  0.00    +0.000 C 
ATOM     18  C   UNL     1      -2.462  11.877  19.045  0.00  0.00    +0.000 A 
ATOM     19  C   UNL     1      -3.758  11.588  18.573  0.00  0.00    +0.000 A 
ATOM     20  C   UNL     1      -3.971  10.600  17.613  0.00  0.00    +0.000 A 
ATOM     21  C   UNL     1      -2.892   9.888  17.109  0.00  0.00    +0.000 A 
ATOM     22  C   UNL     1      -1.600  10.163  17.565  0.00  0.00    +0.000 A 
ATOM     23  C   UNL     1      -1.357  11.159  18.532  0.00  0.00    +0.000 A 
ENDBRANCH  16  23
ENDBRANCH  15  16
ENDBRANCH   1  15
TORSDOF 5
ENDMDL
MODEL 7
REMARK VINA RESULT:      -7.1      5.020      6.755
REMARK  Name = 
REMARK  6 active torsions:
REMARK  status: ('A' for Active; 'I' for Inactive)
REMARK    1  A    between atoms: C_1  and  C_2
REMARK    2  A    between atoms: C_7  and  C_8
REMARK    3  A    between atoms: C_8  and  S_9
REMARK    4  A    between atoms: S_9  and  C_10
REMARK    5  A    between atoms: C_13  and  C_14
REMARK    6  A    between atoms: C_20  and  O_21
REMARK                            x       y       z     vdW  Elec       q    Type
REMARK                         _______ _______ _______ _____ _____    ______ ____
ROOT
ATOM      1  C   UNL     1       1.211   9.203  19.525  0.00  0.00    +0.000 A 
ATOM      2  N   UNL     1       1.599   9.272  18.234  0.00  0.00    +0.000 NA
ATOM      3  N   UNL     1       2.333   8.226  17.681  0.00  0.00    +0.000 NA
ATOM      4  C   UNL     1       2.666   7.156  18.439  0.00  0.00    +0.000 A 
ATOM      5  C   UNL     1       2.240   7.173  19.763  0.00  0.00    +0.000 A 
ATOM      6  N   UNL     1       1.508   8.161  20.316  0.00  0.00    +0.000 NA
ENDROOT
BRANCH   4   7
ATOM      7  C   UNL     1       3.462   6.081  17.799  0.00  0.00    +0.000 A 
ATOM      8  C   UNL     1       4.748   6.337  17.288  0.00  0.00    +0.000 A 
ATOM      9  C   UNL     1       5.522   5.319  16.707  0.00  0.00    +0.000 A 
ATOM     10  C   UNL     1       5.028   4.020  16.623  0.00  0.00    +0.000 A 
ATOM     11  C   UNL     1       3.755   3.741  17.108  0.00  0.00    +0.000 A 
ATOM     12  C   UNL     1       2.978   4.762  17.674  0.00  0.00    +0.000 A 
ENDBRANCH   4   7
BRANCH   5  13
ATOM     13  O   UNL     1       2.570   6.203  20.671  0.00  0.00    +0.000 OA
ATOM     14  H   UNL     1       3.525   6.251  20.830  0.00  0.00    +0.000 HD
ENDBRANCH   5  13
BRANCH   1  15
ATOM     15  S   UNL     1       0.452  10.581  20.349  0.00  0.00    +0.000 S 
BRANCH  15  16
ATOM     16  C   UNL     1      -0.050  11.665  18.972  0.00  0.00    +0.000 C 
BRANCH  16  23
ATOM     17  C   UNL     1      -2.495  13.042  20.183  0.00  0.00    +0.000 C 
ATOM     18  C   UNL     1      -2.614  11.982  19.123  0.00  0.00    +0.000 A 
ATOM     19  C   UNL     1      -3.905  11.604  18.704  0.00  0.00    +0.000 A 
ATOM     20  C   UNL     1      -4.088  10.615  17.739  0.00  0.00    +0.000 A 
ATOM     21  C   UNL     1      -2.983   9.991  17.176  0.00  0.00    +0.000 A 
ATOM     22  C   UNL     1      -1.696  10.355  17.579  0.00  0.00    +0.000 A 
ATOM     23  C   UNL     1      -1.484  11.355  18.550  0.00  0.00    +0.000 A 
ENDBRANCH  16  23
ENDBRANCH  15  16
ENDBRANCH   1  15
TORSDOF 5
ENDMDL
MODEL 8
REMARK VINA RESULT:      -7.1      5.281      7.231
REMARK  Name = 
REMARK  6 active torsions:
REMARK  status: ('A' for Active; 'I' for Inactive)
REMARK    1  A    between atoms: C_1  and  C_2
REMARK    2  A    between atoms: C_7  and  C_8
REMARK    3  A    between atoms: C_8  and  S_9
REMARK    4  A    between atoms: S_9  and  C_10
REMARK    5  A    between atoms: C_13  and  C_14
REMARK    6  A    between atoms: C_20  and  O_21
REMARK                            x       y       z     vdW  Elec       q    Type
REMARK                         _______ _______ _______ _____ _____    ______ ____
ROOT
ATOM      1  C   UNL     1       1.275   9.989  18.811  0.00  0.00    +0.000 A 
ATOM      2  N   UNL     1       1.810   9.718  17.603  0.00  0.00    +0.000 NA
ATOM      3  N   UNL     1       2.391   8.474  17.374  0.00  0.00    +0.000 NA
ATOM      4  C   UNL     1       2.430   7.551  18.363  0.00  0.00    +0.000 A 
ATOM      5  C   UNL     1       1.869   7.919  19.582  0.00  0.00    +0.000 A 
ATOM      6  N   UNL     1       1.280   9.107  19.821  0.00  0.00    +0.000 NA
ENDROOT
BRANCH   4   7
ATOM      7  C   UNL     1       3.076   6.250  18.064  0.00  0.00    +0.000 A 
ATOM      8  C   UNL     1       2.317   5.071  17.951  0.00  0.00    +0.000 A 
ATOM      9  C   UNL     1       2.916   3.839  17.639  0.00  0.00    +0.000 A 
ATOM     10  C   UNL     1       4.291   3.759  17.431  0.00  0.00    +0.000 A 
ATOM     11  C   UNL     1       5.068   4.906  17.548  0.00  0.00    +0.000 A 
ATOM     12  C   UNL     1       4.469   6.131  17.875  0.00  0.00    +0.000 A 
ENDBRANCH   4   7
BRANCH   5  13
ATOM     13  O   UNL     1       1.907   7.125  20.695  0.00  0.00    +0.000 OA
ATOM     14  H   UNL     1       2.569   7.489  21.304  0.00  0.00    +0.000 HD
ENDBRANCH   5  13
BRANCH   1  15
ATOM     15  S   UNL     1       0.701  11.616  19.236  0.00  0.00    +0.000 S 
BRANCH  15  16
ATOM     16  C   UNL     1       0.999  11.707  21.032  0.00  0.00    +0.000 C 
BRANCH  16  23
ATOM     17  C   UNL     1      -0.336   9.845  23.055  0.00  0.00    +0.000 C 
ATOM     18  C   UNL     1      -0.917  11.183  22.690  0.00  0.00    +0.000 A 
ATOM     19  C   UNL     1      -2.133  11.564  23.291  0.00  0.00    +0.000 A 
ATOM     20  C   UNL     1      -2.736  12.783  22.985  0.00  0.00    +0.000 A 
ATOM     21  C   UNL     1      -2.132  13.640  22.075  0.00  0.00    +0.000 A 
ATOM     22  C   UNL     1      -0.925  13.278  21.471  0.00  0.00    +0.000 A 
ATOM     23  C   UNL     1      -0.293  12.053  21.767  0.00  0.00    +0.000 A 
ENDBRANCH  16  23
ENDBRANCH  15  16
ENDBRANCH   1  15
TORSDOF 5
ENDMDL
MODEL 9
REMARK VINA RESULT:      -7.0      4.340      7.855
REMARK  Name = 
REMARK  6 active torsions:
REMARK  status: ('A' for Active; 'I' for Inactive)
REMARK    1  A    between atoms: C_1  and  C_2
REMARK    2  A    between atoms: C_7  and  C_8
REMARK    3  A    between atoms: C_8  and  S_9
REMARK    4  A    between atoms: S_9  and  C_10
REMARK    5  A    between atoms: C_13  and  C_14
REMARK    6  A    between atoms: C_20  and  O_21
REMARK                            x       y       z     vdW  Elec       q    Type
REMARK                         _______ _______ _______ _____ _____    ______ ____
ROOT
ATOM      1  C   UNL     1       2.456   6.870  19.138  0.00  0.00    +0.000 A 
ATOM      2  N   UNL     1       2.436   7.488  17.939  0.00  0.00    +0.000 NA
ATOM      3  N   UNL     1       1.873   8.757  17.829  0.00  0.00    +0.000 NA
ATOM      4  C   UNL     1       1.337   9.356  18.918  0.00  0.00    +0.000 A 
ATOM      5  C   UNL     1       1.385   8.642  20.111  0.00  0.00    +0.000 A 
ATOM      6  N   UNL     1       1.945   7.423  20.247  0.00  0.00    +0.000 NA
ENDROOT
BRANCH   4   7
ATOM      7  C   UNL     1       0.737  10.700  18.736  0.00  0.00    +0.000 A 
ATOM      8  C   UNL     1       1.534  11.860  18.756  0.00  0.00    +0.000 A 
ATOM      9  C   UNL     1       0.980  13.134  18.555  0.00  0.00    +0.000 A 
ATOM     10  C   UNL     1      -0.387  13.280  18.329  0.00  0.00    +0.000 A 
ATOM     11  C   UNL     1      -1.201  12.152  18.316  0.00  0.00    +0.000 A 
ATOM     12  C   UNL     1      -0.647  10.882  18.532  0.00  0.00    +0.000 A 
ENDBRANCH   4   7
BRANCH   5  13
ATOM     13  O   UNL     1       0.811   9.082  21.273  0.00  0.00    +0.000 OA
ATOM     14  H   UNL     1       0.831   8.355  21.914  0.00  0.00    +0.000 HD
ENDBRANCH   5  13
BRANCH   1  15
ATOM     15  S   UNL     1       2.972   5.179  19.310  0.00  0.00    +0.000 S 
BRANCH  15  16
ATOM     16  C   UNL     1       4.785   5.309  19.452  0.00  0.00    +0.000 C 
BRANCH  16  23
ATOM     17  C   UNL     1       7.779   5.620  18.923  0.00  0.00    +0.000 C 
ATOM     18  C   UNL     1       6.831   5.089  17.884  0.00  0.00    +0.000 A 
ATOM     19  C   UNL     1       7.353   4.753  16.619  0.00  0.00    +0.000 A 
ATOM     20  C   UNL     1       6.528   4.272  15.604  0.00  0.00    +0.000 A 
ATOM     21  C   UNL     1       5.168   4.118  15.839  0.00  0.00    +0.000 A 
ATOM     22  C   UNL     1       4.634   4.445  17.087  0.00  0.00    +0.000 A 
ATOM     23  C   UNL     1       5.448   4.929  18.132  0.00  0.00    +0.000 A 
ENDBRANCH  16  23
ENDBRANCH  15  16
ENDBRANCH   1  15
TORSDOF 5
ENDMDL
