MODEL 1
REMARK VINA RESULT:      -7.1      0.000      0.000
REMARK  Name = 
REMARK  6 active torsions:
REMARK  status: ('A' for Active; 'I' for Inactive)
REMARK    1  A    between atoms: C_1  and  C_2
REMARK    2  A    between atoms: C_5  and  S_6
REMARK    3  A    between atoms: S_6  and  O_9
REMARK    4  A    between atoms: O_9  and  C_10
REMARK    5  A    between atoms: C_13  and  C_14
REMARK    6  A    between atoms: C_14  and  N_15
REMARK                            x       y       z     vdW  Elec       q    Type
REMARK                         _______ _______ _______ _____ _____    ______ ____
ROOT
ATOM      1  C   UNL     1       2.614   5.781  19.219  0.00  0.00    +0.000 A 
ATOM      2  C   UNL     1       2.652   6.990  18.524  0.00  0.00    +0.000 A 
ATOM      3  C   UNL     1       2.118   8.152  19.075  0.00  0.00    +0.000 A 
ATOM      4  C   UNL     1       1.481   8.124  20.319  0.00  0.00    +0.000 A 
ATOM      5  C   UNL     1       1.408   6.900  21.002  0.00  0.00    +0.000 A 
ATOM      6  C   UNL     1       1.973   5.735  20.457  0.00  0.00    +0.000 A 
ENDROOT
BRANCH   1   7
ATOM      7  O   UNL     1       3.171   4.621  18.730  0.00  0.00    +0.000 OA
BRANCH   7   8
ATOM      8  S   UNL     1       4.770   4.312  18.962  0.00  0.00    +0.000 S 
ATOM      9  O   UNL     1       4.910   2.919  19.355  0.00  0.00    +0.000 OA
ATOM     10  O   UNL     1       5.370   5.375  19.736  0.00  0.00    +0.000 OA
BRANCH   8  15
ATOM     11  C   UNL     1       7.341   4.767  13.495  0.00  0.00    +0.000 C 
ATOM     12  C   UNL     1       6.697   4.666  14.844  0.00  0.00    +0.000 A 
ATOM     13  C   UNL     1       7.443   4.906  16.007  0.00  0.00    +0.000 A 
ATOM     14  C   UNL     1       6.848   4.804  17.260  0.00  0.00    +0.000 A 
ATOM     15  C   UNL     1       5.500   4.464  17.351  0.00  0.00    +0.000 A 
ATOM     16  C   UNL     1       4.736   4.217  16.206  0.00  0.00    +0.000 A 
ATOM     17  C   UNL     1       5.340   4.322  14.953  0.00  0.00    +0.000 A 
ENDBRANCH   8  15
ENDBRANCH   7   8
ENDBRANCH   1   7
BRANCH   4  18
ATOM     18  C   UNL     1       0.896   9.384  20.908  0.00  0.00    +0.000 C 
BRANCH  18  19
ATOM     19  N   UNL     1       0.452  10.328  19.893  0.00  0.00    +0.000 N 
ATOM     20  C   UNL     1       1.067  11.500  19.543  0.00  0.00    +0.000 A 
ATOM     21  C   UNL     1       0.189  12.123  18.685  0.00  0.00    +0.000 A 
ATOM     22  N   UNL     1      -0.931  11.355  18.495  0.00  0.00    +0.000 NA
ATOM     23  C   UNL     1      -0.744  10.283  19.232  0.00  0.00    +0.000 A 
ENDBRANCH  18  19
ENDBRANCH   4  18
TORSDOF 5
ENDMDL
MODEL 2
REMARK VINA RESULT:      -7.1      0.991      1.747
REMARK  Name = 
REMARK  6 active torsions:
REMARK  status: ('A' for Active; 'I' for Inactive)
REMARK    1  A    between atoms: C_1  and  C_2
REMARK    2  A    between atoms: C_5  and  S_6
REMARK    3  A    between atoms: S_6  and  O_9
REMARK    4  A    between atoms: O_9  and  C_10
REMARK    5  A    between atoms: C_13  and  C_14
REMARK    6  A    between atoms: C_14  and  N_15
REMARK                            x       y       z     vdW  Elec       q    Type
REMARK                         _______ _______ _______ _____ _____    ______ ____
ROOT
ATOM      1  C   UNL     1       2.890   6.082  18.949  0.00  0.00    +0.000 A 
ATOM      2  C   UNL     1       2.227   6.681  20.020  0.00  0.00    +0.000 A 
ATOM      3  C   UNL     1       1.729   7.978  19.923  0.00  0.00    +0.000 A 
ATOM      4  C   UNL     1       1.931   8.734  18.764  0.00  0.00    +0.000 A 
ATOM      5  C   UNL     1       2.631   8.146  17.699  0.00  0.00    +0.000 A 
ATOM      6  C   UNL     1       3.107   6.827  17.790  0.00  0.00    +0.000 A 
ENDROOT
BRANCH   1   7
ATOM      7  O   UNL     1       3.355   4.788  18.987  0.00  0.00    +0.000 OA
BRANCH   7   8
ATOM      8  S   UNL     1       4.969   4.491  19.087  0.00  0.00    +0.000 S 
ATOM      9  O   UNL     1       5.153   3.143  19.600  0.00  0.00    +0.000 OA
ATOM     10  O   UNL     1       5.640   5.622  19.688  0.00  0.00    +0.000 OA
BRANCH   8  15
ATOM     11  C   UNL     1       6.983   4.397  13.374  0.00  0.00    +0.000 C 
ATOM     12  C   UNL     1       6.475   4.430  14.784  0.00  0.00    +0.000 A 
ATOM     13  C   UNL     1       7.292   4.902  15.821  0.00  0.00    +0.000 A 
ATOM     14  C   UNL     1       6.825   4.925  17.131  0.00  0.00    +0.000 A 
ATOM     15  C   UNL     1       5.533   4.479  17.404  0.00  0.00    +0.000 A 
ATOM     16  C   UNL     1       4.701   4.002  16.386  0.00  0.00    +0.000 A 
ATOM     17  C   UNL     1       5.177   3.981  15.076  0.00  0.00    +0.000 A 
ENDBRANCH   8  15
ENDBRANCH   7   8
ENDBRANCH   1   7
BRANCH   4  18
ATOM     18  C   UNL     1       1.397  10.142  18.668  0.00  0.00    +0.000 C 
BRANCH  18  19
ATOM     19  N   UNL     1       0.670  10.553  19.859  0.00  0.00    +0.000 N 
ATOM     20  C   UNL     1      -0.681  10.463  20.063  0.00  0.00    +0.000 A 
ATOM     21  C   UNL     1      -0.911  11.136  21.242  0.00  0.00    +0.000 A 
ATOM     22  N   UNL     1       0.263  11.616  21.763  0.00  0.00    +0.000 NA
ATOM     23  C   UNL     1       1.195  11.250  20.912  0.00  0.00    +0.000 A 
ENDBRANCH  18  19
ENDBRANCH   4  18
TORSDOF 5
ENDMDL
MODEL 3
REMARK VINA RESULT:      -7.0      1.008      1.814
REMARK  Name = 
REMARK  6 active torsions:
REMARK  status: ('A' for Active; 'I' for Inactive)
REMARK    1  A    between atoms: C_1  and  C_2
REMARK    2  A    between atoms: C_5  and  S_6
REMARK    3  A    between atoms: S_6  and  O_9
REMARK    4  A    between atoms: O_9  and  C_10
REMARK    5  A    between atoms: C_13  and  C_14
REMARK    6  A    between atoms: C_14  and  N_15
REMARK                            x       y       z     vdW  Elec       q    Type
REMARK                         _______ _______ _______ _____ _____    ______ ____
ROOT
ATOM      1  C   UNL     1       2.891   6.017  18.913  0.00  0.00    +0.000 A 
ATOM      2  C   UNL     1       2.972   6.776  17.746  0.00  0.00    +0.000 A 
ATOM      3  C   UNL     1       2.510   8.089  17.709  0.00  0.00    +0.000 A 
ATOM      4  C   UNL     1       1.901   8.662  18.829  0.00  0.00    +0.000 A 
ATOM      5  C   UNL     1       1.784   7.886  19.994  0.00  0.00    +0.000 A 
ATOM      6  C   UNL     1       2.277   6.571  20.036  0.00  0.00    +0.000 A 
ENDROOT
BRANCH   1   7
ATOM      7  O   UNL     1       3.379   4.733  19.005  0.00  0.00    +0.000 OA
BRANCH   7   8
ATOM      8  S   UNL     1       4.998   4.471  19.126  0.00  0.00    +0.000 S 
ATOM      9  O   UNL     1       5.203   3.139  19.670  0.00  0.00    +0.000 OA
ATOM     10  O   UNL     1       5.641   5.628  19.710  0.00  0.00    +0.000 OA
BRANCH   8  15
ATOM     11  C   UNL     1       6.893   4.397  13.372  0.00  0.00    +0.000 C 
ATOM     12  C   UNL     1       6.433   4.406  14.799  0.00  0.00    +0.000 A 
ATOM     13  C   UNL     1       5.135   3.991  15.129  0.00  0.00    +0.000 A 
ATOM     14  C   UNL     1       4.705   4.006  16.452  0.00  0.00    +0.000 A 
ATOM     15  C   UNL     1       5.579   4.434  17.450  0.00  0.00    +0.000 A 
ATOM     16  C   UNL     1       6.877   4.855  17.145  0.00  0.00    +0.000 A 
ATOM     17  C   UNL     1       7.301   4.837  15.816  0.00  0.00    +0.000 A 
ENDBRANCH   8  15
ENDBRANCH   7   8
ENDBRANCH   1   7
BRANCH   4  18
ATOM     18  C   UNL     1       1.393  10.082  18.782  0.00  0.00    +0.000 C 
BRANCH  18  19
ATOM     19  N   UNL     1       0.781  10.505  20.032  0.00  0.00    +0.000 N 
ATOM     20  C   UNL     1      -0.382  10.030  20.574  0.00  0.00    +0.000 A 
ATOM     21  C   UNL     1      -0.640  10.852  21.648  0.00  0.00    +0.000 A 
ATOM     22  N   UNL     1       0.342  11.801  21.778  0.00  0.00    +0.000 NA
ATOM     23  C   UNL     1       1.182  11.567  20.795  0.00  0.00    +0.000 A 
ENDBRANCH  18  19
ENDBRANCH   4  18
TORSDOF 5
ENDMDL
MODEL 4
REMARK VINA RESULT:      -7.0      1.677      2.541
REMARK  Name = 
REMARK  6 active torsions:
REMARK  status: ('A' for Active; 'I' for Inactive)
REMARK    1  A    between atoms: C_1  and  C_2
REMARK    2  A    between atoms: C_5  and  S_6
REMARK    3  A    between atoms: S_6  and  O_9
REMARK    4  A    between atoms: O_9  and  C_10
REMARK    5  A    between atoms: C_13  and  C_14
REMARK    6  A    between atoms: C_14  and  N_15
REMARK                            x       y       z     vdW  Elec       q    Type
REMARK                         _______ _______ _______ _____ _____    ______ ____
ROOT
ATOM      1  C   UNL     1       2.353   7.630  19.267  0.00  0.00    +0.000 A 
ATOM      2  C   UNL     1       2.304   8.335  18.064  0.00  0.00    +0.000 A 
ATOM      3  C   UNL     1       1.521   9.480  17.934  0.00  0.00    +0.000 A 
ATOM      4  C   UNL     1       0.721   9.920  18.993  0.00  0.00    +0.000 A 
ATOM      5  C   UNL     1       0.742   9.190  20.192  0.00  0.00    +0.000 A 
ATOM      6  C   UNL     1       1.553   8.052  20.329  0.00  0.00    +0.000 A 
ENDROOT
BRANCH   1   7
ATOM      7  O   UNL     1       3.150   6.523  19.451  0.00  0.00    +0.000 OA
BRANCH   7   8
ATOM      8  S   UNL     1       2.840   5.135  18.624  0.00  0.00    +0.000 S 
ATOM      9  O   UNL     1       1.565   5.289  17.941  0.00  0.00    +0.000 OA
ATOM     10  O   UNL     1       3.108   3.991  19.466  0.00  0.00    +0.000 OA
BRANCH   8  15
ATOM     11  C   UNL     1       7.035   4.858  14.262  0.00  0.00    +0.000 C 
ATOM     12  C   UNL     1       6.007   4.930  15.350  0.00  0.00    +0.000 A 
ATOM     13  C   UNL     1       5.301   3.781  15.736  0.00  0.00    +0.000 A 
ATOM     14  C   UNL     1       4.341   3.848  16.740  0.00  0.00    +0.000 A 
ATOM     15  C   UNL     1       4.089   5.069  17.365  0.00  0.00    +0.000 A 
ATOM     16  C   UNL     1       4.779   6.228  16.996  0.00  0.00    +0.000 A 
ATOM     17  C   UNL     1       5.740   6.152  15.988  0.00  0.00    +0.000 A 
ENDBRANCH   8  15
ENDBRANCH   7   8
ENDBRANCH   1   7
BRANCH   4  18
ATOM     18  C   UNL     1      -0.131  11.156  18.844  0.00  0.00    +0.000 C 
BRANCH  18  19
ATOM     19  N   UNL     1      -1.407  10.887  18.197  0.00  0.00    +0.000 N 
ATOM     20  C   UNL     1      -1.671   9.893  17.295  0.00  0.00    +0.000 A 
ATOM     21  C   UNL     1      -2.942  10.154  16.835  0.00  0.00    +0.000 A 
ATOM     22  N   UNL     1      -3.458  11.268  17.444  0.00  0.00    +0.000 NA
ATOM     23  C   UNL     1      -2.514  11.687  18.257  0.00  0.00    +0.000 A 
ENDBRANCH  18  19
ENDBRANCH   4  18
TORSDOF 5
ENDMDL
MODEL 5
REMARK VINA RESULT:      -7.0      1.461      2.425
REMARK  Name = 
REMARK  6 active torsions:
REMARK  status: ('A' for Active; 'I' for Inactive)
REMARK    1  A    between atoms: C_1  and  C_2
REMARK    2  A    between atoms: C_5  and  S_6
REMARK    3  A    between atoms: S_6  and  O_9
REMARK    4  A    between atoms: O_9  and  C_10
REMARK    5  A    between atoms: C_13  and  C_14
REMARK    6  A    between atoms: C_14  and  N_15
REMARK                            x       y       z     vdW  Elec       q    Type
REMARK                         _______ _______ _______ _____ _____    ______ ____
ROOT
ATOM      1  C   UNL     1       2.300   6.786  19.946  0.00  0.00    +0.000 A 
ATOM      2  C   UNL     1       2.579   7.203  18.644  0.00  0.00    +0.000 A 
ATOM      3  C   UNL     1       2.134   8.436  18.174  0.00  0.00    +0.000 A 
ATOM      4  C   UNL     1       1.348   9.265  18.980  0.00  0.00    +0.000 A 
ATOM      5  C   UNL     1       1.034   8.829  20.277  0.00  0.00    +0.000 A 
ATOM      6  C   UNL     1       1.508   7.598  20.759  0.00  0.00    +0.000 A 
ENDROOT
BRANCH   1   7
ATOM      7  O   UNL     1       2.761   5.598  20.464  0.00  0.00    +0.000 OA
BRANCH   7   8
ATOM      8  S   UNL     1       2.642   4.212  19.587  0.00  0.00    +0.000 S 
ATOM      9  O   UNL     1       1.416   4.272  18.807  0.00  0.00    +0.000 OA
ATOM     10  O   UNL     1       2.946   3.072  20.424  0.00  0.00    +0.000 OA
BRANCH   8  15
ATOM     11  C   UNL     1       7.173   4.541  15.578  0.00  0.00    +0.000 C 
ATOM     12  C   UNL     1       6.058   4.449  16.576  0.00  0.00    +0.000 A 
ATOM     13  C   UNL     1       4.764   4.101  16.163  0.00  0.00    +0.000 A 
ATOM     14  C   UNL     1       3.727   4.023  17.088  0.00  0.00    +0.000 A 
ATOM     15  C   UNL     1       3.987   4.290  18.431  0.00  0.00    +0.000 A 
ATOM     16  C   UNL     1       5.269   4.640  18.865  0.00  0.00    +0.000 A 
ATOM     17  C   UNL     1       6.303   4.716  17.933  0.00  0.00    +0.000 A 
ENDBRANCH   8  15
ENDBRANCH   7   8
ENDBRANCH   1   7
BRANCH   4  18
ATOM     18  C   UNL     1       0.861  10.595  18.462  0.00  0.00    +0.000 C 
BRANCH  18  19
ATOM     19  N   UNL     1      -0.591  10.698  18.446  0.00  0.00    +0.000 N 
ATOM     20  C   UNL     1      -1.445  10.053  17.592  0.00  0.00    +0.000 A 
ATOM     21  C   UNL     1      -2.683  10.602  17.841  0.00  0.00    +0.000 A 
ATOM     22  N   UNL     1      -2.603  11.548  18.831  0.00  0.00    +0.000 NA
ATOM     23  C   UNL     1      -1.335  11.584  19.174  0.00  0.00    +0.000 A 
ENDBRANCH  18  19
ENDBRANCH   4  18
TORSDOF 5
ENDMDL
MODEL 6
REMARK VINA RESULT:      -7.0      1.647      2.698
REMARK  Name = 
REMARK  6 active torsions:
REMARK  status: ('A' for Active; 'I' for Inactive)
REMARK    1  A    between atoms: C_1  and  C_2
REMARK    2  A    between atoms: C_5  and  S_6
REMARK    3  A    between atoms: S_6  and  O_9
REMARK    4  A    between atoms: O_9  and  C_10
REMARK    5  A    between atoms: C_13  and  C_14
REMARK    6  A    between atoms: C_14  and  N_15
REMARK                            x       y       z     vdW  Elec       q    Type
REMARK                         _______ _______ _______ _____ _____    ______ ____
ROOT
ATOM      1  C   UNL     1       2.269   7.638  19.496  0.00  0.00    +0.000 A 
ATOM      2  C   UNL     1       1.496   7.916  20.623  0.00  0.00    +0.000 A 
ATOM      3  C   UNL     1       0.557   8.944  20.615  0.00  0.00    +0.000 A 
ATOM      4  C   UNL     1       0.404   9.760  19.490  0.00  0.00    +0.000 A 
ATOM      5  C   UNL     1       1.208   9.506  18.368  0.00  0.00    +0.000 A 
ATOM      6  C   UNL     1       2.135   8.450  18.370  0.00  0.00    +0.000 A 
ENDROOT
BRANCH   1   7
ATOM      7  O   UNL     1       3.173   6.602  19.447  0.00  0.00    +0.000 OA
BRANCH   7   8
ATOM      8  S   UNL     1       2.806   5.221  18.633  0.00  0.00    +0.000 S 
ATOM      9  O   UNL     1       1.523   5.410  17.975  0.00  0.00    +0.000 OA
ATOM     10  O   UNL     1       3.057   4.073  19.475  0.00  0.00    +0.000 OA
BRANCH   8  15
ATOM     11  C   UNL     1       6.911   4.779  14.200  0.00  0.00    +0.000 C 
ATOM     12  C   UNL     1       5.905   4.894  15.305  0.00  0.00    +0.000 A 
ATOM     13  C   UNL     1       5.370   3.743  15.900  0.00  0.00    +0.000 A 
ATOM     14  C   UNL     1       4.430   3.849  16.920  0.00  0.00    +0.000 A 
ATOM     15  C   UNL     1       4.027   5.112  17.350  0.00  0.00    +0.000 A 
ATOM     16  C   UNL     1       4.545   6.274  16.771  0.00  0.00    +0.000 A 
ATOM     17  C   UNL     1       5.487   6.160  15.749  0.00  0.00    +0.000 A 
ENDBRANCH   8  15
ENDBRANCH   7   8
ENDBRANCH   1   7
BRANCH   4  18
ATOM     18  C   UNL     1      -0.609  10.879  19.490  0.00  0.00    +0.000 C 
BRANCH  18  19
ATOM     19  N   UNL     1      -1.569  10.770  18.401  0.00  0.00    +0.000 N 
ATOM     20  C   UNL     1      -2.272   9.652  18.041  0.00  0.00    +0.000 A 
ATOM     21  C   UNL     1      -2.900   9.987  16.862  0.00  0.00    +0.000 A 
ATOM     22  N   UNL     1      -2.608  11.280  16.509  0.00  0.00    +0.000 NA
ATOM     23  C   UNL     1      -1.807  11.724  17.452  0.00  0.00    +0.000 A 
ENDBRANCH  18  19
ENDBRANCH   4  18
TORSDOF 5
ENDMDL
MODEL 7
REMARK VINA RESULT:      -7.0      1.721      2.390
REMARK  Name = 
REMARK  6 active torsions:
REMARK  status: ('A' for Active; 'I' for Inactive)
REMARK    1  A    between atoms: C_1  and  C_2
REMARK    2  A    between atoms: C_5  and  S_6
REMARK    3  A    between atoms: S_6  and  O_9
REMARK    4  A    between atoms: O_9  and  C_10
REMARK    5  A    between atoms: C_13  and  C_14
REMARK    6  A    between atoms: C_14  and  N_15
REMARK                            x       y       z     vdW  Elec       q    Type
REMARK                         _______ _______ _______ _____ _____    ______ ____
ROOT
ATOM      1  C   UNL     1       2.460   7.434  19.316  0.00  0.00    +0.000 A 
ATOM      2  C   UNL     1       2.338   8.194  18.152  0.00  0.00    +0.000 A 
ATOM      3  C   UNL     1       1.518   9.319  18.112  0.00  0.00    +0.000 A 
ATOM      4  C   UNL     1       0.752   9.683  19.224  0.00  0.00    +0.000 A 
ATOM      5  C   UNL     1       0.846   8.898  20.383  0.00  0.00    +0.000 A 
ATOM      6  C   UNL     1       1.695   7.780  20.430  0.00  0.00    +0.000 A 
ENDROOT
BRANCH   1   7
ATOM      7  O   UNL     1       3.295   6.345  19.412  0.00  0.00    +0.000 OA
BRANCH   7   8
ATOM      8  S   UNL     1       2.968   4.976  18.561  0.00  0.00    +0.000 S 
ATOM      9  O   UNL     1       1.672   5.136  17.923  0.00  0.00    +0.000 OA
ATOM     10  O   UNL     1       3.272   3.813  19.365  0.00  0.00    +0.000 OA
BRANCH   8  15
ATOM     11  C   UNL     1       7.032   4.818  14.070  0.00  0.00    +0.000 C 
ATOM     12  C   UNL     1       6.036   4.863  15.189  0.00  0.00    +0.000 A 
ATOM     13  C   UNL     1       5.557   3.676  15.761  0.00  0.00    +0.000 A 
ATOM     14  C   UNL     1       4.627   3.716  16.794  0.00  0.00    +0.000 A 
ATOM     15  C   UNL     1       4.177   4.950  17.261  0.00  0.00    +0.000 A 
ATOM     16  C   UNL     1       4.638   6.147  16.705  0.00  0.00    +0.000 A 
ATOM     17  C   UNL     1       5.571   6.098  15.669  0.00  0.00    +0.000 A 
ENDBRANCH   8  15
ENDBRANCH   7   8
ENDBRANCH   1   7
BRANCH   4  18
ATOM     18  C   UNL     1      -0.142  10.898  19.172  0.00  0.00    +0.000 C 
BRANCH  18  19
ATOM     19  N   UNL     1      -0.099  11.683  20.396  0.00  0.00    +0.000 N 
ATOM     20  C   UNL     1      -1.051  11.715  21.379  0.00  0.00    +0.000 A 
ATOM     21  C   UNL     1      -0.657  12.726  22.227  0.00  0.00    +0.000 A 
ATOM     22  N   UNL     1       0.513  13.294  21.793  0.00  0.00    +0.000 NA
ATOM     23  C   UNL     1       0.824  12.647  20.692  0.00  0.00    +0.000 A 
ENDBRANCH  18  19
ENDBRANCH   4  18
TORSDOF 5
ENDMDL
MODEL 8
REMARK VINA RESULT:      -6.9      1.444      2.209
REMARK  Name = 
REMARK  6 active torsions:
REMARK  status: ('A' for Active; 'I' for Inactive)
REMARK    1  A    between atoms: C_1  and  C_2
REMARK    2  A    between atoms: C_5  and  S_6
REMARK    3  A    between atoms: S_6  and  O_9
REMARK    4  A    between atoms: O_9  and  C_10
REMARK    5  A    between atoms: C_13  and  C_14
REMARK    6  A    between atoms: C_14  and  N_15
REMARK                            x       y       z     vdW  Elec       q    Type
REMARK                         _______ _______ _______ _____ _____    ______ ____
ROOT
ATOM      1  C   UNL     1       2.257   6.668  20.010  0.00  0.00    +0.000 A 
ATOM      2  C   UNL     1       2.547   7.094  18.714  0.00  0.00    +0.000 A 
ATOM      3  C   UNL     1       2.138   8.346  18.261  0.00  0.00    +0.000 A 
ATOM      4  C   UNL     1       1.377   9.186  19.079  0.00  0.00    +0.000 A 
ATOM      5  C   UNL     1       1.052   8.742  20.371  0.00  0.00    +0.000 A 
ATOM      6  C   UNL     1       1.490   7.491  20.835  0.00  0.00    +0.000 A 
ENDROOT
BRANCH   1   7
ATOM      7  O   UNL     1       2.684   5.459  20.511  0.00  0.00    +0.000 OA
BRANCH   7   8
ATOM      8  S   UNL     1       2.592   4.102  19.587  0.00  0.00    +0.000 S 
ATOM      9  O   UNL     1       1.362   4.162  18.813  0.00  0.00    +0.000 OA
ATOM     10  O   UNL     1       2.922   2.942  20.383  0.00  0.00    +0.000 OA
BRANCH   8  15
ATOM     11  C   UNL     1       7.221   4.539  15.703  0.00  0.00    +0.000 C 
ATOM     12  C   UNL     1       6.070   4.442  16.658  0.00  0.00    +0.000 A 
ATOM     13  C   UNL     1       6.263   4.669  18.028  0.00  0.00    +0.000 A 
ATOM     14  C   UNL     1       5.197   4.571  18.916  0.00  0.00    +0.000 A 
ATOM     15  C   UNL     1       3.930   4.249  18.431  0.00  0.00    +0.000 A 
ATOM     16  C   UNL     1       3.714   4.016  17.069  0.00  0.00    +0.000 A 
ATOM     17  C   UNL     1       4.788   4.116  16.185  0.00  0.00    +0.000 A 
ENDBRANCH   8  15
ENDBRANCH   7   8
ENDBRANCH   1   7
BRANCH   4  18
ATOM     18  C   UNL     1       0.928  10.538  18.581  0.00  0.00    +0.000 C 
BRANCH  18  19
ATOM     19  N   UNL     1      -0.520  10.665  18.519  0.00  0.00    +0.000 N 
ATOM     20  C   UNL     1      -1.358  10.030  17.643  0.00  0.00    +0.000 A 
ATOM     21  C   UNL     1      -2.594  10.601  17.850  0.00  0.00    +0.000 A 
ATOM     22  N   UNL     1      -2.529  11.551  18.837  0.00  0.00    +0.000 NA
ATOM     23  C   UNL     1      -1.271  11.567  19.220  0.00  0.00    +0.000 A 
ENDBRANCH  18  19
ENDBRANCH   4  18
TORSDOF 5
ENDMDL
MODEL 9
REMARK VINA RESULT:      -6.9      4.915      9.316
REMARK  Name = 
REMARK  6 active torsions:
REMARK  status: ('A' for Active; 'I' for Inactive)
REMARK    1  A    between atoms: C_1  and  C_2
REMARK    2  A    between atoms: C_5  and  S_6
REMARK    3  A    between atoms: S_6  and  O_9
REMARK    4  A    between atoms: O_9  and  C_10
REMARK    5  A    between atoms: C_13  and  C_14
REMARK    6  A    between atoms: C_14  and  N_15
REMARK                            x       y       z     vdW  Elec       q    Type
REMARK                         _______ _______ _______ _____ _____    ______ ____
ROOT
ATOM      1  C   UNL     1       1.127   9.942  19.155  0.00  0.00    +0.000 A 
ATOM      2  C   UNL     1       1.123   9.101  20.268  0.00  0.00    +0.000 A 
ATOM      3  C   UNL     1       1.765   7.865  20.237  0.00  0.00    +0.000 A 
ATOM      4  C   UNL     1       2.383   7.412  19.067  0.00  0.00    +0.000 A 
ATOM      5  C   UNL     1       2.354   8.242  17.935  0.00  0.00    +0.000 A 
ATOM      6  C   UNL     1       1.731   9.500  17.978  0.00  0.00    +0.000 A 
ENDROOT
BRANCH   1   7
ATOM      7  O   UNL     1       0.546  11.189  19.161  0.00  0.00    +0.000 OA
BRANCH   7   8
ATOM      8  S   UNL     1      -1.057  11.356  18.836  0.00  0.00    +0.000 S 
ATOM      9  O   UNL     1      -1.596  10.043  18.522  0.00  0.00    +0.000 OA
ATOM     10  O   UNL     1      -1.265  12.484  17.955  0.00  0.00    +0.000 OA
BRANCH   8  15
ATOM     11  C   UNL     1      -3.629  13.001  24.069  0.00  0.00    +0.000 C 
ATOM     12  C   UNL     1      -2.982  12.603  22.777  0.00  0.00    +0.000 A 
ATOM     13  C   UNL     1      -3.605  12.890  21.554  0.00  0.00    +0.000 A 
ATOM     14  C   UNL     1      -3.010  12.514  20.354  0.00  0.00    +0.000 A 
ATOM     15  C   UNL     1      -1.784  11.851  20.378  0.00  0.00    +0.000 A 
ATOM     16  C   UNL     1      -1.145  11.553  21.585  0.00  0.00    +0.000 A 
ATOM     17  C   UNL     1      -1.748  11.933  22.783  0.00  0.00    +0.000 A 
ENDBRANCH   8  15
ENDBRANCH   7   8
ENDBRANCH   1   7
BRANCH   4  18
ATOM     18  C   UNL     1       3.068   6.069  19.036  0.00  0.00    +0.000 C 
BRANCH  18  19
ATOM     19  N   UNL     1       2.131   4.958  18.958  0.00  0.00    +0.000 N 
ATOM     20  C   UNL     1       1.600   4.263  20.011  0.00  0.00    +0.000 A 
ATOM     21  C   UNL     1       0.926   3.207  19.440  0.00  0.00    +0.000 A 
ATOM     22  N   UNL     1       1.022   3.254  18.073  0.00  0.00    +0.000 NA
ATOM     23  C   UNL     1       1.751   4.316  17.813  0.00  0.00    +0.000 A 
ENDBRANCH  18  19
ENDBRANCH   4  18
TORSDOF 5
ENDMDL
