MODEL 1
REMARK VINA RESULT:      -8.5      0.000      0.000
REMARK  Name = 
REMARK  7 active torsions:
REMARK  status: ('A' for Active; 'I' for Inactive)
REMARK    1  A    between atoms: C_2  and  C_3
REMARK    2  A    between atoms: C_3  and  S_4
REMARK    3  A    between atoms: S_4  and  C_5
REMARK    4  A    between atoms: C_9  and  O_10
REMARK    5  A    between atoms: N_12  and  C_13
REMARK    6  A    between atoms: C_17  and  S_18
REMARK    7  A    between atoms: S_18  and  N_21
REMARK                            x       y       z     vdW  Elec       q    Type
REMARK                         _______ _______ _______ _____ _____    ______ ____
ROOT
ATOM      1  C   UNL     1       6.403   6.144  16.524  0.00  0.00    +0.000 A 
ATOM      2  C   UNL     1       6.833   5.416  15.409  0.00  0.00    +0.000 A 
ATOM      3  C   UNL     1       6.423   4.090  15.206  0.00  0.00    +0.000 A 
ATOM      4  C   UNL     1       5.567   3.469  16.112  0.00  0.00    +0.000 A 
ATOM      5  C   UNL     1       5.111   4.192  17.212  0.00  0.00    +0.000 A 
ATOM      6  C   UNL     1       5.519   5.524  17.419  0.00  0.00    +0.000 A 
ENDROOT
BRANCH   1   9
ATOM      7  O   UNL     1       8.277   7.126  18.579  0.00  0.00    +0.000 OA
ATOM      8  C   UNL     1       7.704   7.878  17.790  0.00  0.00    +0.000 C 
ATOM      9  N   UNL     1       6.818   7.468  16.809  0.00  0.00    +0.000 N 
ATOM     10  H   UNL     1       6.305   8.213  16.343  0.00  0.00    +0.000 HD
BRANCH   8  11
ATOM     11  C   UNL     1       8.057   9.364  17.825  0.00  0.00    +0.000 C 
BRANCH  11  12
ATOM     12  S   UNL     1       9.201   9.886  19.122  0.00  0.00    +0.000 S 
BRANCH  12  13
ATOM     13  C   UNL     1       9.775  11.384  18.377  0.00  0.00    +0.000 A 
ATOM     14  N   UNL     1      11.090  11.426  18.105  0.00  0.00    +0.000 NA
ATOM     15  C   UNL     1      11.547  12.575  17.581  0.00  0.00    +0.000 A 
ATOM     16  C   UNL     1      10.749  13.665  17.334  0.00  0.00    +0.000 A 
ATOM     17  C   UNL     1       9.422  13.504  17.651  0.00  0.00    +0.000 A 
ATOM     18  N   UNL     1       8.905  12.379  18.166  0.00  0.00    +0.000 NA
BRANCH  17  19
ATOM     19  O   UNL     1       8.528  14.517  17.460  0.00  0.00    +0.000 OA
ATOM     20  H   UNL     1       9.000  15.361  17.496  0.00  0.00    +0.000 HD
ENDBRANCH  17  19
ENDBRANCH  12  13
ENDBRANCH  11  12
ENDBRANCH   8  11
ENDBRANCH   1   9
BRANCH   5  21
ATOM     21  S   UNL     1       4.132   3.370  18.443  0.00  0.00    +0.000 S 
ATOM     22  O   UNL     1       3.547   2.204  17.812  0.00  0.00    +0.000 OA
ATOM     23  O   UNL     1       4.961   3.224  19.622  0.00  0.00    +0.000 OA
BRANCH  21  24
ATOM     24  N   UNL     1       2.852   4.441  18.827  0.00  0.00    +0.000 NA
ATOM     25  C   UNL     1       2.745   4.950  20.231  0.00  0.00    +0.000 C 
ATOM     26  C   UNL     1       2.186   3.886  21.182  0.00  0.00    +0.000 C 
ATOM     27  O   UNL     1       0.918   3.384  20.734  0.00  0.00    +0.000 OA
ATOM     28  C   UNL     1       0.990   2.862  19.398  0.00  0.00    +0.000 C 
ATOM     29  C   UNL     1       1.496   3.926  18.415  0.00  0.00    +0.000 C 
ENDBRANCH  21  24
ENDBRANCH   5  21
TORSDOF 7
ENDMDL
MODEL 2
REMARK VINA RESULT:      -8.5      1.204      1.493
REMARK  Name = 
REMARK  7 active torsions:
REMARK  status: ('A' for Active; 'I' for Inactive)
REMARK    1  A    between atoms: C_2  and  C_3
REMARK    2  A    between atoms: C_3  and  S_4
REMARK    3  A    between atoms: S_4  and  C_5
REMARK    4  A    between atoms: C_9  and  O_10
REMARK    5  A    between atoms: N_12  and  C_13
REMARK    6  A    between atoms: C_17  and  S_18
REMARK    7  A    between atoms: S_18  and  N_21
REMARK                            x       y       z     vdW  Elec       q    Type
REMARK                         _______ _______ _______ _____ _____    ______ ____
ROOT
ATOM      1  C   UNL     1       6.279   6.470  16.723  0.00  0.00    +0.000 A 
ATOM      2  C   UNL     1       6.919   5.404  16.082  0.00  0.00    +0.000 A 
ATOM      3  C   UNL     1       6.304   4.149  15.972  0.00  0.00    +0.000 A 
ATOM      4  C   UNL     1       5.031   3.938  16.495  0.00  0.00    +0.000 A 
ATOM      5  C   UNL     1       4.373   4.999  17.113  0.00  0.00    +0.000 A 
ATOM      6  C   UNL     1       4.986   6.262  17.225  0.00  0.00    +0.000 A 
ENDROOT
BRANCH   1   9
ATOM      7  O   UNL     1       8.340   7.332  18.650  0.00  0.00    +0.000 OA
ATOM      8  C   UNL     1       7.834   8.101  17.831  0.00  0.00    +0.000 C 
ATOM      9  N   UNL     1       6.866   7.747  16.907  0.00  0.00    +0.000 N 
ATOM     10  H   UNL     1       6.432   8.521  16.410  0.00  0.00    +0.000 HD
BRANCH   8  11
ATOM     11  C   UNL     1       8.370   9.529  17.757  0.00  0.00    +0.000 C 
BRANCH  11  12
ATOM     12  S   UNL     1       9.274  10.123  19.205  0.00  0.00    +0.000 S 
BRANCH  12  13
ATOM     13  C   UNL     1       9.984  11.578  18.491  0.00  0.00    +0.000 A 
ATOM     14  N   UNL     1      11.317  11.549  18.329  0.00  0.00    +0.000 NA
ATOM     15  C   UNL     1      11.874  12.664  17.830  0.00  0.00    +0.000 A 
ATOM     16  C   UNL     1      11.156  13.789  17.503  0.00  0.00    +0.000 A 
ATOM     17  C   UNL     1       9.801  13.700  17.709  0.00  0.00    +0.000 A 
ATOM     18  N   UNL     1       9.186  12.611  18.194  0.00  0.00    +0.000 NA
BRANCH  17  19
ATOM     19  O   UNL     1       8.979  14.752  17.431  0.00  0.00    +0.000 OA
ATOM     20  H   UNL     1       9.472  15.576  17.560  0.00  0.00    +0.000 HD
ENDBRANCH  17  19
ENDBRANCH  12  13
ENDBRANCH  11  12
ENDBRANCH   8  11
ENDBRANCH   1   9
BRANCH   5  21
ATOM     21  S   UNL     1       2.811   4.708  17.904  0.00  0.00    +0.000 S 
ATOM     22  O   UNL     1       2.145   5.991  18.015  0.00  0.00    +0.000 OA
ATOM     23  O   UNL     1       2.173   3.613  17.203  0.00  0.00    +0.000 OA
BRANCH  21  24
ATOM     24  N   UNL     1       3.172   4.179  19.492  0.00  0.00    +0.000 NA
ATOM     25  C   UNL     1       3.272   2.708  19.748  0.00  0.00    +0.000 C 
ATOM     26  C   UNL     1       1.892   2.043  19.804  0.00  0.00    +0.000 C 
ATOM     27  O   UNL     1       1.040   2.664  20.779  0.00  0.00    +0.000 OA
ATOM     28  C   UNL     1       0.900   4.074  20.548  0.00  0.00    +0.000 C 
ATOM     29  C   UNL     1       2.266   4.773  20.542  0.00  0.00    +0.000 C 
ENDBRANCH  21  24
ENDBRANCH   5  21
TORSDOF 7
ENDMDL
MODEL 3
REMARK VINA RESULT:      -8.4      1.571      1.951
REMARK  Name = 
REMARK  7 active torsions:
REMARK  status: ('A' for Active; 'I' for Inactive)
REMARK    1  A    between atoms: C_2  and  C_3
REMARK    2  A    between atoms: C_3  and  S_4
REMARK    3  A    between atoms: S_4  and  C_5
REMARK    4  A    between atoms: C_9  and  O_10
REMARK    5  A    between atoms: N_12  and  C_13
REMARK    6  A    between atoms: C_17  and  S_18
REMARK    7  A    between atoms: S_18  and  N_21
REMARK                            x       y       z     vdW  Elec       q    Type
REMARK                         _______ _______ _______ _____ _____    ______ ____
ROOT
ATOM      1  C   UNL     1       6.305   6.741  16.828  0.00  0.00    +0.000 A 
ATOM      2  C   UNL     1       6.914   5.645  16.206  0.00  0.00    +0.000 A 
ATOM      3  C   UNL     1       6.264   4.406  16.122  0.00  0.00    +0.000 A 
ATOM      4  C   UNL     1       4.987   4.240  16.651  0.00  0.00    +0.000 A 
ATOM      5  C   UNL     1       4.359   5.331  17.248  0.00  0.00    +0.000 A 
ATOM      6  C   UNL     1       5.008   6.578  17.335  0.00  0.00    +0.000 A 
ENDROOT
BRANCH   1   9
ATOM      7  O   UNL     1       8.449   7.562  18.680  0.00  0.00    +0.000 OA
ATOM      8  C   UNL     1       7.933   8.340  17.875  0.00  0.00    +0.000 C 
ATOM      9  N   UNL     1       6.928   8.004  16.986  0.00  0.00    +0.000 N 
ATOM     10  H   UNL     1       6.495   8.786  16.500  0.00  0.00    +0.000 HD
BRANCH   8  11
ATOM     11  C   UNL     1       8.500   9.755  17.776  0.00  0.00    +0.000 C 
BRANCH  11  12
ATOM     12  S   UNL     1       9.258  10.422  19.275  0.00  0.00    +0.000 S 
BRANCH  12  13
ATOM     13  C   UNL     1       9.855  11.948  18.608  0.00  0.00    +0.000 A 
ATOM     14  N   UNL     1       9.386  13.058  19.200  0.00  0.00    +0.000 NA
ATOM     15  C   UNL     1       9.796  14.224  18.675  0.00  0.00    +0.000 A 
ATOM     16  C   UNL     1      10.637  14.313  17.592  0.00  0.00    +0.000 A 
ATOM     17  C   UNL     1      11.053  13.111  17.073  0.00  0.00    +0.000 A 
ATOM     18  N   UNL     1      10.687  11.917  17.560  0.00  0.00    +0.000 NA
BRANCH  17  19
ATOM     19  O   UNL     1      11.884  13.065  15.992  0.00  0.00    +0.000 OA
ATOM     20  H   UNL     1      12.801  13.039  16.303  0.00  0.00    +0.000 HD
ENDBRANCH  17  19
ENDBRANCH  12  13
ENDBRANCH  11  12
ENDBRANCH   8  11
ENDBRANCH   1   9
BRANCH   5  21
ATOM     21  S   UNL     1       2.791   5.099  18.046  0.00  0.00    +0.000 S 
ATOM     22  O   UNL     1       2.172   6.405  18.155  0.00  0.00    +0.000 OA
ATOM     23  O   UNL     1       2.112   4.024  17.352  0.00  0.00    +0.000 OA
BRANCH  21  24
ATOM     24  N   UNL     1       3.140   4.564  19.636  0.00  0.00    +0.000 NA
ATOM     25  C   UNL     1       3.552   3.139  19.833  0.00  0.00    +0.000 C 
ATOM     26  C   UNL     1       2.359   2.181  19.736  0.00  0.00    +0.000 C 
ATOM     27  O   UNL     1       1.316   2.533  20.659  0.00  0.00    +0.000 OA
ATOM     28  C   UNL     1       0.877   3.889  20.479  0.00  0.00    +0.000 C 
ATOM     29  C   UNL     1       2.045   4.873  20.625  0.00  0.00    +0.000 C 
ENDBRANCH  21  24
ENDBRANCH   5  21
TORSDOF 7
ENDMDL
MODEL 4
REMARK VINA RESULT:      -8.3      0.902      1.209
REMARK  Name = 
REMARK  7 active torsions:
REMARK  status: ('A' for Active; 'I' for Inactive)
REMARK    1  A    between atoms: C_2  and  C_3
REMARK    2  A    between atoms: C_3  and  S_4
REMARK    3  A    between atoms: S_4  and  C_5
REMARK    4  A    between atoms: C_9  and  O_10
REMARK    5  A    between atoms: N_12  and  C_13
REMARK    6  A    between atoms: C_17  and  S_18
REMARK    7  A    between atoms: S_18  and  N_21
REMARK                            x       y       z     vdW  Elec       q    Type
REMARK                         _______ _______ _______ _____ _____    ______ ____
ROOT
ATOM      1  C   UNL     1       6.201   6.334  16.495  0.00  0.00    +0.000 A 
ATOM      2  C   UNL     1       6.318   5.671  15.268  0.00  0.00    +0.000 A 
ATOM      3  C   UNL     1       5.775   4.392  15.081  0.00  0.00    +0.000 A 
ATOM      4  C   UNL     1       5.095   3.755  16.115  0.00  0.00    +0.000 A 
ATOM      5  C   UNL     1       4.949   4.416  17.333  0.00  0.00    +0.000 A 
ATOM      6  C   UNL     1       5.493   5.700  17.526  0.00  0.00    +0.000 A 
ENDROOT
BRANCH   1   9
ATOM      7  O   UNL     1       8.216   7.111  18.504  0.00  0.00    +0.000 OA
ATOM      8  C   UNL     1       7.714   7.919  17.721  0.00  0.00    +0.000 C 
ATOM      9  N   UNL     1       6.768   7.606  16.761  0.00  0.00    +0.000 N 
ATOM     10  H   UNL     1       6.332   8.401  16.301  0.00  0.00    +0.000 HD
BRANCH   8  11
ATOM     11  C   UNL     1       8.232   9.356  17.737  0.00  0.00    +0.000 C 
BRANCH  11  12
ATOM     12  S   UNL     1       9.120   9.872  19.224  0.00  0.00    +0.000 S 
BRANCH  12  13
ATOM     13  C   UNL     1       9.667  11.458  18.665  0.00  0.00    +0.000 A 
ATOM     14  N   UNL     1       9.037  12.511  19.211  0.00  0.00    +0.000 NA
ATOM     15  C   UNL     1       9.411  13.720  18.761  0.00  0.00    +0.000 A 
ATOM     16  C   UNL     1      10.371  13.905  17.796  0.00  0.00    +0.000 A 
ATOM     17  C   UNL     1      10.947  12.755  17.314  0.00  0.00    +0.000 A 
ATOM     18  N   UNL     1      10.623  11.523  17.730  0.00  0.00    +0.000 NA
BRANCH  17  19
ATOM     19  O   UNL     1      11.907  12.806  16.346  0.00  0.00    +0.000 OA
ATOM     20  H   UNL     1      12.590  12.149  16.548  0.00  0.00    +0.000 HD
ENDBRANCH  17  19
ENDBRANCH  12  13
ENDBRANCH  11  12
ENDBRANCH   8  11
ENDBRANCH   1   9
BRANCH   5  21
ATOM     21  S   UNL     1       4.207   3.560  18.700  0.00  0.00    +0.000 S 
ATOM     22  O   UNL     1       3.754   2.276  18.202  0.00  0.00    +0.000 OA
ATOM     23  O   UNL     1       5.141   3.627  19.805  0.00  0.00    +0.000 OA
BRANCH  21  24
ATOM     24  N   UNL     1       2.816   4.463  19.128  0.00  0.00    +0.000 NA
ATOM     25  C   UNL     1       2.612   4.816  20.568  0.00  0.00    +0.000 C 
ATOM     26  C   UNL     1       2.126   3.614  21.387  0.00  0.00    +0.000 C 
ATOM     27  O   UNL     1       0.929   3.043  20.837  0.00  0.00    +0.000 OA
ATOM     28  C   UNL     1       1.098   2.667  19.461  0.00  0.00    +0.000 C 
ATOM     29  C   UNL     1       1.532   3.867  18.609  0.00  0.00    +0.000 C 
ENDBRANCH  21  24
ENDBRANCH   5  21
TORSDOF 7
ENDMDL
MODEL 5
REMARK VINA RESULT:      -8.0      0.947      1.143
REMARK  Name = 
REMARK  7 active torsions:
REMARK  status: ('A' for Active; 'I' for Inactive)
REMARK    1  A    between atoms: C_2  and  C_3
REMARK    2  A    between atoms: C_3  and  S_4
REMARK    3  A    between atoms: S_4  and  C_5
REMARK    4  A    between atoms: C_9  and  O_10
REMARK    5  A    between atoms: N_12  and  C_13
REMARK    6  A    between atoms: C_17  and  S_18
REMARK    7  A    between atoms: S_18  and  N_21
REMARK                            x       y       z     vdW  Elec       q    Type
REMARK                         _______ _______ _______ _____ _____    ______ ____
ROOT
ATOM      1  C   UNL     1       6.558   6.460  16.878  0.00  0.00    +0.000 A 
ATOM      2  C   UNL     1       6.870   5.613  15.808  0.00  0.00    +0.000 A 
ATOM      3  C   UNL     1       6.375   4.302  15.753  0.00  0.00    +0.000 A 
ATOM      4  C   UNL     1       5.551   3.815  16.764  0.00  0.00    +0.000 A 
ATOM      5  C   UNL     1       5.212   4.657  17.821  0.00  0.00    +0.000 A 
ATOM      6  C   UNL     1       5.706   5.975  17.880  0.00  0.00    +0.000 A 
ENDROOT
BRANCH   1   9
ATOM      7  O   UNL     1       8.511   7.533  18.810  0.00  0.00    +0.000 OA
ATOM      8  C   UNL     1       7.983   8.232  17.943  0.00  0.00    +0.000 C 
ATOM      9  N   UNL     1       7.064   7.776  17.014  0.00  0.00    +0.000 N 
ATOM     10  H   UNL     1       6.598   8.499  16.469  0.00  0.00    +0.000 HD
BRANCH   8  11
ATOM     11  C   UNL     1       8.436   9.684  17.813  0.00  0.00    +0.000 C 
BRANCH  11  12
ATOM     12  S   UNL     1       9.376  10.359  19.201  0.00  0.00    +0.000 S 
BRANCH  12  13
ATOM     13  C   UNL     1      10.050  11.781  18.393  0.00  0.00    +0.000 A 
ATOM     14  N   UNL     1      11.336  11.678  18.021  0.00  0.00    +0.000 NA
ATOM     15  C   UNL     1      11.873  12.767  17.448  0.00  0.00    +0.000 A 
ATOM     16  C   UNL     1      11.181  13.936  17.246  0.00  0.00    +0.000 A 
ATOM     17  C   UNL     1       9.872  13.922  17.665  0.00  0.00    +0.000 A 
ATOM     18  N   UNL     1       9.278  12.863  18.234  0.00  0.00    +0.000 NA
BRANCH  17  19
ATOM     19  O   UNL     1       9.081  15.025  17.527  0.00  0.00    +0.000 OA
ATOM     20  H   UNL     1       9.460  15.749  18.048  0.00  0.00    +0.000 HD
ENDBRANCH  17  19
ENDBRANCH  12  13
ENDBRANCH  11  12
ENDBRANCH   8  11
ENDBRANCH   1   9
BRANCH   5  21
ATOM     21  S   UNL     1       4.277   4.006  19.182  0.00  0.00    +0.000 S 
ATOM     22  O   UNL     1       5.041   2.904  19.733  0.00  0.00    +0.000 OA
ATOM     23  O   UNL     1       3.904   5.127  20.020  0.00  0.00    +0.000 OA
BRANCH  21  24
ATOM     24  N   UNL     1       2.846   3.351  18.507  0.00  0.00    +0.000 NA
ATOM     25  C   UNL     1       1.613   4.198  18.493  0.00  0.00    +0.000 C 
ATOM     26  C   UNL     1       0.961   4.282  19.878  0.00  0.00    +0.000 C 
ATOM     27  O   UNL     1       0.669   2.980  20.409  0.00  0.00    +0.000 OA
ATOM     28  C   UNL     1       1.838   2.148  20.463  0.00  0.00    +0.000 C 
ATOM     29  C   UNL     1       2.479   2.004  19.076  0.00  0.00    +0.000 C 
ENDBRANCH  21  24
ENDBRANCH   5  21
TORSDOF 7
ENDMDL
MODEL 6
REMARK VINA RESULT:      -8.0      4.834      7.972
REMARK  Name = 
REMARK  7 active torsions:
REMARK  status: ('A' for Active; 'I' for Inactive)
REMARK    1  A    between atoms: C_2  and  C_3
REMARK    2  A    between atoms: C_3  and  S_4
REMARK    3  A    between atoms: S_4  and  C_5
REMARK    4  A    between atoms: C_9  and  O_10
REMARK    5  A    between atoms: N_12  and  C_13
REMARK    6  A    between atoms: C_17  and  S_18
REMARK    7  A    between atoms: S_18  and  N_21
REMARK                            x       y       z     vdW  Elec       q    Type
REMARK                         _______ _______ _______ _____ _____    ______ ____
ROOT
ATOM      1  C   UNL     1       2.137   6.737  19.897  0.00  0.00    +0.000 A 
ATOM      2  C   UNL     1       1.521   5.841  20.779  0.00  0.00    +0.000 A 
ATOM      3  C   UNL     1       1.921   4.499  20.846  0.00  0.00    +0.000 A 
ATOM      4  C   UNL     1       2.953   4.028  20.039  0.00  0.00    +0.000 A 
ATOM      5  C   UNL     1       3.592   4.916  19.176  0.00  0.00    +0.000 A 
ATOM      6  C   UNL     1       3.194   6.265  19.105  0.00  0.00    +0.000 A 
ENDROOT
BRANCH   1   9
ATOM      7  O   UNL     1       2.256   8.478  17.520  0.00  0.00    +0.000 OA
ATOM      8  C   UNL     1       1.825   8.867  18.606  0.00  0.00    +0.000 C 
ATOM      9  N   UNL     1       1.748   8.091  19.749  0.00  0.00    +0.000 N 
ATOM     10  H   UNL     1       1.523   8.593  20.605  0.00  0.00    +0.000 HD
BRANCH   8  11
ATOM     11  C   UNL     1       1.245  10.278  18.688  0.00  0.00    +0.000 C 
BRANCH  11  12
ATOM     12  S   UNL     1      -0.557  10.406  18.669  0.00  0.00    +0.000 S 
BRANCH  12  13
ATOM     13  C   UNL     1      -0.807  10.835  20.367  0.00  0.00    +0.000 A 
ATOM     14  N   UNL     1      -1.581  11.912  20.581  0.00  0.00    +0.000 NA
ATOM     15  C   UNL     1      -1.742  12.276  21.864  0.00  0.00    +0.000 A 
ATOM     16  C   UNL     1      -1.158  11.616  22.917  0.00  0.00    +0.000 A 
ATOM     17  C   UNL     1      -0.390  10.529  22.575  0.00  0.00    +0.000 A 
ATOM     18  N   UNL     1      -0.201  10.112  21.315  0.00  0.00    +0.000 NA
BRANCH  17  19
ATOM     19  O   UNL     1       0.251   9.795  23.530  0.00  0.00    +0.000 OA
ATOM     20  H   UNL     1       0.332  10.330  24.334  0.00  0.00    +0.000 HD
ENDBRANCH  17  19
ENDBRANCH  12  13
ENDBRANCH  11  12
ENDBRANCH   8  11
ENDBRANCH   1   9
BRANCH   5  21
ATOM     21  S   UNL     1       4.812   4.299  18.045  0.00  0.00    +0.000 S 
ATOM     22  O   UNL     1       6.077   4.277  18.755  0.00  0.00    +0.000 OA
ATOM     23  O   UNL     1       4.282   3.084  17.463  0.00  0.00    +0.000 OA
BRANCH  21  24
ATOM     24  N   UNL     1       4.943   5.468  16.800  0.00  0.00    +0.000 NA
ATOM     25  C   UNL     1       5.316   5.007  15.426  0.00  0.00    +0.000 C 
ATOM     26  C   UNL     1       6.810   4.678  15.320  0.00  0.00    +0.000 C 
ATOM     27  O   UNL     1       7.629   5.788  15.716  0.00  0.00    +0.000 OA
ATOM     28  C   UNL     1       7.317   6.240  17.042  0.00  0.00    +0.000 C 
ATOM     29  C   UNL     1       5.836   6.628  17.160  0.00  0.00    +0.000 C 
ENDBRANCH  21  24
ENDBRANCH   5  21
TORSDOF 7
ENDMDL
MODEL 7
REMARK VINA RESULT:      -7.8      4.913      7.263
REMARK  Name = 
REMARK  7 active torsions:
REMARK  status: ('A' for Active; 'I' for Inactive)
REMARK    1  A    between atoms: C_2  and  C_3
REMARK    2  A    between atoms: C_3  and  S_4
REMARK    3  A    between atoms: S_4  and  C_5
REMARK    4  A    between atoms: C_9  and  O_10
REMARK    5  A    between atoms: N_12  and  C_13
REMARK    6  A    between atoms: C_17  and  S_18
REMARK    7  A    between atoms: S_18  and  N_21
REMARK                            x       y       z     vdW  Elec       q    Type
REMARK                         _______ _______ _______ _____ _____    ______ ____
ROOT
ATOM      1  C   UNL     1       1.790   5.632  20.599  0.00  0.00    +0.000 A 
ATOM      2  C   UNL     1       0.813   4.634  20.508  0.00  0.00    +0.000 A 
ATOM      3  C   UNL     1       1.032   3.470  19.757  0.00  0.00    +0.000 A 
ATOM      4  C   UNL     1       2.238   3.277  19.089  0.00  0.00    +0.000 A 
ATOM      5  C   UNL     1       3.229   4.251  19.194  0.00  0.00    +0.000 A 
ATOM      6  C   UNL     1       3.014   5.421  19.947  0.00  0.00    +0.000 A 
ENDROOT
BRANCH   1   9
ATOM      7  O   UNL     1       1.685   8.396  19.576  0.00  0.00    +0.000 OA
ATOM      8  C   UNL     1       1.570   8.127  20.772  0.00  0.00    +0.000 C 
ATOM      9  N   UNL     1       1.611   6.849  21.302  0.00  0.00    +0.000 N 
ATOM     10  H   UNL     1       1.663   6.797  22.317  0.00  0.00    +0.000 HD
BRANCH   8  11
ATOM     11  C   UNL     1       1.267   9.267  21.742  0.00  0.00    +0.000 C 
BRANCH  11  12
ATOM     12  S   UNL     1      -0.332  10.086  21.542  0.00  0.00    +0.000 S 
BRANCH  12  13
ATOM     13  C   UNL     1       0.161  11.345  20.402  0.00  0.00    +0.000 A 
ATOM     14  N   UNL     1       1.309  11.975  20.699  0.00  0.00    +0.000 NA
ATOM     15  C   UNL     1       1.672  12.964  19.866  0.00  0.00    +0.000 A 
ATOM     16  C   UNL     1       0.932  13.342  18.772  0.00  0.00    +0.000 A 
ATOM     17  C   UNL     1      -0.222  12.625  18.569  0.00  0.00    +0.000 A 
ATOM     18  N   UNL     1      -0.630  11.621  19.358  0.00  0.00    +0.000 NA
BRANCH  17  19
ATOM     19  O   UNL     1      -1.048  12.910  17.521  0.00  0.00    +0.000 OA
ATOM     20  H   UNL     1      -1.727  13.533  17.818  0.00  0.00    +0.000 HD
ENDBRANCH  17  19
ENDBRANCH  12  13
ENDBRANCH  11  12
ENDBRANCH   8  11
ENDBRANCH   1   9
BRANCH   5  21
ATOM     21  S   UNL     1       4.715   4.082  18.238  0.00  0.00    +0.000 S 
ATOM     22  O   UNL     1       5.749   3.611  19.140  0.00  0.00    +0.000 OA
ATOM     23  O   UNL     1       4.378   3.322  17.053  0.00  0.00    +0.000 OA
BRANCH  21  24
ATOM     24  N   UNL     1       5.148   5.664  17.746  0.00  0.00    +0.000 NA
ATOM     25  C   UNL     1       4.912   6.056  16.321  0.00  0.00    +0.000 C 
ATOM     26  C   UNL     1       5.955   5.442  15.380  0.00  0.00    +0.000 C 
ATOM     27  O   UNL     1       7.294   5.776  15.777  0.00  0.00    +0.000 OA
ATOM     28  C   UNL     1       7.564   5.389  17.133  0.00  0.00    +0.000 C 
ATOM     29  C   UNL     1       6.565   6.036  18.102  0.00  0.00    +0.000 C 
ENDBRANCH  21  24
ENDBRANCH   5  21
TORSDOF 7
ENDMDL
MODEL 8
REMARK VINA RESULT:      -7.7      0.972      1.227
REMARK  Name = 
REMARK  7 active torsions:
REMARK  status: ('A' for Active; 'I' for Inactive)
REMARK    1  A    between atoms: C_2  and  C_3
REMARK    2  A    between atoms: C_3  and  S_4
REMARK    3  A    between atoms: S_4  and  C_5
REMARK    4  A    between atoms: C_9  and  O_10
REMARK    5  A    between atoms: N_12  and  C_13
REMARK    6  A    between atoms: C_17  and  S_18
REMARK    7  A    between atoms: S_18  and  N_21
REMARK                            x       y       z     vdW  Elec       q    Type
REMARK                         _______ _______ _______ _____ _____    ______ ____
ROOT
ATOM      1  C   UNL     1       6.461   6.325  16.676  0.00  0.00    +0.000 A 
ATOM      2  C   UNL     1       6.985   5.620  15.587  0.00  0.00    +0.000 A 
ATOM      3  C   UNL     1       6.631   4.283  15.351  0.00  0.00    +0.000 A 
ATOM      4  C   UNL     1       5.739   3.629  16.195  0.00  0.00    +0.000 A 
ATOM      5  C   UNL     1       5.190   4.329  17.268  0.00  0.00    +0.000 A 
ATOM      6  C   UNL     1       5.542   5.671  17.509  0.00  0.00    +0.000 A 
ENDROOT
BRANCH   1   9
ATOM      7  O   UNL     1       8.406   7.334  18.651  0.00  0.00    +0.000 OA
ATOM      8  C   UNL     1       7.738   8.083  17.936  0.00  0.00    +0.000 C 
ATOM      9  N   UNL     1       6.816   7.660  16.995  0.00  0.00    +0.000 N 
ATOM     10  H   UNL     1       6.230   8.391  16.597  0.00  0.00    +0.000 HD
BRANCH   8  11
ATOM     11  C   UNL     1       8.005   9.584  18.016  0.00  0.00    +0.000 C 
BRANCH  11  12
ATOM     12  S   UNL     1       9.514  10.086  18.874  0.00  0.00    +0.000 S 
BRANCH  12  13
ATOM     13  C   UNL     1       9.131  11.799  19.096  0.00  0.00    +0.000 A 
ATOM     14  N   UNL     1       9.204  12.246  20.361  0.00  0.00    +0.000 NA
ATOM     15  C   UNL     1       8.872  13.533  20.550  0.00  0.00    +0.000 A 
ATOM     16  C   UNL     1       8.468  14.368  19.537  0.00  0.00    +0.000 A 
ATOM     17  C   UNL     1       8.435  13.800  18.287  0.00  0.00    +0.000 A 
ATOM     18  N   UNL     1       8.765  12.525  18.034  0.00  0.00    +0.000 NA
BRANCH  17  19
ATOM     19  O   UNL     1       8.043  14.523  17.199  0.00  0.00    +0.000 OA
ATOM     20  H   UNL     1       7.799  13.912  16.488  0.00  0.00    +0.000 HD
ENDBRANCH  17  19
ENDBRANCH  12  13
ENDBRANCH  11  12
ENDBRANCH   8  11
ENDBRANCH   1   9
BRANCH   5  21
ATOM     21  S   UNL     1       4.160   3.468  18.429  0.00  0.00    +0.000 S 
ATOM     22  O   UNL     1       3.592   2.332  17.731  0.00  0.00    +0.000 OA
ATOM     23  O   UNL     1       4.943   3.270  19.631  0.00  0.00    +0.000 OA
BRANCH  21  24
ATOM     24  N   UNL     1       2.873   4.534  18.806  0.00  0.00    +0.000 NA
ATOM     25  C   UNL     1       2.765   5.051  20.206  0.00  0.00    +0.000 C 
ATOM     26  C   UNL     1       2.213   3.991  21.166  0.00  0.00    +0.000 C 
ATOM     27  O   UNL     1       0.948   3.477  20.722  0.00  0.00    +0.000 OA
ATOM     28  C   UNL     1       1.022   2.946  19.390  0.00  0.00    +0.000 C 
ATOM     29  C   UNL     1       1.521   4.007  18.399  0.00  0.00    +0.000 C 
ENDBRANCH  21  24
ENDBRANCH   5  21
TORSDOF 7
ENDMDL
MODEL 9
REMARK VINA RESULT:      -7.7      2.024      2.316
REMARK  Name = 
REMARK  7 active torsions:
REMARK  status: ('A' for Active; 'I' for Inactive)
REMARK    1  A    between atoms: C_2  and  C_3
REMARK    2  A    between atoms: C_3  and  S_4
REMARK    3  A    between atoms: S_4  and  C_5
REMARK    4  A    between atoms: C_9  and  O_10
REMARK    5  A    between atoms: N_12  and  C_13
REMARK    6  A    between atoms: C_17  and  S_18
REMARK    7  A    between atoms: S_18  and  N_21
REMARK                            x       y       z     vdW  Elec       q    Type
REMARK                         _______ _______ _______ _____ _____    ______ ____
ROOT
ATOM      1  C   UNL     1       7.038   5.976  17.497  0.00  0.00    +0.000 A 
ATOM      2  C   UNL     1       7.122   5.703  16.127  0.00  0.00    +0.000 A 
ATOM      3  C   UNL     1       6.305   4.733  15.529  0.00  0.00    +0.000 A 
ATOM      4  C   UNL     1       5.380   4.022  16.289  0.00  0.00    +0.000 A 
ATOM      5  C   UNL     1       5.268   4.304  17.648  0.00  0.00    +0.000 A 
ATOM      6  C   UNL     1       6.086   5.278  18.254  0.00  0.00    +0.000 A 
ENDROOT
BRANCH   1   9
ATOM      7  O   UNL     1       7.257   8.895  17.136  0.00  0.00    +0.000 OA
ATOM      8  C   UNL     1       7.933   8.275  17.959  0.00  0.00    +0.000 C 
ATOM      9  N   UNL     1       7.867   6.909  18.167  0.00  0.00    +0.000 N 
ATOM     10  H   UNL     1       8.595   6.521  18.763  0.00  0.00    +0.000 HD
BRANCH   8  11
ATOM     11  C   UNL     1       8.846   9.072  18.888  0.00  0.00    +0.000 C 
BRANCH  11  12
ATOM     12  S   UNL     1       9.406  10.679  18.278  0.00  0.00    +0.000 S 
BRANCH  12  13
ATOM     13  C   UNL     1       9.315  11.581  19.797  0.00  0.00    +0.000 A 
ATOM     14  N   UNL     1       9.675  12.873  19.722  0.00  0.00    +0.000 NA
ATOM     15  C   UNL     1       9.654  13.558  20.877  0.00  0.00    +0.000 A 
ATOM     16  C   UNL     1       9.300  13.001  22.082  0.00  0.00    +0.000 A 
ATOM     17  C   UNL     1       8.950  11.674  22.033  0.00  0.00    +0.000 A 
ATOM     18  N   UNL     1       8.941  10.941  20.911  0.00  0.00    +0.000 NA
BRANCH  17  19
ATOM     19  O   UNL     1       8.586  11.004  23.165  0.00  0.00    +0.000 OA
ATOM     20  H   UNL     1       7.725  10.585  23.018  0.00  0.00    +0.000 HD
ENDBRANCH  17  19
ENDBRANCH  12  13
ENDBRANCH  11  12
ENDBRANCH   8  11
ENDBRANCH   1   9
BRANCH   5  21
ATOM     21  S   UNL     1       4.192   3.312  18.653  0.00  0.00    +0.000 S 
ATOM     22  O   UNL     1       3.654   2.271  17.799  0.00  0.00    +0.000 OA
ATOM     23  O   UNL     1       4.924   2.966  19.853  0.00  0.00    +0.000 OA
BRANCH  21  24
ATOM     24  N   UNL     1       2.889   4.328  19.104  0.00  0.00    +0.000 NA
ATOM     25  C   UNL     1       2.698   4.640  20.555  0.00  0.00    +0.000 C 
ATOM     26  C   UNL     1       2.084   3.459  21.316  0.00  0.00    +0.000 C 
ATOM     27  O   UNL     1       0.846   3.031  20.728  0.00  0.00    +0.000 OA
ATOM     28  C   UNL     1       0.999   2.697  19.340  0.00  0.00    +0.000 C 
ATOM     29  C   UNL     1       1.561   3.884  18.544  0.00  0.00    +0.000 C 
ENDBRANCH  21  24
ENDBRANCH   5  21
TORSDOF 7
ENDMDL
