MODEL 1
REMARK VINA RESULT:      -7.5      0.000      0.000
REMARK  Name = 
REMARK  6 active torsions:
REMARK  status: ('A' for Active; 'I' for Inactive)
REMARK    1  A    between atoms: C_1  and  O_2
REMARK    2  A    between atoms: O_2  and  C_3
REMARK    3  A    between atoms: C_12  and  C_14
REMARK    4  A    between atoms: C_14  and  N_15
REMARK    5  A    between atoms: N_18  and  C_19
REMARK    6  A    between atoms: C_19  and  C_20
REMARK                            x       y       z     vdW  Elec       q    Type
REMARK                         _______ _______ _______ _____ _____    ______ ____
ROOT
ATOM      1  C   UNL     1       2.337   7.664  19.656  0.00  0.00    +0.000 C 
ENDROOT
BRANCH   1  11
ATOM      2  C   UNL     1      -1.493  11.768  22.013  0.00  0.00    +0.000 A 
ATOM      3  C   UNL     1      -1.876  12.592  20.954  0.00  0.00    +0.000 A 
ATOM      4  C   UNL     1      -1.441  12.318  19.644  0.00  0.00    +0.000 A 
ATOM      5  C   UNL     1      -0.605  11.225  19.378  0.00  0.00    +0.000 A 
ATOM      6  C   UNL     1      -0.223  10.418  20.431  0.00  0.00    +0.000 A 
ATOM      7  C   UNL     1      -0.675  10.683  21.727  0.00  0.00    +0.000 A 
ATOM      8  C   UNL     1      -0.193   9.647  22.690  0.00  0.00    +0.000 C 
ATOM      9  C   UNL     1       0.816   8.879  21.840  0.00  0.00    +0.000 C 
ATOM     10  N   UNL     1       0.634   9.302  20.440  0.00  0.00    +0.000 N 
ATOM     11  C   UNL     1       1.327   8.790  19.354  0.00  0.00    +0.000 C 
ATOM     12  O   UNL     1       1.184   9.173  18.189  0.00  0.00    +0.000 OA
BRANCH   2  14
ATOM     13  C   UNL     1      -3.174  12.322  23.594  0.00  0.00    +0.000 C 
ATOM     14  O   UNL     1      -1.839  11.917  23.325  0.00  0.00    +0.000 OA
ENDBRANCH   2  14
ENDBRANCH   1  11
BRANCH   1  15
ATOM     15  N   UNL     1       2.295   6.593  18.630  0.00  0.00    +0.000 NA
ATOM     16  C   UNL     1       3.413   6.718  17.674  0.00  0.00    +0.000 C 
ATOM     17  C   UNL     1       4.785   6.227  18.200  0.00  0.00    +0.000 C 
ATOM     18  N   UNL     1       4.768   4.867  18.785  0.00  0.00    +0.000 NA
ATOM     19  C   UNL     1       3.677   4.806  19.784  0.00  0.00    +0.000 C 
ATOM     20  C   UNL     1       2.302   5.244  19.238  0.00  0.00    +0.000 C 
BRANCH  18  21
ATOM     21  C   UNL     1       4.631   3.851  17.722  0.00  0.00    +0.000 C 
BRANCH  21  22
ATOM     22  C   UNL     1       5.468   4.139  16.493  0.00  0.00    +0.000 A 
ATOM     23  C   UNL     1       6.804   4.551  16.625  0.00  0.00    +0.000 A 
ATOM     24  C   UNL     1       7.555   4.887  15.497  0.00  0.00    +0.000 A 
ATOM     25  C   UNL     1       6.976   4.807  14.233  0.00  0.00    +0.000 A 
ATOM     26 CL   UNL     1       7.891   5.257  12.847  0.00  0.00    +0.000 Cl
ATOM     27  C   UNL     1       5.658   4.379  14.085  0.00  0.00    +0.000 A 
ATOM     28  C   UNL     1       4.907   4.044  15.212  0.00  0.00    +0.000 A 
ENDBRANCH  21  22
ENDBRANCH  18  21
ENDBRANCH   1  15
TORSDOF 5
ENDMDL
MODEL 2
REMARK VINA RESULT:      -7.4      4.336     10.715
REMARK  Name = 
REMARK  6 active torsions:
REMARK  status: ('A' for Active; 'I' for Inactive)
REMARK    1  A    between atoms: C_1  and  O_2
REMARK    2  A    between atoms: O_2  and  C_3
REMARK    3  A    between atoms: C_12  and  C_14
REMARK    4  A    between atoms: C_14  and  N_15
REMARK    5  A    between atoms: N_18  and  C_19
REMARK    6  A    between atoms: C_19  and  C_20
REMARK                            x       y       z     vdW  Elec       q    Type
REMARK                         _______ _______ _______ _____ _____    ______ ____
ROOT
ATOM      1  C   UNL     1       1.773   8.043  20.718  0.00  0.00    +0.000 C 
ENDROOT
BRANCH   1  11
ATOM      2  C   UNL     1       4.656   4.617  16.592  0.00  0.00    +0.000 A 
ATOM      3  C   UNL     1       4.365   3.292  16.920  0.00  0.00    +0.000 A 
ATOM      4  C   UNL     1       3.480   2.995  17.971  0.00  0.00    +0.000 A 
ATOM      5  C   UNL     1       2.884   4.018  18.720  0.00  0.00    +0.000 A 
ATOM      6  C   UNL     1       3.181   5.328  18.396  0.00  0.00    +0.000 A 
ATOM      7  C   UNL     1       4.045   5.617  17.337  0.00  0.00    +0.000 A 
ATOM      8  C   UNL     1       4.167   7.092  17.126  0.00  0.00    +0.000 C 
ATOM      9  C   UNL     1       3.464   7.641  18.364  0.00  0.00    +0.000 C 
ATOM     10  N   UNL     1       2.757   6.521  19.011  0.00  0.00    +0.000 N 
ATOM     11  C   UNL     1       1.954   6.626  20.136  0.00  0.00    +0.000 C 
ATOM     12  O   UNL     1       1.390   5.674  20.684  0.00  0.00    +0.000 OA
BRANCH   2  14
ATOM     13  C   UNL     1       5.502   4.289  14.399  0.00  0.00    +0.000 C 
ATOM     14  O   UNL     1       5.492   5.045  15.602  0.00  0.00    +0.000 OA
ENDBRANCH   2  14
ENDBRANCH   1  11
BRANCH   1  15
ATOM     15  N   UNL     1       0.373   8.516  20.595  0.00  0.00    +0.000 NA
ATOM     16  C   UNL     1      -0.326   8.476  21.895  0.00  0.00    +0.000 C 
ATOM     17  C   UNL     1       0.029   9.629  22.867  0.00  0.00    +0.000 C 
ATOM     18  N   UNL     1      -0.073  10.983  22.278  0.00  0.00    +0.000 NA
ATOM     19  C   UNL     1       0.695  10.997  21.013  0.00  0.00    +0.000 C 
ATOM     20  C   UNL     1       0.297   9.880  20.026  0.00  0.00    +0.000 C 
BRANCH  18  21
ATOM     21  C   UNL     1      -1.490  11.359  22.095  0.00  0.00    +0.000 C 
BRANCH  21  22
ATOM     22  C   UNL     1      -1.932  12.511  22.973  0.00  0.00    +0.000 A 
ATOM     23  C   UNL     1      -3.207  12.504  23.563  0.00  0.00    +0.000 A 
ATOM     24  C   UNL     1      -3.644  13.598  24.313  0.00  0.00    +0.000 A 
ATOM     25  C   UNL     1      -2.808  14.699  24.481  0.00  0.00    +0.000 A 
ATOM     26 CL   UNL     1      -3.362  16.061  25.374  0.00  0.00    +0.000 Cl
ATOM     27  C   UNL     1      -1.532  14.710  23.920  0.00  0.00    +0.000 A 
ATOM     28  C   UNL     1      -1.095  13.618  23.170  0.00  0.00    +0.000 A 
ENDBRANCH  21  22
ENDBRANCH  18  21
ENDBRANCH   1  15
TORSDOF 5
ENDMDL
MODEL 3
REMARK VINA RESULT:      -7.3      3.530      6.638
REMARK  Name = 
REMARK  6 active torsions:
REMARK  status: ('A' for Active; 'I' for Inactive)
REMARK    1  A    between atoms: C_1  and  O_2
REMARK    2  A    between atoms: O_2  and  C_3
REMARK    3  A    between atoms: C_12  and  C_14
REMARK    4  A    between atoms: C_14  and  N_15
REMARK    5  A    between atoms: N_18  and  C_19
REMARK    6  A    between atoms: C_19  and  C_20
REMARK                            x       y       z     vdW  Elec       q    Type
REMARK                         _______ _______ _______ _____ _____    ______ ____
ROOT
ATOM      1  C   UNL     1      -1.750  11.541  22.904  0.00  0.00    +0.000 C 
ENDROOT
BRANCH   1  11
ATOM      2  C   UNL     1      -5.669  16.047  24.094  0.00  0.00    +0.000 A 
ATOM      3  C   UNL     1      -4.936  17.030  24.759  0.00  0.00    +0.000 A 
ATOM      4  C   UNL     1      -3.549  16.884  24.943  0.00  0.00    +0.000 A 
ATOM      5  C   UNL     1      -2.879  15.744  24.479  0.00  0.00    +0.000 A 
ATOM      6  C   UNL     1      -3.611  14.771  23.829  0.00  0.00    +0.000 A 
ATOM      7  C   UNL     1      -4.985  14.931  23.630  0.00  0.00    +0.000 A 
ATOM      8  C   UNL     1      -5.555  13.791  22.850  0.00  0.00    +0.000 C 
ATOM      9  C   UNL     1      -4.386  12.809  22.837  0.00  0.00    +0.000 C 
ATOM     10  N   UNL     1      -3.192  13.529  23.314  0.00  0.00    +0.000 N 
ATOM     11  C   UNL     1      -1.916  12.995  23.394  0.00  0.00    +0.000 C 
ATOM     12  O   UNL     1      -0.929  13.601  23.822  0.00  0.00    +0.000 OA
BRANCH   2  14
ATOM     13  C   UNL     1      -7.545  17.243  23.269  0.00  0.00    +0.000 C 
ATOM     14  O   UNL     1      -7.011  16.061  23.847  0.00  0.00    +0.000 OA
ENDBRANCH   2  14
ENDBRANCH   1  11
BRANCH   1  15
ATOM     15  N   UNL     1      -0.325  11.136  22.847  0.00  0.00    +0.000 NA
ATOM     16  C   UNL     1      -0.145   9.734  23.273  0.00  0.00    +0.000 C 
ATOM     17  C   UNL     1      -0.541   8.671  22.217  0.00  0.00    +0.000 C 
ATOM     18  N   UNL     1       0.065   8.876  20.882  0.00  0.00    +0.000 NA
ATOM     19  C   UNL     1      -0.196  10.273  20.465  0.00  0.00    +0.000 C 
ATOM     20  C   UNL     1       0.251  11.329  21.497  0.00  0.00    +0.000 C 
BRANCH  18  21
ATOM     21  C   UNL     1       1.504   8.544  20.912  0.00  0.00    +0.000 C 
BRANCH  21  22
ATOM     22  C   UNL     1       1.863   7.318  20.099  0.00  0.00    +0.000 A 
ATOM     23  C   UNL     1       1.616   6.033  20.606  0.00  0.00    +0.000 A 
ATOM     24  C   UNL     1       2.013   4.902  19.890  0.00  0.00    +0.000 A 
ATOM     25  C   UNL     1       2.652   5.051  18.661  0.00  0.00    +0.000 A 
ATOM     26 CL   UNL     1       3.172   3.658  17.797  0.00  0.00    +0.000 Cl
ATOM     27  C   UNL     1       2.882   6.320  18.135  0.00  0.00    +0.000 A 
ATOM     28  C   UNL     1       2.487   7.451  18.851  0.00  0.00    +0.000 A 
ENDBRANCH  21  22
ENDBRANCH  18  21
ENDBRANCH   1  15
TORSDOF 5
ENDMDL
MODEL 4
REMARK VINA RESULT:      -7.2      4.423     10.568
REMARK  Name = 
REMARK  6 active torsions:
REMARK  status: ('A' for Active; 'I' for Inactive)
REMARK    1  A    between atoms: C_1  and  O_2
REMARK    2  A    between atoms: O_2  and  C_3
REMARK    3  A    between atoms: C_12  and  C_14
REMARK    4  A    between atoms: C_14  and  N_15
REMARK    5  A    between atoms: N_18  and  C_19
REMARK    6  A    between atoms: C_19  and  C_20
REMARK                            x       y       z     vdW  Elec       q    Type
REMARK                         _______ _______ _______ _____ _____    ______ ____
ROOT
ATOM      1  C   UNL     1       0.754   9.083  19.206  0.00  0.00    +0.000 C 
ENDROOT
BRANCH   1  11
ATOM      2  C   UNL     1       4.392   4.243  18.566  0.00  0.00    +0.000 A 
ATOM      3  C   UNL     1       5.133   4.468  17.405  0.00  0.00    +0.000 A 
ATOM      4  C   UNL     1       5.005   5.679  16.701  0.00  0.00    +0.000 A 
ATOM      5  C   UNL     1       4.123   6.676  17.139  0.00  0.00    +0.000 A 
ATOM      6  C   UNL     1       3.387   6.444  18.284  0.00  0.00    +0.000 A 
ATOM      7  C   UNL     1       3.533   5.248  18.991  0.00  0.00    +0.000 A 
ATOM      8  C   UNL     1       2.692   5.244  20.226  0.00  0.00    +0.000 C 
ATOM      9  C   UNL     1       1.833   6.489  20.021  0.00  0.00    +0.000 C 
ATOM     10  N   UNL     1       2.412   7.252  18.901  0.00  0.00    +0.000 N 
ATOM     11  C   UNL     1       1.949   8.475  18.444  0.00  0.00    +0.000 C 
ATOM     12  O   UNL     1       2.427   9.090  17.486  0.00  0.00    +0.000 OA
BRANCH   2  14
ATOM     13  C   UNL     1       3.789   1.961  18.816  0.00  0.00    +0.000 C 
ATOM     14  O   UNL     1       4.418   3.121  19.343  0.00  0.00    +0.000 OA
ENDBRANCH   2  14
ENDBRANCH   1  11
BRANCH   1  15
ATOM     15  N   UNL     1       1.165  10.225  20.059  0.00  0.00    +0.000 NA
ATOM     16  C   UNL     1       0.388  11.440  19.744  0.00  0.00    +0.000 C 
ATOM     17  C   UNL     1      -1.051  11.466  20.319  0.00  0.00    +0.000 C 
ATOM     18  N   UNL     1      -1.141  11.168  21.765  0.00  0.00    +0.000 NA
ATOM     19  C   UNL     1      -0.406   9.909  22.026  0.00  0.00    +0.000 C 
ATOM     20  C   UNL     1       1.045   9.911  21.500  0.00  0.00    +0.000 C 
BRANCH  18  21
ATOM     21  C   UNL     1      -0.631  12.306  22.558  0.00  0.00    +0.000 C 
BRANCH  21  22
ATOM     22  C   UNL     1      -1.722  13.203  23.106  0.00  0.00    +0.000 A 
ATOM     23  C   UNL     1      -3.043  12.737  23.199  0.00  0.00    +0.000 A 
ATOM     24  C   UNL     1      -4.062  13.585  23.635  0.00  0.00    +0.000 A 
ATOM     25  C   UNL     1      -3.764  14.900  23.986  0.00  0.00    +0.000 A 
ATOM     26 CL   UNL     1      -5.027  15.955  24.488  0.00  0.00    +0.000 Cl
ATOM     27  C   UNL     1      -2.453  15.369  23.921  0.00  0.00    +0.000 A 
ATOM     28  C   UNL     1      -1.435  14.522  23.483  0.00  0.00    +0.000 A 
ENDBRANCH  21  22
ENDBRANCH  18  21
ENDBRANCH   1  15
TORSDOF 5
ENDMDL
MODEL 5
REMARK VINA RESULT:      -7.2      4.430     10.698
REMARK  Name = 
REMARK  6 active torsions:
REMARK  status: ('A' for Active; 'I' for Inactive)
REMARK    1  A    between atoms: C_1  and  O_2
REMARK    2  A    between atoms: O_2  and  C_3
REMARK    3  A    between atoms: C_12  and  C_14
REMARK    4  A    between atoms: C_14  and  N_15
REMARK    5  A    between atoms: N_18  and  C_19
REMARK    6  A    between atoms: C_19  and  C_20
REMARK                            x       y       z     vdW  Elec       q    Type
REMARK                         _______ _______ _______ _____ _____    ______ ____
ROOT
ATOM      1  C   UNL     1       0.818   8.496  20.348  0.00  0.00    +0.000 C 
ENDROOT
BRANCH   1  11
ATOM      2  C   UNL     1       4.228   3.806  18.491  0.00  0.00    +0.000 A 
ATOM      3  C   UNL     1       4.892   4.243  17.344  0.00  0.00    +0.000 A 
ATOM      4  C   UNL     1       4.757   5.572  16.903  0.00  0.00    +0.000 A 
ATOM      5  C   UNL     1       3.945   6.480  17.595  0.00  0.00    +0.000 A 
ATOM      6  C   UNL     1       3.284   6.040  18.726  0.00  0.00    +0.000 A 
ATOM      7  C   UNL     1       3.438   4.724  19.170  0.00  0.00    +0.000 A 
ATOM      8  C   UNL     1       2.687   4.492  20.441  0.00  0.00    +0.000 C 
ATOM      9  C   UNL     1       1.860   5.770  20.551  0.00  0.00    +0.000 C 
ATOM     10  N   UNL     1       2.385   6.729  19.563  0.00  0.00    +0.000 N 
ATOM     11  C   UNL     1       1.933   8.028  19.391  0.00  0.00    +0.000 C 
ATOM     12  O   UNL     1       2.363   8.811  18.539  0.00  0.00    +0.000 OA
BRANCH   2  14
ATOM     13  C   UNL     1       3.514   1.547  18.368  0.00  0.00    +0.000 C 
ATOM     14  O   UNL     1       4.270   2.552  19.027  0.00  0.00    +0.000 OA
ENDBRANCH   2  14
ENDBRANCH   1  11
BRANCH   1  15
ATOM     15  N   UNL     1       1.199   9.729  21.080  0.00  0.00    +0.000 NA
ATOM     16  C   UNL     1       0.632  10.932  20.441  0.00  0.00    +0.000 C 
ATOM     17  C   UNL     1      -0.873  11.176  20.716  0.00  0.00    +0.000 C 
ATOM     18  N   UNL     1      -1.250  11.137  22.147  0.00  0.00    +0.000 NA
ATOM     19  C   UNL     1      -0.720   9.885  22.732  0.00  0.00    +0.000 C 
ATOM     20  C   UNL     1       0.792   9.676  22.502  0.00  0.00    +0.000 C 
BRANCH  18  21
ATOM     21  C   UNL     1      -0.763  12.347  22.841  0.00  0.00    +0.000 C 
BRANCH  21  22
ATOM     22  C   UNL     1      -1.861  13.325  23.203  0.00  0.00    +0.000 A 
ATOM     23  C   UNL     1      -1.623  14.708  23.157  0.00  0.00    +0.000 A 
ATOM     24  C   UNL     1      -2.610  15.609  23.560  0.00  0.00    +0.000 A 
ATOM     25  C   UNL     1      -3.841  15.132  24.005  0.00  0.00    +0.000 A 
ATOM     26 CL   UNL     1      -5.043  16.242  24.536  0.00  0.00    +0.000 Cl
ATOM     27  C   UNL     1      -4.099  13.763  24.035  0.00  0.00    +0.000 A 
ATOM     28  C   UNL     1      -3.112  12.862  23.633  0.00  0.00    +0.000 A 
ENDBRANCH  21  22
ENDBRANCH  18  21
ENDBRANCH   1  15
TORSDOF 5
ENDMDL
MODEL 6
REMARK VINA RESULT:      -7.2      6.247      8.347
REMARK  Name = 
REMARK  6 active torsions:
REMARK  status: ('A' for Active; 'I' for Inactive)
REMARK    1  A    between atoms: C_1  and  O_2
REMARK    2  A    between atoms: O_2  and  C_3
REMARK    3  A    between atoms: C_12  and  C_14
REMARK    4  A    between atoms: C_14  and  N_15
REMARK    5  A    between atoms: N_18  and  C_19
REMARK    6  A    between atoms: C_19  and  C_20
REMARK                            x       y       z     vdW  Elec       q    Type
REMARK                         _______ _______ _______ _____ _____    ______ ____
ROOT
ATOM      1  C   UNL     1       7.256   8.138  17.374  0.00  0.00    +0.000 C 
ENDROOT
BRANCH   1  11
ATOM      2  C   UNL     1       9.688  13.421  19.176  0.00  0.00    +0.000 A 
ATOM      3  C   UNL     1      10.528  13.113  20.247  0.00  0.00    +0.000 A 
ATOM      4  C   UNL     1      10.729  11.776  20.635  0.00  0.00    +0.000 A 
ATOM      5  C   UNL     1      10.082  10.729  19.967  0.00  0.00    +0.000 A 
ATOM      6  C   UNL     1       9.246  11.039  18.912  0.00  0.00    +0.000 A 
ATOM      7  C   UNL     1       9.066  12.368  18.519  0.00  0.00    +0.000 A 
ATOM      8  C   UNL     1       8.176  12.461  17.322  0.00  0.00    +0.000 C 
ATOM      9  C   UNL     1       7.647  11.033  17.217  0.00  0.00    +0.000 C 
ATOM     10  N   UNL     1       8.454  10.190  18.117  0.00  0.00    +0.000 N 
ATOM     11  C   UNL     1       8.318   8.818  18.262  0.00  0.00    +0.000 C 
ATOM     12  O   UNL     1       8.982   8.128  19.041  0.00  0.00    +0.000 OA
BRANCH   2  14
ATOM     13  C   UNL     1      10.473  15.379  18.090  0.00  0.00    +0.000 C 
ATOM     14  O   UNL     1       9.404  14.667  18.697  0.00  0.00    +0.000 OA
ENDBRANCH   2  14
ENDBRANCH   1  11
BRANCH   1  15
ATOM     15  N   UNL     1       7.216   6.670  17.587  0.00  0.00    +0.000 NA
ATOM     16  C   UNL     1       6.129   6.290  18.511  0.00  0.00    +0.000 C 
ATOM     17  C   UNL     1       4.709   6.288  17.889  0.00  0.00    +0.000 C 
ATOM     18  N   UNL     1       4.592   5.524  16.627  0.00  0.00    +0.000 NA
ATOM     19  C   UNL     1       5.658   5.983  15.707  0.00  0.00    +0.000 C 
ATOM     20  C   UNL     1       7.075   5.930  16.314  0.00  0.00    +0.000 C 
BRANCH  18  21
ATOM     21  C   UNL     1       4.651   4.073  16.896  0.00  0.00    +0.000 C 
BRANCH  21  22
ATOM     22  C   UNL     1       3.780   3.633  18.055  0.00  0.00    +0.000 A 
ATOM     23  C   UNL     1       2.392   3.837  18.016  0.00  0.00    +0.000 A 
ATOM     24  C   UNL     1       1.597   3.499  19.112  0.00  0.00    +0.000 A 
ATOM     25  C   UNL     1       2.185   2.950  20.250  0.00  0.00    +0.000 A 
ATOM     26 CL   UNL     1       1.209   2.568  21.614  0.00  0.00    +0.000 Cl
ATOM     27  C   UNL     1       3.559   2.720  20.293  0.00  0.00    +0.000 A 
ATOM     28  C   UNL     1       4.354   3.059  19.198  0.00  0.00    +0.000 A 
ENDBRANCH  21  22
ENDBRANCH  18  21
ENDBRANCH   1  15
TORSDOF 5
ENDMDL
MODEL 7
REMARK VINA RESULT:      -7.1      2.239      4.620
REMARK  Name = 
REMARK  6 active torsions:
REMARK  status: ('A' for Active; 'I' for Inactive)
REMARK    1  A    between atoms: C_1  and  O_2
REMARK    2  A    between atoms: O_2  and  C_3
REMARK    3  A    between atoms: C_12  and  C_14
REMARK    4  A    between atoms: C_14  and  N_15
REMARK    5  A    between atoms: N_18  and  C_19
REMARK    6  A    between atoms: C_19  and  C_20
REMARK                            x       y       z     vdW  Elec       q    Type
REMARK                         _______ _______ _______ _____ _____    ______ ____
ROOT
ATOM      1  C   UNL     1      -0.056  11.297  20.721  0.00  0.00    +0.000 C 
ENDROOT
BRANCH   1  11
ATOM      2  C   UNL     1      -5.523  13.257  22.550  0.00  0.00    +0.000 A 
ATOM      3  C   UNL     1      -5.585  13.002  23.920  0.00  0.00    +0.000 A 
ATOM      4  C   UNL     1      -4.470  12.480  24.600  0.00  0.00    +0.000 A 
ATOM      5  C   UNL     1      -3.281  12.192  23.917  0.00  0.00    +0.000 A 
ATOM      6  C   UNL     1      -3.227  12.439  22.559  0.00  0.00    +0.000 A 
ATOM      7  C   UNL     1      -4.332  12.977  21.893  0.00  0.00    +0.000 A 
ATOM      8  C   UNL     1      -4.026  13.221  20.451  0.00  0.00    +0.000 C 
ATOM      9  C   UNL     1      -2.681  12.517  20.295  0.00  0.00    +0.000 C 
ATOM     10  N   UNL     1      -2.184  12.199  21.645  0.00  0.00    +0.000 N 
ATOM     11  C   UNL     1      -0.964  11.605  21.929  0.00  0.00    +0.000 C 
ATOM     12  O   UNL     1      -0.572  11.319  23.064  0.00  0.00    +0.000 OA
BRANCH   2  14
ATOM     13  C   UNL     1      -7.629  14.345  22.442  0.00  0.00    +0.000 C 
ATOM     14  O   UNL     1      -6.523  13.759  21.770  0.00  0.00    +0.000 OA
ENDBRANCH   2  14
ENDBRANCH   1  11
BRANCH   1  15
ATOM     15  N   UNL     1      -0.401  10.001  20.087  0.00  0.00    +0.000 NA
ATOM     16  C   UNL     1       0.081   9.938  18.693  0.00  0.00    +0.000 C 
ATOM     17  C   UNL     1       1.598   9.667  18.534  0.00  0.00    +0.000 C 
ATOM     18  N   UNL     1       2.097   8.500  19.296  0.00  0.00    +0.000 NA
ATOM     19  C   UNL     1       1.648   8.637  20.700  0.00  0.00    +0.000 C 
ATOM     20  C   UNL     1       0.128   8.851  20.854  0.00  0.00    +0.000 C 
BRANCH  18  21
ATOM     21  C   UNL     1       1.643   7.242  18.667  0.00  0.00    +0.000 C 
BRANCH  21  22
ATOM     22  C   UNL     1       2.752   6.467  17.987  0.00  0.00    +0.000 A 
ATOM     23  C   UNL     1       2.682   5.069  17.888  0.00  0.00    +0.000 A 
ATOM     24  C   UNL     1       3.737   4.346  17.326  0.00  0.00    +0.000 A 
ATOM     25  C   UNL     1       4.862   5.020  16.855  0.00  0.00    +0.000 A 
ATOM     26 CL   UNL     1       6.176   4.126  16.197  0.00  0.00    +0.000 Cl
ATOM     27  C   UNL     1       4.935   6.409  16.926  0.00  0.00    +0.000 A 
ATOM     28  C   UNL     1       3.882   7.132  17.489  0.00  0.00    +0.000 A 
ENDBRANCH  21  22
ENDBRANCH  18  21
ENDBRANCH   1  15
TORSDOF 5
ENDMDL
MODEL 8
REMARK VINA RESULT:      -7.1      4.300     10.438
REMARK  Name = 
REMARK  6 active torsions:
REMARK  status: ('A' for Active; 'I' for Inactive)
REMARK    1  A    between atoms: C_1  and  O_2
REMARK    2  A    between atoms: O_2  and  C_3
REMARK    3  A    between atoms: C_12  and  C_14
REMARK    4  A    between atoms: C_14  and  N_15
REMARK    5  A    between atoms: N_18  and  C_19
REMARK    6  A    between atoms: C_19  and  C_20
REMARK                            x       y       z     vdW  Elec       q    Type
REMARK                         _______ _______ _______ _____ _____    ______ ____
ROOT
ATOM      1  C   UNL     1       1.017   8.951  19.663  0.00  0.00    +0.000 C 
ENDROOT
BRANCH   1  11
ATOM      2  C   UNL     1       4.235   3.927  18.448  0.00  0.00    +0.000 A 
ATOM      3  C   UNL     1       4.918   4.186  17.259  0.00  0.00    +0.000 A 
ATOM      4  C   UNL     1       4.839   5.451  16.650  0.00  0.00    +0.000 A 
ATOM      5  C   UNL     1       4.063   6.473  17.214  0.00  0.00    +0.000 A 
ATOM      6  C   UNL     1       3.383   6.209  18.387  0.00  0.00    +0.000 A 
ATOM      7  C   UNL     1       3.482   4.956  18.998  0.00  0.00    +0.000 A 
ATOM      8  C   UNL     1       2.720   4.919  20.283  0.00  0.00    +0.000 C 
ATOM      9  C   UNL     1       1.946   6.234  20.222  0.00  0.00    +0.000 C 
ATOM     10  N   UNL     1       2.511   7.035  19.122  0.00  0.00    +0.000 N 
ATOM     11  C   UNL     1       2.114   8.319  18.783  0.00  0.00    +0.000 C 
ATOM     12  O   UNL     1       2.577   8.968  17.841  0.00  0.00    +0.000 OA
BRANCH   2  14
ATOM     13  C   UNL     1       3.517   1.668  18.554  0.00  0.00    +0.000 C 
ATOM     14  O   UNL     1       4.224   2.752  19.140  0.00  0.00    +0.000 OA
ENDBRANCH   2  14
ENDBRANCH   1  11
BRANCH   1  15
ATOM     15  N   UNL     1       1.070  10.433  19.634  0.00  0.00    +0.000 NA
ATOM     16  C   UNL     1       0.013  10.993  18.769  0.00  0.00    +0.000 C 
ATOM     17  C   UNL     1      -1.406  11.008  19.392  0.00  0.00    +0.000 C 
ATOM     18  N   UNL     1      -1.480  11.616  20.739  0.00  0.00    +0.000 NA
ATOM     19  C   UNL     1      -0.449  10.980  21.591  0.00  0.00    +0.000 C 
ATOM     20  C   UNL     1       0.972  11.018  20.989  0.00  0.00    +0.000 C 
BRANCH  18  21
ATOM     21  C   UNL     1      -1.328  13.083  20.651  0.00  0.00    +0.000 C 
BRANCH  21  22
ATOM     22  C   UNL     1      -1.469  13.790  21.983  0.00  0.00    +0.000 A 
ATOM     23  C   UNL     1      -2.640  13.645  22.742  0.00  0.00    +0.000 A 
ATOM     24  C   UNL     1      -2.802  14.353  23.935  0.00  0.00    +0.000 A 
ATOM     25  C   UNL     1      -1.790  15.204  24.375  0.00  0.00    +0.000 A 
ATOM     26 CL   UNL     1      -2.006  16.104  25.826  0.00  0.00    +0.000 Cl
ATOM     27  C   UNL     1      -0.612  15.340  23.643  0.00  0.00    +0.000 A 
ATOM     28  C   UNL     1      -0.451  14.633  22.451  0.00  0.00    +0.000 A 
ENDBRANCH  21  22
ENDBRANCH  18  21
ENDBRANCH   1  15
TORSDOF 5
ENDMDL
MODEL 9
REMARK VINA RESULT:      -7.0      4.210     10.230
REMARK  Name = 
REMARK  6 active torsions:
REMARK  status: ('A' for Active; 'I' for Inactive)
REMARK    1  A    between atoms: C_1  and  O_2
REMARK    2  A    between atoms: O_2  and  C_3
REMARK    3  A    between atoms: C_12  and  C_14
REMARK    4  A    between atoms: C_14  and  N_15
REMARK    5  A    between atoms: N_18  and  C_19
REMARK    6  A    between atoms: C_19  and  C_20
REMARK                            x       y       z     vdW  Elec       q    Type
REMARK                         _______ _______ _______ _____ _____    ______ ____
ROOT
ATOM      1  C   UNL     1       1.391   9.011  19.498  0.00  0.00    +0.000 C 
ENDROOT
BRANCH   1  11
ATOM      2  C   UNL     1       4.301   3.826  18.185  0.00  0.00    +0.000 A 
ATOM      3  C   UNL     1       4.904   4.026  16.943  0.00  0.00    +0.000 A 
ATOM      4  C   UNL     1       4.833   5.279  16.309  0.00  0.00    +0.000 A 
ATOM      5  C   UNL     1       4.143   6.346  16.900  0.00  0.00    +0.000 A 
ATOM      6  C   UNL     1       3.541   6.140  18.126  0.00  0.00    +0.000 A 
ATOM      7  C   UNL     1       3.633   4.898  18.761  0.00  0.00    +0.000 A 
ATOM      8  C   UNL     1       2.968   4.925  20.099  0.00  0.00    +0.000 C 
ATOM      9  C   UNL     1       2.247   6.269  20.060  0.00  0.00    +0.000 C 
ATOM     10  N   UNL     1       2.762   7.020  18.901  0.00  0.00    +0.000 N 
ATOM     11  C   UNL     1       2.394   8.311  18.557  0.00  0.00    +0.000 C 
ATOM     12  O   UNL     1       2.812   8.918  17.567  0.00  0.00    +0.000 OA
BRANCH   2  14
ATOM     13  C   UNL     1       3.500   1.602  18.404  0.00  0.00    +0.000 C 
ATOM     14  O   UNL     1       4.293   2.668  18.908  0.00  0.00    +0.000 OA
ENDBRANCH   2  14
ENDBRANCH   1  11
BRANCH   1  15
ATOM     15  N   UNL     1       0.518   9.961  18.767  0.00  0.00    +0.000 NA
ATOM     16  C   UNL     1      -0.877   9.885  19.244  0.00  0.00    +0.000 C 
ATOM     17  C   UNL     1      -1.150  10.597  20.594  0.00  0.00    +0.000 C 
ATOM     18  N   UNL     1      -0.667  11.994  20.660  0.00  0.00    +0.000 NA
ATOM     19  C   UNL     1       0.752  12.014  20.239  0.00  0.00    +0.000 C 
ATOM     20  C   UNL     1       1.008  11.354  18.868  0.00  0.00    +0.000 C 
BRANCH  18  21
ATOM     21  C   UNL     1      -1.523  12.874  19.840  0.00  0.00    +0.000 C 
BRANCH  21  22
ATOM     22  C   UNL     1      -3.003  12.723  20.125  0.00  0.00    +0.000 A 
ATOM     23  C   UNL     1      -3.871  12.243  19.131  0.00  0.00    +0.000 A 
ATOM     24  C   UNL     1      -5.245  12.171  19.367  0.00  0.00    +0.000 A 
ATOM     25  C   UNL     1      -5.756  12.573  20.599  0.00  0.00    +0.000 A 
ATOM     26 CL   UNL     1      -7.453  12.518  20.876  0.00  0.00    +0.000 Cl
ATOM     27  C   UNL     1      -4.904  13.030  21.603  0.00  0.00    +0.000 A 
ATOM     28  C   UNL     1      -3.531  13.103  21.366  0.00  0.00    +0.000 A 
ENDBRANCH  21  22
ENDBRANCH  18  21
ENDBRANCH   1  15
TORSDOF 5
ENDMDL
