MODEL 1
REMARK VINA RESULT:      -7.3      0.000      0.000
REMARK  Name = 
REMARK  12 active torsions:
REMARK  status: ('A' for Active; 'I' for Inactive)
REMARK    1  A    between atoms: C_1  and  O_2
REMARK    2  A    between atoms: O_2  and  C_3
REMARK    3  A    between atoms: C_6  and  C_7
REMARK    4  A    between atoms: C_15  and  N_16
REMARK    5  A    between atoms: N_16  and  C_17
REMARK    6  A    between atoms: C_19  and  O_20
REMARK    7  A    between atoms: O_20  and  C_21
REMARK    8  A    between atoms: C_22  and  O_23
REMARK    9  A    between atoms: O_23  and  C_24
REMARK   10  A    between atoms: C_25  and  O_26
REMARK   11  A    between atoms: O_26  and  C_27
REMARK   12  A    between atoms: C_30  and  O_31
REMARK                            x       y       z     vdW  Elec       q    Type
REMARK                         _______ _______ _______ _____ _____    ______ ____
ROOT
ATOM      1  C   UNL     1       4.087   4.927  18.578  0.00  0.00    +0.000 A 
ATOM      2  N   UNL     1       3.889   3.734  17.911  0.00  0.00    +0.000 NA
ATOM      3  C   UNL     1       2.788   3.249  18.435  0.00  0.00    +0.000 A 
ATOM      4  C   UNL     1       2.118   2.021  18.105  0.00  0.00    +0.000 A 
ATOM      5  N   UNL     1       0.993   1.670  18.671  0.00  0.00    +0.000 NA
ATOM      6  C   UNL     1       0.447   2.550  19.590  0.00  0.00    +0.000 A 
ATOM      7  C   UNL     1       1.007   3.722  19.936  0.00  0.00    +0.000 A 
ATOM      8  N   UNL     1       2.229   4.075  19.378  0.00  0.00    +0.000 N 
ATOM      9  C   UNL     1       3.088   5.157  19.523  0.00  0.00    +0.000 A 
ENDROOT
BRANCH   1  13
ATOM     10  C   UNL     1       7.431   7.447  17.681  0.00  0.00    +0.000 A 
ATOM     11  C   UNL     1       6.227   7.588  16.978  0.00  0.00    +0.000 A 
ATOM     12  C   UNL     1       5.120   6.787  17.270  0.00  0.00    +0.000 A 
ATOM     13  C   UNL     1       5.202   5.807  18.264  0.00  0.00    +0.000 A 
ATOM     14  C   UNL     1       6.396   5.675  18.985  0.00  0.00    +0.000 A 
ATOM     15  C   UNL     1       7.502   6.484  18.694  0.00  0.00    +0.000 A 
BRANCH  10  17
ATOM     16  C   UNL     1       8.501   9.574  17.905  0.00  0.00    +0.000 C 
ATOM     17  O   UNL     1       8.397   8.316  17.254  0.00  0.00    +0.000 OA
ENDBRANCH  10  17
BRANCH  15  18
ATOM     18  O   UNL     1       8.647   6.296  19.421  0.00  0.00    +0.000 OA
ATOM     19  H   UNL     1       9.408   6.305  18.817  0.00  0.00    +0.000 HD
ENDBRANCH  15  18
ENDBRANCH   1  13
BRANCH   9  20
ATOM     20  N   UNL     1       2.858   6.229  20.331  0.00  0.00    +0.000 N 
ATOM     21  H   UNL     1       3.136   6.159  21.311  0.00  0.00    +0.000 HD
BRANCH  20  22
ATOM     22  C   UNL     1       2.010   7.334  20.104  0.00  0.00    +0.000 A 
ATOM     23  C   UNL     1       2.114   8.159  18.978  0.00  0.00    +0.000 A 
ATOM     24  C   UNL     1       1.423   9.376  18.887  0.00  0.00    +0.000 A 
ATOM     25  C   UNL     1       0.542   9.741  19.925  0.00  0.00    +0.000 A 
ATOM     26  C   UNL     1       0.376   8.874  21.032  0.00  0.00    +0.000 A 
ATOM     27  C   UNL     1       1.114   7.690  21.112  0.00  0.00    +0.000 A 
BRANCH  24  28
ATOM     28  O   UNL     1       1.592  10.230  17.828  0.00  0.00    +0.000 OA
ATOM     29  C   UNL     1       2.336  11.426  18.026  0.00  0.00    +0.000 C 
ENDBRANCH  24  28
BRANCH  25  30
ATOM     30  O   UNL     1      -0.207  10.892  20.012  0.00  0.00    +0.000 OA
ATOM     31  C   UNL     1      -1.369  11.041  19.214  0.00  0.00    +0.000 C 
ENDBRANCH  25  30
BRANCH  26  32
ATOM     32  O   UNL     1      -0.505   9.284  22.006  0.00  0.00    +0.000 OA
ATOM     33  C   UNL     1       0.014   9.515  23.309  0.00  0.00    +0.000 C 
ENDBRANCH  26  32
ENDBRANCH  20  22
ENDBRANCH   9  20
TORSDOF 8
ENDMDL
MODEL 2
REMARK VINA RESULT:      -7.3      1.987      3.142
REMARK  Name = 
REMARK  12 active torsions:
REMARK  status: ('A' for Active; 'I' for Inactive)
REMARK    1  A    between atoms: C_1  and  O_2
REMARK    2  A    between atoms: O_2  and  C_3
REMARK    3  A    between atoms: C_6  and  C_7
REMARK    4  A    between atoms: C_15  and  N_16
REMARK    5  A    between atoms: N_16  and  C_17
REMARK    6  A    between atoms: C_19  and  O_20
REMARK    7  A    between atoms: O_20  and  C_21
REMARK    8  A    between atoms: C_22  and  O_23
REMARK    9  A    between atoms: O_23  and  C_24
REMARK   10  A    between atoms: C_25  and  O_26
REMARK   11  A    between atoms: O_26  and  C_27
REMARK   12  A    between atoms: C_30  and  O_31
REMARK                            x       y       z     vdW  Elec       q    Type
REMARK                         _______ _______ _______ _____ _____    ______ ____
ROOT
ATOM      1  C   UNL     1       4.313   4.249  18.501  0.00  0.00    +0.000 A 
ATOM      2  N   UNL     1       4.545   3.146  19.300  0.00  0.00    +0.000 NA
ATOM      3  C   UNL     1       3.529   3.126  20.129  0.00  0.00    +0.000 A 
ATOM      4  C   UNL     1       3.261   2.181  21.179  0.00  0.00    +0.000 A 
ATOM      5  N   UNL     1       2.180   2.244  21.911  0.00  0.00    +0.000 NA
ATOM      6  C   UNL     1       1.274   3.248  21.615  0.00  0.00    +0.000 A 
ATOM      7  C   UNL     1       1.448   4.156  20.638  0.00  0.00    +0.000 A 
ATOM      8  N   UNL     1       2.620   4.128  19.893  0.00  0.00    +0.000 N 
ATOM      9  C   UNL     1       3.136   4.903  18.863  0.00  0.00    +0.000 A 
ENDROOT
BRANCH   1  13
ATOM     10  C   UNL     1       7.005   5.346  15.357  0.00  0.00    +0.000 A 
ATOM     11  C   UNL     1       6.132   4.262  15.198  0.00  0.00    +0.000 A 
ATOM     12  C   UNL     1       5.234   3.901  16.206  0.00  0.00    +0.000 A 
ATOM     13  C   UNL     1       5.206   4.610  17.412  0.00  0.00    +0.000 A 
ATOM     14  C   UNL     1       6.061   5.708  17.569  0.00  0.00    +0.000 A 
ATOM     15  C   UNL     1       6.955   6.071  16.554  0.00  0.00    +0.000 A 
BRANCH  10  17
ATOM     16  C   UNL     1       7.458   4.894  13.054  0.00  0.00    +0.000 C 
ATOM     17  O   UNL     1       7.806   5.544  14.267  0.00  0.00    +0.000 OA
ENDBRANCH  10  17
BRANCH  15  18
ATOM     18  O   UNL     1       7.779   7.142  16.774  0.00  0.00    +0.000 OA
ATOM     19  H   UNL     1       8.557   7.064  16.198  0.00  0.00    +0.000 HD
ENDBRANCH  15  18
ENDBRANCH   1  13
BRANCH   9  20
ATOM     20  N   UNL     1       2.502   5.969  18.300  0.00  0.00    +0.000 N 
ATOM     21  H   UNL     1       2.415   5.993  17.284  0.00  0.00    +0.000 HD
BRANCH  20  22
ATOM     22  C   UNL     1       2.203   7.220  18.882  0.00  0.00    +0.000 A 
ATOM     23  C   UNL     1       1.865   7.374  20.230  0.00  0.00    +0.000 A 
ATOM     24  C   UNL     1       1.349   8.579  20.730  0.00  0.00    +0.000 A 
ATOM     25  C   UNL     1       1.238   9.687  19.865  0.00  0.00    +0.000 A 
ATOM     26  C   UNL     1       1.650   9.557  18.516  0.00  0.00    +0.000 A 
ATOM     27  C   UNL     1       2.118   8.330  18.041  0.00  0.00    +0.000 A 
BRANCH  24  28
ATOM     28  O   UNL     1       0.931   8.708  22.030  0.00  0.00    +0.000 OA
ATOM     29  C   UNL     1      -0.458   8.591  22.316  0.00  0.00    +0.000 C 
ENDBRANCH  24  28
BRANCH  25  30
ATOM     30  O   UNL     1       0.750  10.935  20.172  0.00  0.00    +0.000 OA
ATOM     31  C   UNL     1      -0.627  11.219  19.994  0.00  0.00    +0.000 C 
ENDBRANCH  25  30
BRANCH  26  32
ATOM     32  O   UNL     1       1.525  10.678  17.726  0.00  0.00    +0.000 OA
ATOM     33  C   UNL     1       2.549  11.659  17.811  0.00  0.00    +0.000 C 
ENDBRANCH  26  32
ENDBRANCH  20  22
ENDBRANCH   9  20
TORSDOF 8
ENDMDL
MODEL 3
REMARK VINA RESULT:      -7.0      2.416      6.874
REMARK  Name = 
REMARK  12 active torsions:
REMARK  status: ('A' for Active; 'I' for Inactive)
REMARK    1  A    between atoms: C_1  and  O_2
REMARK    2  A    between atoms: O_2  and  C_3
REMARK    3  A    between atoms: C_6  and  C_7
REMARK    4  A    between atoms: C_15  and  N_16
REMARK    5  A    between atoms: N_16  and  C_17
REMARK    6  A    between atoms: C_19  and  O_20
REMARK    7  A    between atoms: O_20  and  C_21
REMARK    8  A    between atoms: C_22  and  O_23
REMARK    9  A    between atoms: O_23  and  C_24
REMARK   10  A    between atoms: C_25  and  O_26
REMARK   11  A    between atoms: O_26  and  C_27
REMARK   12  A    between atoms: C_30  and  O_31
REMARK                            x       y       z     vdW  Elec       q    Type
REMARK                         _______ _______ _______ _____ _____    ______ ____
ROOT
ATOM      1  C   UNL     1       2.218   6.441  19.650  0.00  0.00    +0.000 A 
ATOM      2  N   UNL     1       2.039   5.869  20.895  0.00  0.00    +0.000 NA
ATOM      3  C   UNL     1       2.475   4.640  20.752  0.00  0.00    +0.000 A 
ATOM      4  C   UNL     1       2.526   3.599  21.743  0.00  0.00    +0.000 A 
ATOM      5  N   UNL     1       3.031   2.421  21.486  0.00  0.00    +0.000 NA
ATOM      6  C   UNL     1       3.550   2.218  20.219  0.00  0.00    +0.000 A 
ATOM      7  C   UNL     1       3.553   3.149  19.248  0.00  0.00    +0.000 A 
ATOM      8  N   UNL     1       2.969   4.384  19.497  0.00  0.00    +0.000 N 
ATOM      9  C   UNL     1       2.767   5.534  18.745  0.00  0.00    +0.000 A 
ENDROOT
BRANCH   1  13
ATOM     10  C   UNL     1       1.252  10.558  18.974  0.00  0.00    +0.000 A 
ATOM     11  C   UNL     1       1.829   9.788  17.956  0.00  0.00    +0.000 A 
ATOM     12  C   UNL     1       2.134   8.439  18.153  0.00  0.00    +0.000 A 
ATOM     13  C   UNL     1       1.885   7.832  19.389  0.00  0.00    +0.000 A 
ATOM     14  C   UNL     1       1.289   8.591  20.404  0.00  0.00    +0.000 A 
ATOM     15  C   UNL     1       0.979   9.942  20.202  0.00  0.00    +0.000 A 
BRANCH  10  17
ATOM     16  C   UNL     1       2.150  12.710  18.449  0.00  0.00    +0.000 C 
ATOM     17  O   UNL     1       1.028  11.853  18.596  0.00  0.00    +0.000 OA
ENDBRANCH  10  17
BRANCH  15  18
ATOM     18  O   UNL     1       0.414  10.635  21.238  0.00  0.00    +0.000 OA
ATOM     19  H   UNL     1      -0.553  10.625  21.134  0.00  0.00    +0.000 HD
ENDBRANCH  15  18
ENDBRANCH   1  13
BRANCH   9  20
ATOM     20  N   UNL     1       3.171   5.699  17.454  0.00  0.00    +0.000 N 
ATOM     21  H   UNL     1       2.454   5.759  16.731  0.00  0.00    +0.000 HD
BRANCH  20  22
ATOM     22  C   UNL     1       4.455   5.499  16.905  0.00  0.00    +0.000 A 
ATOM     23  C   UNL     1       5.541   6.340  17.171  0.00  0.00    +0.000 A 
ATOM     24  C   UNL     1       6.736   6.260  16.440  0.00  0.00    +0.000 A 
ATOM     25  C   UNL     1       6.872   5.255  15.461  0.00  0.00    +0.000 A 
ATOM     26  C   UNL     1       5.803   4.352  15.240  0.00  0.00    +0.000 A 
ATOM     27  C   UNL     1       4.611   4.489  15.956  0.00  0.00    +0.000 A 
BRANCH  24  28
ATOM     28  O   UNL     1       7.768   7.142  16.634  0.00  0.00    +0.000 OA
ATOM     29  C   UNL     1       7.732   7.998  17.770  0.00  0.00    +0.000 C 
ENDBRANCH  24  28
BRANCH  25  30
ATOM     30  O   UNL     1       7.957   5.031  14.646  0.00  0.00    +0.000 OA
ATOM     31  C   UNL     1       8.041   5.678  13.388  0.00  0.00    +0.000 C 
ENDBRANCH  25  30
BRANCH  26  32
ATOM     32  O   UNL     1       6.003   3.388  14.278  0.00  0.00    +0.000 OA
ATOM     33  C   UNL     1       5.314   3.537  13.044  0.00  0.00    +0.000 C 
ENDBRANCH  26  32
ENDBRANCH  20  22
ENDBRANCH   9  20
TORSDOF 8
ENDMDL
MODEL 4
REMARK VINA RESULT:      -6.9      2.354      6.858
REMARK  Name = 
REMARK  12 active torsions:
REMARK  status: ('A' for Active; 'I' for Inactive)
REMARK    1  A    between atoms: C_1  and  O_2
REMARK    2  A    between atoms: O_2  and  C_3
REMARK    3  A    between atoms: C_6  and  C_7
REMARK    4  A    between atoms: C_15  and  N_16
REMARK    5  A    between atoms: N_16  and  C_17
REMARK    6  A    between atoms: C_19  and  O_20
REMARK    7  A    between atoms: O_20  and  C_21
REMARK    8  A    between atoms: C_22  and  O_23
REMARK    9  A    between atoms: O_23  and  C_24
REMARK   10  A    between atoms: C_25  and  O_26
REMARK   11  A    between atoms: O_26  and  C_27
REMARK   12  A    between atoms: C_30  and  O_31
REMARK                            x       y       z     vdW  Elec       q    Type
REMARK                         _______ _______ _______ _____ _____    ______ ____
ROOT
ATOM      1  C   UNL     1       2.144   6.378  19.902  0.00  0.00    +0.000 A 
ATOM      2  N   UNL     1       1.939   5.650  21.057  0.00  0.00    +0.000 NA
ATOM      3  C   UNL     1       2.429   4.463  20.783  0.00  0.00    +0.000 A 
ATOM      4  C   UNL     1       2.483   3.309  21.639  0.00  0.00    +0.000 A 
ATOM      5  N   UNL     1       3.043   2.191  21.260  0.00  0.00    +0.000 NA
ATOM      6  C   UNL     1       3.620   2.167  20.002  0.00  0.00    +0.000 A 
ATOM      7  C   UNL     1       3.624   3.211  19.155  0.00  0.00    +0.000 A 
ATOM      8  N   UNL     1       2.982   4.384  19.529  0.00  0.00    +0.000 N 
ATOM      9  C   UNL     1       2.764   5.611  18.916  0.00  0.00    +0.000 A 
ENDROOT
BRANCH   1  13
ATOM     10  C   UNL     1       1.024  10.493  19.508  0.00  0.00    +0.000 A 
ATOM     11  C   UNL     1       0.745   9.791  20.688  0.00  0.00    +0.000 A 
ATOM     12  C   UNL     1       1.119   8.454  20.841  0.00  0.00    +0.000 A 
ATOM     13  C   UNL     1       1.767   7.779  19.800  0.00  0.00    +0.000 A 
ATOM     14  C   UNL     1       2.068   8.481  18.626  0.00  0.00    +0.000 A 
ATOM     15  C   UNL     1       1.697   9.824  18.479  0.00  0.00    +0.000 A 
BRANCH  10  17
ATOM     16  C   UNL     1       1.390  12.752  20.201  0.00  0.00    +0.000 C 
ATOM     17  O   UNL     1       0.582  11.786  19.545  0.00  0.00    +0.000 OA
ENDBRANCH  10  17
BRANCH  15  18
ATOM     18  O   UNL     1       2.003  10.451  17.301  0.00  0.00    +0.000 OA
ATOM     19  H   UNL     1       1.404  11.207  17.182  0.00  0.00    +0.000 HD
ENDBRANCH  15  18
ENDBRANCH   1  13
BRANCH   9  20
ATOM     20  N   UNL     1       3.212   5.951  17.675  0.00  0.00    +0.000 N 
ATOM     21  H   UNL     1       2.522   6.226  16.976  0.00  0.00    +0.000 HD
BRANCH  20  22
ATOM     22  C   UNL     1       4.473   5.693  17.097  0.00  0.00    +0.000 A 
ATOM     23  C   UNL     1       5.597   6.495  17.324  0.00  0.00    +0.000 A 
ATOM     24  C   UNL     1       6.768   6.359  16.565  0.00  0.00    +0.000 A 
ATOM     25  C   UNL     1       6.841   5.337  15.597  0.00  0.00    +0.000 A 
ATOM     26  C   UNL     1       5.732   4.474  15.415  0.00  0.00    +0.000 A 
ATOM     27  C   UNL     1       4.565   4.666  16.158  0.00  0.00    +0.000 A 
BRANCH  24  28
ATOM     28  O   UNL     1       7.839   7.201  16.721  0.00  0.00    +0.000 OA
ATOM     29  C   UNL     1       7.744   8.259  17.668  0.00  0.00    +0.000 C 
ENDBRANCH  24  28
BRANCH  25  30
ATOM     30  O   UNL     1       7.895   5.060  14.758  0.00  0.00    +0.000 OA
ATOM     31  C   UNL     1       7.978   5.697  13.494  0.00  0.00    +0.000 C 
ENDBRANCH  25  30
BRANCH  26  32
ATOM     32  O   UNL     1       5.870   3.491  14.461  0.00  0.00    +0.000 OA
ATOM     33  C   UNL     1       5.195   3.674  13.224  0.00  0.00    +0.000 C 
ENDBRANCH  26  32
ENDBRANCH  20  22
ENDBRANCH   9  20
TORSDOF 8
ENDMDL
MODEL 5
REMARK VINA RESULT:      -6.8      2.322      3.337
REMARK  Name = 
REMARK  12 active torsions:
REMARK  status: ('A' for Active; 'I' for Inactive)
REMARK    1  A    between atoms: C_1  and  O_2
REMARK    2  A    between atoms: O_2  and  C_3
REMARK    3  A    between atoms: C_6  and  C_7
REMARK    4  A    between atoms: C_15  and  N_16
REMARK    5  A    between atoms: N_16  and  C_17
REMARK    6  A    between atoms: C_19  and  O_20
REMARK    7  A    between atoms: O_20  and  C_21
REMARK    8  A    between atoms: C_22  and  O_23
REMARK    9  A    between atoms: O_23  and  C_24
REMARK   10  A    between atoms: C_25  and  O_26
REMARK   11  A    between atoms: O_26  and  C_27
REMARK   12  A    between atoms: C_30  and  O_31
REMARK                            x       y       z     vdW  Elec       q    Type
REMARK                         _______ _______ _______ _____ _____    ______ ____
ROOT
ATOM      1  C   UNL     1       4.526   4.199  18.442  0.00  0.00    +0.000 A 
ATOM      2  N   UNL     1       4.736   3.121  19.279  0.00  0.00    +0.000 NA
ATOM      3  C   UNL     1       3.696   3.122  20.078  0.00  0.00    +0.000 A 
ATOM      4  C   UNL     1       3.399   2.207  21.146  0.00  0.00    +0.000 A 
ATOM      5  N   UNL     1       2.297   2.289  21.844  0.00  0.00    +0.000 NA
ATOM      6  C   UNL     1       1.398   3.281  21.492  0.00  0.00    +0.000 A 
ATOM      7  C   UNL     1       1.599   4.161  20.495  0.00  0.00    +0.000 A 
ATOM      8  N   UNL     1       2.792   4.114  19.786  0.00  0.00    +0.000 N 
ATOM      9  C   UNL     1       3.338   4.861  18.750  0.00  0.00    +0.000 A 
ENDROOT
BRANCH   1  13
ATOM     10  C   UNL     1       7.184   5.141  15.219  0.00  0.00    +0.000 A 
ATOM     11  C   UNL     1       7.197   5.902  16.396  0.00  0.00    +0.000 A 
ATOM     12  C   UNL     1       6.349   5.598  17.464  0.00  0.00    +0.000 A 
ATOM     13  C   UNL     1       5.450   4.531  17.369  0.00  0.00    +0.000 A 
ATOM     14  C   UNL     1       5.447   3.753  16.204  0.00  0.00    +0.000 A 
ATOM     15  C   UNL     1       6.302   4.057  15.137  0.00  0.00    +0.000 A 
BRANCH  10  17
ATOM     16  C   UNL     1       7.788   5.370  12.917  0.00  0.00    +0.000 C 
ATOM     17  O   UNL     1       8.080   5.591  14.289  0.00  0.00    +0.000 OA
ENDBRANCH  10  17
BRANCH  15  18
ATOM     18  O   UNL     1       6.240   3.271  14.018  0.00  0.00    +0.000 OA
ATOM     19  H   UNL     1       7.056   3.391  13.504  0.00  0.00    +0.000 HD
ENDBRANCH  15  18
ENDBRANCH   1  13
BRANCH   9  20
ATOM     20  N   UNL     1       2.719   5.909  18.137  0.00  0.00    +0.000 N 
ATOM     21  H   UNL     1       2.716   5.933  17.117  0.00  0.00    +0.000 HD
BRANCH  20  22
ATOM     22  C   UNL     1       2.332   7.146  18.694  0.00  0.00    +0.000 A 
ATOM     23  C   UNL     1       1.839   7.278  19.997  0.00  0.00    +0.000 A 
ATOM     24  C   UNL     1       1.247   8.467  20.447  0.00  0.00    +0.000 A 
ATOM     25  C   UNL     1       1.214   9.583  19.586  0.00  0.00    +0.000 A 
ATOM     26  C   UNL     1       1.779   9.478  18.292  0.00  0.00    +0.000 A 
ATOM     27  C   UNL     1       2.321   8.265  17.860  0.00  0.00    +0.000 A 
BRANCH  24  28
ATOM     28  O   UNL     1       0.681   8.572  21.691  0.00  0.00    +0.000 OA
ATOM     29  C   UNL     1       1.380   9.289  22.703  0.00  0.00    +0.000 C 
ENDBRANCH  24  28
BRANCH  25  30
ATOM     30  O   UNL     1       0.670  10.819  19.848  0.00  0.00    +0.000 OA
ATOM     31  C   UNL     1      -0.735  10.998  19.798  0.00  0.00    +0.000 C 
ENDBRANCH  25  30
BRANCH  26  32
ATOM     32  O   UNL     1       1.724  10.605  17.504  0.00  0.00    +0.000 OA
ATOM     33  C   UNL     1       2.610  11.672  17.819  0.00  0.00    +0.000 C 
ENDBRANCH  26  32
ENDBRANCH  20  22
ENDBRANCH   9  20
TORSDOF 8
ENDMDL
MODEL 6
REMARK VINA RESULT:      -6.8      0.323      2.184
REMARK  Name = 
REMARK  12 active torsions:
REMARK  status: ('A' for Active; 'I' for Inactive)
REMARK    1  A    between atoms: C_1  and  O_2
REMARK    2  A    between atoms: O_2  and  C_3
REMARK    3  A    between atoms: C_6  and  C_7
REMARK    4  A    between atoms: C_15  and  N_16
REMARK    5  A    between atoms: N_16  and  C_17
REMARK    6  A    between atoms: C_19  and  O_20
REMARK    7  A    between atoms: O_20  and  C_21
REMARK    8  A    between atoms: C_22  and  O_23
REMARK    9  A    between atoms: O_23  and  C_24
REMARK   10  A    between atoms: C_25  and  O_26
REMARK   11  A    between atoms: O_26  and  C_27
REMARK   12  A    between atoms: C_30  and  O_31
REMARK                            x       y       z     vdW  Elec       q    Type
REMARK                         _______ _______ _______ _____ _____    ______ ____
ROOT
ATOM      1  C   UNL     1       4.017   4.907  18.502  0.00  0.00    +0.000 A 
ATOM      2  N   UNL     1       3.761   3.797  17.721  0.00  0.00    +0.000 NA
ATOM      3  C   UNL     1       2.654   3.298  18.220  0.00  0.00    +0.000 A 
ATOM      4  C   UNL     1       1.932   2.135  17.782  0.00  0.00    +0.000 A 
ATOM      5  N   UNL     1       0.808   1.766  18.338  0.00  0.00    +0.000 NA
ATOM      6  C   UNL     1       0.314   2.564  19.355  0.00  0.00    +0.000 A 
ATOM      7  C   UNL     1       0.925   3.675  19.806  0.00  0.00    +0.000 A 
ATOM      8  N   UNL     1       2.146   4.041  19.257  0.00  0.00    +0.000 N 
ATOM      9  C   UNL     1       3.047   5.072  19.490  0.00  0.00    +0.000 A 
ENDROOT
BRANCH   1  13
ATOM     10  C   UNL     1       7.431   7.393  17.793  0.00  0.00    +0.000 A 
ATOM     11  C   UNL     1       6.254   7.575  17.055  0.00  0.00    +0.000 A 
ATOM     12  C   UNL     1       5.125   6.786  17.285  0.00  0.00    +0.000 A 
ATOM     13  C   UNL     1       5.156   5.775  18.252  0.00  0.00    +0.000 A 
ATOM     14  C   UNL     1       6.322   5.602  19.008  0.00  0.00    +0.000 A 
ATOM     15  C   UNL     1       7.451   6.399  18.779  0.00  0.00    +0.000 A 
BRANCH  10  17
ATOM     16  C   UNL     1       8.571   9.462  18.160  0.00  0.00    +0.000 C 
ATOM     17  O   UNL     1       8.426   8.256  17.425  0.00  0.00    +0.000 OA
ENDBRANCH  10  17
BRANCH  15  18
ATOM     18  O   UNL     1       8.567   6.169  19.538  0.00  0.00    +0.000 OA
ATOM     19  H   UNL     1       8.835   5.241  19.431  0.00  0.00    +0.000 HD
ENDBRANCH  15  18
ENDBRANCH   1  13
BRANCH   9  20
ATOM     20  N   UNL     1       2.875   6.062  20.410  0.00  0.00    +0.000 N 
ATOM     21  H   UNL     1       3.064   5.845  21.389  0.00  0.00    +0.000 HD
BRANCH  20  22
ATOM     22  C   UNL     1       2.176   7.279  20.268  0.00  0.00    +0.000 A 
ATOM     23  C   UNL     1       1.242   7.739  21.203  0.00  0.00    +0.000 A 
ATOM     24  C   UNL     1       0.396   8.825  20.931  0.00  0.00    +0.000 A 
ATOM     25  C   UNL     1       0.542   9.517  19.712  0.00  0.00    +0.000 A 
ATOM     26  C   UNL     1       1.537   9.102  18.793  0.00  0.00    +0.000 A 
ATOM     27  C   UNL     1       2.333   7.989  19.077  0.00  0.00    +0.000 A 
BRANCH  24  28
ATOM     28  O   UNL     1      -0.582   9.221  21.806  0.00  0.00    +0.000 OA
ATOM     29  C   UNL     1      -0.218   9.527  23.147  0.00  0.00    +0.000 C 
ENDBRANCH  24  28
BRANCH  25  30
ATOM     30  O   UNL     1      -0.198  10.589  19.272  0.00  0.00    +0.000 OA
ATOM     31  C   UNL     1      -1.467  10.376  18.677  0.00  0.00    +0.000 C 
ENDBRANCH  25  30
BRANCH  26  32
ATOM     32  O   UNL     1       1.634   9.825  17.626  0.00  0.00    +0.000 OA
ATOM     33  C   UNL     1       2.419  11.010  17.650  0.00  0.00    +0.000 C 
ENDBRANCH  26  32
ENDBRANCH  20  22
ENDBRANCH   9  20
TORSDOF 8
ENDMDL
MODEL 7
REMARK VINA RESULT:      -6.6      1.895      2.201
REMARK  Name = 
REMARK  12 active torsions:
REMARK  status: ('A' for Active; 'I' for Inactive)
REMARK    1  A    between atoms: C_1  and  O_2
REMARK    2  A    between atoms: O_2  and  C_3
REMARK    3  A    between atoms: C_6  and  C_7
REMARK    4  A    between atoms: C_15  and  N_16
REMARK    5  A    between atoms: N_16  and  C_17
REMARK    6  A    between atoms: C_19  and  O_20
REMARK    7  A    between atoms: O_20  and  C_21
REMARK    8  A    between atoms: C_22  and  O_23
REMARK    9  A    between atoms: O_23  and  C_24
REMARK   10  A    between atoms: C_25  and  O_26
REMARK   11  A    between atoms: O_26  and  C_27
REMARK   12  A    between atoms: C_30  and  O_31
REMARK                            x       y       z     vdW  Elec       q    Type
REMARK                         _______ _______ _______ _____ _____    ______ ____
ROOT
ATOM      1  C   UNL     1       3.861   4.142  17.500  0.00  0.00    +0.000 A 
ATOM      2  N   UNL     1       3.217   2.930  17.344  0.00  0.00    +0.000 NA
ATOM      3  C   UNL     1       2.300   2.927  18.284  0.00  0.00    +0.000 A 
ATOM      4  C   UNL     1       1.335   1.903  18.576  0.00  0.00    +0.000 A 
ATOM      5  N   UNL     1       0.438   2.042  19.515  0.00  0.00    +0.000 NA
ATOM      6  C   UNL     1       0.429   3.241  20.208  0.00  0.00    +0.000 A 
ATOM      7  C   UNL     1       1.288   4.250  19.979  0.00  0.00    +0.000 A 
ATOM      8  N   UNL     1       2.278   4.086  19.019  0.00  0.00    +0.000 N 
ATOM      9  C   UNL     1       3.323   4.876  18.555  0.00  0.00    +0.000 A 
ENDROOT
BRANCH   1  13
ATOM     10  C   UNL     1       7.091   5.383  14.977  0.00  0.00    +0.000 A 
ATOM     11  C   UNL     1       6.180   4.414  14.538  0.00  0.00    +0.000 A 
ATOM     12  C   UNL     1       5.110   4.010  15.340  0.00  0.00    +0.000 A 
ATOM     13  C   UNL     1       4.940   4.557  16.617  0.00  0.00    +0.000 A 
ATOM     14  C   UNL     1       5.835   5.542  17.053  0.00  0.00    +0.000 A 
ATOM     15  C   UNL     1       6.903   5.949  16.244  0.00  0.00    +0.000 A 
BRANCH  10  17
ATOM     16  C   UNL     1       7.855   5.228  12.717  0.00  0.00    +0.000 C 
ATOM     17  O   UNL     1       8.068   5.646  14.056  0.00  0.00    +0.000 OA
ENDBRANCH  10  17
BRANCH  15  18
ATOM     18  O   UNL     1       7.755   6.902  16.733  0.00  0.00    +0.000 OA
ATOM     19  H   UNL     1       8.033   7.481  16.003  0.00  0.00    +0.000 HD
ENDBRANCH  15  18
ENDBRANCH   1  13
BRANCH   9  20
ATOM     20  N   UNL     1       3.602   6.134  18.997  0.00  0.00    +0.000 N 
ATOM     21  H   UNL     1       4.466   6.277  19.520  0.00  0.00    +0.000 HD
BRANCH  20  22
ATOM     22  C   UNL     1       2.729   7.237  19.111  0.00  0.00    +0.000 A 
ATOM     23  C   UNL     1       2.596   8.214  18.119  0.00  0.00    +0.000 A 
ATOM     24  C   UNL     1       1.906   9.413  18.348  0.00  0.00    +0.000 A 
ATOM     25  C   UNL     1       1.265   9.607  19.589  0.00  0.00    +0.000 A 
ATOM     26  C   UNL     1       1.334   8.588  20.571  0.00  0.00    +0.000 A 
ATOM     27  C   UNL     1       2.067   7.425  20.325  0.00  0.00    +0.000 A 
BRANCH  24  28
ATOM     28  O   UNL     1       1.851  10.412  17.410  0.00  0.00    +0.000 OA
ATOM     29  C   UNL     1       2.522  11.637  17.675  0.00  0.00    +0.000 C 
ENDBRANCH  24  28
BRANCH  25  30
ATOM     30  O   UNL     1       0.556  10.713  19.994  0.00  0.00    +0.000 OA
ATOM     31  C   UNL     1      -0.722  10.976  19.440  0.00  0.00    +0.000 C 
ENDBRANCH  25  30
BRANCH  26  32
ATOM     32  O   UNL     1       0.679   8.835  21.757  0.00  0.00    +0.000 OA
ATOM     33  C   UNL     1      -0.632   8.308  21.906  0.00  0.00    +0.000 C 
ENDBRANCH  26  32
ENDBRANCH  20  22
ENDBRANCH   9  20
TORSDOF 8
ENDMDL
MODEL 8
REMARK VINA RESULT:      -6.6      5.748      9.586
REMARK  Name = 
REMARK  12 active torsions:
REMARK  status: ('A' for Active; 'I' for Inactive)
REMARK    1  A    between atoms: C_1  and  O_2
REMARK    2  A    between atoms: O_2  and  C_3
REMARK    3  A    between atoms: C_6  and  C_7
REMARK    4  A    between atoms: C_15  and  N_16
REMARK    5  A    between atoms: N_16  and  C_17
REMARK    6  A    between atoms: C_19  and  O_20
REMARK    7  A    between atoms: O_20  and  C_21
REMARK    8  A    between atoms: C_22  and  O_23
REMARK    9  A    between atoms: O_23  and  C_24
REMARK   10  A    between atoms: C_25  and  O_26
REMARK   11  A    between atoms: O_26  and  C_27
REMARK   12  A    between atoms: C_30  and  O_31
REMARK                            x       y       z     vdW  Elec       q    Type
REMARK                         _______ _______ _______ _____ _____    ______ ____
ROOT
ATOM      1  C   UNL     1      -0.837  11.430  22.233  0.00  0.00    +0.000 A 
ATOM      2  N   UNL     1      -0.123  10.418  22.844  0.00  0.00    +0.000 NA
ATOM      3  C   UNL     1       0.407   9.748  21.849  0.00  0.00    +0.000 A 
ATOM      4  C   UNL     1       1.257   8.590  21.914  0.00  0.00    +0.000 A 
ATOM      5  N   UNL     1       1.763   8.039  20.843  0.00  0.00    +0.000 NA
ATOM      6  C   UNL     1       1.474   8.637  19.628  0.00  0.00    +0.000 A 
ATOM      7  C   UNL     1       0.703   9.730  19.491  0.00  0.00    +0.000 A 
ATOM      8  N   UNL     1       0.118  10.288  20.620  0.00  0.00    +0.000 N 
ATOM      9  C   UNL     1      -0.734  11.361  20.844  0.00  0.00    +0.000 A 
ENDROOT
BRANCH   1  13
ATOM     10  C   UNL     1      -2.914  14.453  24.444  0.00  0.00    +0.000 A 
ATOM     11  C   UNL     1      -3.513  13.209  24.207  0.00  0.00    +0.000 A 
ATOM     12  C   UNL     1      -2.843  12.205  23.503  0.00  0.00    +0.000 A 
ATOM     13  C   UNL     1      -1.558  12.433  23.000  0.00  0.00    +0.000 A 
ATOM     14  C   UNL     1      -0.945  13.667  23.252  0.00  0.00    +0.000 A 
ATOM     15  C   UNL     1      -1.617  14.670  23.963  0.00  0.00    +0.000 A 
BRANCH  10  17
ATOM     16  C   UNL     1      -4.491  16.250  24.418  0.00  0.00    +0.000 C 
ATOM     17  O   UNL     1      -3.722  15.304  25.146  0.00  0.00    +0.000 OA
ENDBRANCH  10  17
BRANCH  15  18
ATOM     18  O   UNL     1      -0.973  15.861  24.162  0.00  0.00    +0.000 OA
ATOM     19  H   UNL     1      -1.369  16.309  24.928  0.00  0.00    +0.000 HD
ENDBRANCH  15  18
ENDBRANCH   1  13
BRANCH   9  20
ATOM     20  N   UNL     1      -1.208  12.194  19.875  0.00  0.00    +0.000 N 
ATOM     21  H   UNL     1      -0.664  13.027  19.652  0.00  0.00    +0.000 HD
BRANCH  20  22
ATOM     22  C   UNL     1      -2.506  12.250  19.325  0.00  0.00    +0.000 A 
ATOM     23  C   UNL     1      -3.612  12.745  20.025  0.00  0.00    +0.000 A 
ATOM     24  C   UNL     1      -4.922  12.579  19.551  0.00  0.00    +0.000 A 
ATOM     25  C   UNL     1      -5.124  11.962  18.300  0.00  0.00    +0.000 A 
ATOM     26  C   UNL     1      -4.002  11.525  17.553  0.00  0.00    +0.000 A 
ATOM     27  C   UNL     1      -2.714  11.667  18.075  0.00  0.00    +0.000 A 
BRANCH  24  28
ATOM     28  O   UNL     1      -6.014  12.981  20.276  0.00  0.00    +0.000 OA
ATOM     29  C   UNL     1      -6.616  12.058  21.175  0.00  0.00    +0.000 C 
ENDBRANCH  24  28
BRANCH  25  30
ATOM     30  O   UNL     1      -6.327  11.705  17.684  0.00  0.00    +0.000 OA
ATOM     31  C   UNL     1      -7.109  12.778  17.188  0.00  0.00    +0.000 C 
ENDBRANCH  25  30
BRANCH  26  32
ATOM     32  O   UNL     1      -4.266  10.939  16.336  0.00  0.00    +0.000 OA
ATOM     33  C   UNL     1      -3.156  10.577  15.525  0.00  0.00    +0.000 C 
ENDBRANCH  26  32
ENDBRANCH  20  22
ENDBRANCH   9  20
TORSDOF 8
ENDMDL
MODEL 9
REMARK VINA RESULT:      -6.6      5.864      9.593
REMARK  Name = 
REMARK  12 active torsions:
REMARK  status: ('A' for Active; 'I' for Inactive)
REMARK    1  A    between atoms: C_1  and  O_2
REMARK    2  A    between atoms: O_2  and  C_3
REMARK    3  A    between atoms: C_6  and  C_7
REMARK    4  A    between atoms: C_15  and  N_16
REMARK    5  A    between atoms: N_16  and  C_17
REMARK    6  A    between atoms: C_19  and  O_20
REMARK    7  A    between atoms: O_20  and  C_21
REMARK    8  A    between atoms: C_22  and  O_23
REMARK    9  A    between atoms: O_23  and  C_24
REMARK   10  A    between atoms: C_25  and  O_26
REMARK   11  A    between atoms: O_26  and  C_27
REMARK   12  A    between atoms: C_30  and  O_31
REMARK                            x       y       z     vdW  Elec       q    Type
REMARK                         _______ _______ _______ _____ _____    ______ ____
ROOT
ATOM      1  C   UNL     1      -0.943  11.683  22.185  0.00  0.00    +0.000 A 
ATOM      2  N   UNL     1      -0.142  10.776  22.852  0.00  0.00    +0.000 NA
ATOM      3  C   UNL     1       0.376  10.038  21.898  0.00  0.00    +0.000 A 
ATOM      4  C   UNL     1       1.292   8.939  22.029  0.00  0.00    +0.000 A 
ATOM      5  N   UNL     1       1.775   8.310  20.989  0.00  0.00    +0.000 NA
ATOM      6  C   UNL     1       1.392   8.767  19.740  0.00  0.00    +0.000 A 
ATOM      7  C   UNL     1       0.552   9.799  19.540  0.00  0.00    +0.000 A 
ATOM      8  N   UNL     1      -0.006  10.436  20.640  0.00  0.00    +0.000 N 
ATOM      9  C   UNL     1      -0.907  11.480  20.806  0.00  0.00    +0.000 A 
ENDROOT
BRANCH   1  13
ATOM     10  C   UNL     1      -3.149  14.667  24.322  0.00  0.00    +0.000 A 
ATOM     11  C   UNL     1      -1.976  15.007  23.636  0.00  0.00    +0.000 A 
ATOM     12  C   UNL     1      -1.254  14.050  22.919  0.00  0.00    +0.000 A 
ATOM     13  C   UNL     1      -1.681  12.719  22.890  0.00  0.00    +0.000 A 
ATOM     14  C   UNL     1      -2.865  12.377  23.556  0.00  0.00    +0.000 A 
ATOM     15  C   UNL     1      -3.590  13.339  24.269  0.00  0.00    +0.000 A 
BRANCH  10  17
ATOM     16  C   UNL     1      -2.887  16.848  25.265  0.00  0.00    +0.000 C 
ATOM     17  O   UNL     1      -3.714  15.734  24.965  0.00  0.00    +0.000 OA
ENDBRANCH  10  17
BRANCH  15  18
ATOM     18  O   UNL     1      -4.729  12.940  24.915  0.00  0.00    +0.000 OA
ATOM     19  H   UNL     1      -5.501  13.241  24.407  0.00  0.00    +0.000 HD
ENDBRANCH  15  18
ENDBRANCH   1  13
BRANCH   9  20
ATOM     20  N   UNL     1      -1.476  12.185  19.789  0.00  0.00    +0.000 N 
ATOM     21  H   UNL     1      -1.071  13.090  19.548  0.00  0.00    +0.000 HD
BRANCH  20  22
ATOM     22  C   UNL     1      -2.744  12.001  19.197  0.00  0.00    +0.000 A 
ATOM     23  C   UNL     1      -2.919  11.482  17.910  0.00  0.00    +0.000 A 
ATOM     24  C   UNL     1      -4.160  11.524  17.257  0.00  0.00    +0.000 A 
ATOM     25  C   UNL     1      -5.277  12.039  17.946  0.00  0.00    +0.000 A 
ATOM     26  C   UNL     1      -5.121  12.498  19.276  0.00  0.00    +0.000 A 
ATOM     27  C   UNL     1      -3.861  12.481  19.881  0.00  0.00    +0.000 A 
BRANCH  24  28
ATOM     28  O   UNL     1      -4.316  11.100  15.962  0.00  0.00    +0.000 OA
ATOM     29  C   UNL     1      -3.246  10.400  15.338  0.00  0.00    +0.000 C 
ENDBRANCH  24  28
BRANCH  25  30
ATOM     30  O   UNL     1      -6.560  12.169  17.468  0.00  0.00    +0.000 OA
ATOM     31  C   UNL     1      -6.935  13.336  16.757  0.00  0.00    +0.000 C 
ENDBRANCH  25  30
BRANCH  26  32
ATOM     32  O   UNL     1      -6.252  12.979  19.897  0.00  0.00    +0.000 OA
ATOM     33  C   UNL     1      -6.087  14.016  20.854  0.00  0.00    +0.000 C 
ENDBRANCH  26  32
ENDBRANCH  20  22
ENDBRANCH   9  20
TORSDOF 8
ENDMDL
