MODEL 1
REMARK VINA RESULT:      -6.9      0.000      0.000
REMARK  Name = 
REMARK  7 active torsions:
REMARK  status: ('A' for Active; 'I' for Inactive)
REMARK    1  A    between atoms: C_1  and  C_2
REMARK    2  A    between atoms: C_3  and  C_4
REMARK    3  A    between atoms: C_9  and  C_10
REMARK    4  A    between atoms: C_13  and  S_14
REMARK    5  A    between atoms: S_14  and  N_17
REMARK    6  A    between atoms: C_27  and  C_28
REMARK    7  A    between atoms: N_29  and  C_30
REMARK                            x       y       z     vdW  Elec       q    Type
REMARK                         _______ _______ _______ _____ _____    ______ ____
ROOT
ATOM      1  C   UNL     1       2.393  13.496  20.742  0.00  0.00    +0.000 C 
ATOM      2  C   UNL     1       1.123  14.258  20.603  0.00  0.00    +0.000 A 
ATOM      3  C   UNL     1      -0.103  14.161  21.272  0.00  0.00    +0.000 A 
ATOM      4  C   UNL     1      -0.888  15.293  20.807  0.00  0.00    +0.000 A 
ATOM      5  C   UNL     1      -0.134  15.976  19.851  0.00  0.00    +0.000 A 
ATOM      6  C   UNL     1      -0.347  17.234  19.081  0.00  0.00    +0.000 C 
ATOM      7  N   UNL     1       1.015  15.253  19.658  0.00  0.00    +0.000 N 
ATOM      8  C   UNL     1       2.007  15.481  18.619  0.00  0.00    +0.000 C 
ENDROOT
BRANCH   3   9
ATOM      9  C   UNL     1      -0.459  13.176  22.322  0.00  0.00    +0.000 C 
ATOM     10  O   UNL     1      -0.649  13.540  23.485  0.00  0.00    +0.000 OA
ATOM     11  N   UNL     1      -0.518  11.803  21.986  0.00  0.00    +0.000 N 
ATOM     12  C   UNL     1      -0.779  10.821  23.047  0.00  0.00    +0.000 C 
ATOM     13  C   UNL     1      -0.028   9.501  22.817  0.00  0.00    +0.000 C 
ATOM     14  C   UNL     1      -0.014   8.989  21.363  0.00  0.00    +0.000 C 
ATOM     15  C   UNL     1       1.153   8.011  21.156  0.00  0.00    +0.000 C 
ATOM     16  C   UNL     1       0.094  10.117  20.332  0.00  0.00    +0.000 C 
ATOM     17  C   UNL     1      -0.811  11.299  20.658  0.00  0.00    +0.000 C 
ENDBRANCH   3   9
BRANCH   4  18
ATOM     18  S   UNL     1      -2.513  15.636  21.374  0.00  0.00    +0.000 S 
ATOM     19  O   UNL     1      -2.264  16.254  22.664  0.00  0.00    +0.000 OA
ATOM     20  O   UNL     1      -3.129  16.340  20.272  0.00  0.00    +0.000 OA
BRANCH  18  21
ATOM     21  N   UNL     1      -3.412  14.243  21.622  0.00  0.00    +0.000 NA
ATOM     22  C   UNL     1      -3.653  13.283  20.533  0.00  0.00    +0.000 C 
ATOM     23  C   UNL     1      -5.146  13.217  20.235  0.00  0.00    +0.000 C 
ATOM     24  C   UNL     1      -5.922  12.886  21.486  0.00  0.00    +0.000 A 
ATOM     25  C   UNL     1      -7.189  12.296  21.379  0.00  0.00    +0.000 A 
ATOM     26  C   UNL     1      -7.911  11.965  22.523  0.00  0.00    +0.000 A 
ATOM     27  C   UNL     1      -7.368  12.213  23.783  0.00  0.00    +0.000 A 
ATOM     28  C   UNL     1      -6.119  12.830  23.898  0.00  0.00    +0.000 A 
ATOM     29  C   UNL     1      -5.391  13.196  22.756  0.00  0.00    +0.000 A 
ATOM     30  C   UNL     1      -4.078  13.956  22.900  0.00  0.00    +0.000 C 
ENDBRANCH  18  21
ENDBRANCH   4  18
TORSDOF 3
ENDMDL
MODEL 2
REMARK VINA RESULT:      -6.4      2.429      5.133
REMARK  Name = 
REMARK  7 active torsions:
REMARK  status: ('A' for Active; 'I' for Inactive)
REMARK    1  A    between atoms: C_1  and  C_2
REMARK    2  A    between atoms: C_3  and  C_4
REMARK    3  A    between atoms: C_9  and  C_10
REMARK    4  A    between atoms: C_13  and  S_14
REMARK    5  A    between atoms: S_14  and  N_17
REMARK    6  A    between atoms: C_27  and  C_28
REMARK    7  A    between atoms: N_29  and  C_30
REMARK                            x       y       z     vdW  Elec       q    Type
REMARK                         _______ _______ _______ _____ _____    ______ ____
ROOT
ATOM      1  C   UNL     1       0.814  17.357  20.236  0.00  0.00    +0.000 C 
ATOM      2  C   UNL     1       0.913  15.873  20.257  0.00  0.00    +0.000 A 
ATOM      3  C   UNL     1       0.426  14.917  21.155  0.00  0.00    +0.000 A 
ATOM      4  C   UNL     1       0.701  13.630  20.537  0.00  0.00    +0.000 A 
ATOM      5  C   UNL     1       1.383  13.864  19.341  0.00  0.00    +0.000 A 
ATOM      6  C   UNL     1       1.859  12.980  18.240  0.00  0.00    +0.000 C 
ATOM      7  N   UNL     1       1.608  15.214  19.268  0.00  0.00    +0.000 N 
ATOM      8  C   UNL     1       2.448  15.892  18.293  0.00  0.00    +0.000 C 
ENDROOT
BRANCH   3   9
ATOM      9  C   UNL     1      -0.321  15.184  22.409  0.00  0.00    +0.000 C 
ATOM     10  O   UNL     1       0.282  15.391  23.465  0.00  0.00    +0.000 OA
ATOM     11  N   UNL     1      -1.734  15.136  22.392  0.00  0.00    +0.000 N 
ATOM     12  C   UNL     1      -2.468  15.307  23.653  0.00  0.00    +0.000 C 
ATOM     13  C   UNL     1      -3.744  14.455  23.704  0.00  0.00    +0.000 C 
ATOM     14  C   UNL     1      -4.570  14.414  22.403  0.00  0.00    +0.000 C 
ATOM     15  C   UNL     1      -5.477  13.174  22.389  0.00  0.00    +0.000 C 
ATOM     16  C   UNL     1      -3.699  14.406  21.142  0.00  0.00    +0.000 C 
ATOM     17  C   UNL     1      -2.546  15.400  21.220  0.00  0.00    +0.000 C 
ENDBRANCH   3   9
BRANCH   4  18
ATOM     18  S   UNL     1       0.255  12.097  21.264  0.00  0.00    +0.000 S 
ATOM     19  O   UNL     1       1.523  11.392  21.298  0.00  0.00    +0.000 OA
ATOM     20  O   UNL     1      -0.467  12.470  22.459  0.00  0.00    +0.000 OA
BRANCH  18  21
ATOM     21  N   UNL     1      -0.809  11.221  20.309  0.00  0.00    +0.000 NA
ATOM     22  C   UNL     1      -0.439   9.909  19.755  0.00  0.00    +0.000 C 
ATOM     23  C   UNL     1      -0.416   9.988  18.233  0.00  0.00    +0.000 C 
ATOM     24  C   UNL     1      -1.740  10.490  17.710  0.00  0.00    +0.000 A 
ATOM     25  C   UNL     1      -2.126  10.181  16.398  0.00  0.00    +0.000 A 
ATOM     26  C   UNL     1      -3.354  10.617  15.904  0.00  0.00    +0.000 A 
ATOM     27  C   UNL     1      -4.207  11.359  16.720  0.00  0.00    +0.000 A 
ATOM     28  C   UNL     1      -3.815  11.697  18.019  0.00  0.00    +0.000 A 
ATOM     29  C   UNL     1      -2.570  11.290  18.522  0.00  0.00    +0.000 A 
ATOM     30  C   UNL     1      -2.118  11.752  19.902  0.00  0.00    +0.000 C 
ENDBRANCH  18  21
ENDBRANCH   4  18
TORSDOF 3
ENDMDL
MODEL 3
REMARK VINA RESULT:      -6.4      2.073      5.097
REMARK  Name = 
REMARK  7 active torsions:
REMARK  status: ('A' for Active; 'I' for Inactive)
REMARK    1  A    between atoms: C_1  and  C_2
REMARK    2  A    between atoms: C_3  and  C_4
REMARK    3  A    between atoms: C_9  and  C_10
REMARK    4  A    between atoms: C_13  and  S_14
REMARK    5  A    between atoms: S_14  and  N_17
REMARK    6  A    between atoms: C_27  and  C_28
REMARK    7  A    between atoms: N_29  and  C_30
REMARK                            x       y       z     vdW  Elec       q    Type
REMARK                         _______ _______ _______ _____ _____    ______ ____
ROOT
ATOM      1  C   UNL     1       1.899  10.359  18.037  0.00  0.00    +0.000 C 
ATOM      2  C   UNL     1       1.094  10.582  19.268  0.00  0.00    +0.000 A 
ATOM      3  C   UNL     1       0.429  11.711  19.758  0.00  0.00    +0.000 A 
ATOM      4  C   UNL     1      -0.318  11.250  20.916  0.00  0.00    +0.000 A 
ATOM      5  C   UNL     1      -0.028   9.896  21.104  0.00  0.00    +0.000 A 
ATOM      6  C   UNL     1      -0.528   8.860  22.049  0.00  0.00    +0.000 C 
ATOM      7  N   UNL     1       0.924   9.561  20.175  0.00  0.00    +0.000 N 
ATOM      8  C   UNL     1       1.663   8.309  20.119  0.00  0.00    +0.000 C 
ENDROOT
BRANCH   3   9
ATOM      9  C   UNL     1       0.406  13.060  19.138  0.00  0.00    +0.000 C 
ATOM     10  O   UNL     1      -0.505  13.382  18.372  0.00  0.00    +0.000 OA
ATOM     11  N   UNL     1       1.476  13.950  19.389  0.00  0.00    +0.000 N 
ATOM     12  C   UNL     1       1.498  15.248  18.701  0.00  0.00    +0.000 C 
ATOM     13  C   UNL     1       2.924  15.702  18.358  0.00  0.00    +0.000 C 
ATOM     14  C   UNL     1       3.980  15.463  19.456  0.00  0.00    +0.000 C 
ATOM     15  C   UNL     1       5.389  15.451  18.844  0.00  0.00    +0.000 C 
ATOM     16  C   UNL     1       3.759  14.155  20.223  0.00  0.00    +0.000 C 
ATOM     17  C   UNL     1       2.297  13.926  20.584  0.00  0.00    +0.000 C 
ENDBRANCH   3   9
BRANCH   4  18
ATOM     18  S   UNL     1      -1.347  12.294  21.879  0.00  0.00    +0.000 S 
ATOM     19  O   UNL     1      -1.766  11.411  22.951  0.00  0.00    +0.000 OA
ATOM     20  O   UNL     1      -0.542  13.473  22.102  0.00  0.00    +0.000 OA
BRANCH  18  21
ATOM     21  N   UNL     1      -2.713  12.793  21.044  0.00  0.00    +0.000 NA
ATOM     22  C   UNL     1      -3.640  13.784  21.613  0.00  0.00    +0.000 C 
ATOM     23  C   UNL     1      -5.004  13.139  21.830  0.00  0.00    +0.000 C 
ATOM     24  C   UNL     1      -5.514  12.535  20.545  0.00  0.00    +0.000 A 
ATOM     25  C   UNL     1      -6.892  12.345  20.369  0.00  0.00    +0.000 A 
ATOM     26  C   UNL     1      -7.382  11.808  19.181  0.00  0.00    +0.000 A 
ATOM     27  C   UNL     1      -6.501  11.464  18.157  0.00  0.00    +0.000 A 
ATOM     28  C   UNL     1      -5.123  11.621  18.338  0.00  0.00    +0.000 A 
ATOM     29  C   UNL     1      -4.610  12.134  19.539  0.00  0.00    +0.000 A 
ATOM     30  C   UNL     1      -3.104  12.204  19.755  0.00  0.00    +0.000 C 
ENDBRANCH  18  21
ENDBRANCH   4  18
TORSDOF 3
ENDMDL
MODEL 4
REMARK VINA RESULT:      -6.4      2.583      7.331
REMARK  Name = 
REMARK  7 active torsions:
REMARK  status: ('A' for Active; 'I' for Inactive)
REMARK    1  A    between atoms: C_1  and  C_2
REMARK    2  A    between atoms: C_3  and  C_4
REMARK    3  A    between atoms: C_9  and  C_10
REMARK    4  A    between atoms: C_13  and  S_14
REMARK    5  A    between atoms: S_14  and  N_17
REMARK    6  A    between atoms: C_27  and  C_28
REMARK    7  A    between atoms: N_29  and  C_30
REMARK                            x       y       z     vdW  Elec       q    Type
REMARK                         _______ _______ _______ _____ _____    ______ ____
ROOT
ATOM      1  C   UNL     1      -6.565  11.704  19.877  0.00  0.00    +0.000 C 
ATOM      2  C   UNL     1      -5.127  12.085  19.863  0.00  0.00    +0.000 A 
ATOM      3  C   UNL     1      -4.310  12.684  20.829  0.00  0.00    +0.000 A 
ATOM      4  C   UNL     1      -2.964  12.635  20.282  0.00  0.00    +0.000 A 
ATOM      5  C   UNL     1      -3.038  12.071  19.007  0.00  0.00    +0.000 A 
ATOM      6  C   UNL     1      -2.016  11.687  17.993  0.00  0.00    +0.000 C 
ATOM      7  N   UNL     1      -4.367  11.872  18.735  0.00  0.00    +0.000 N 
ATOM      8  C   UNL     1      -4.931  11.483  17.452  0.00  0.00    +0.000 C 
ENDROOT
BRANCH   3   9
ATOM      9  C   UNL     1      -4.730  13.151  22.173  0.00  0.00    +0.000 C 
ATOM     10  O   UNL     1      -4.765  12.368  23.126  0.00  0.00    +0.000 OA
ATOM     11  N   UNL     1      -5.151  14.491  22.336  0.00  0.00    +0.000 N 
ATOM     12  C   UNL     1      -5.655  14.926  23.646  0.00  0.00    +0.000 C 
ATOM     13  C   UNL     1      -6.780  15.964  23.522  0.00  0.00    +0.000 C 
ATOM     14  C   UNL     1      -6.568  17.049  22.447  0.00  0.00    +0.000 C 
ATOM     15  C   UNL     1      -7.914  17.676  22.054  0.00  0.00    +0.000 C 
ATOM     16  C   UNL     1      -5.881  16.515  21.186  0.00  0.00    +0.000 C 
ATOM     17  C   UNL     1      -4.710  15.592  21.501  0.00  0.00    +0.000 C 
ENDBRANCH   3   9
BRANCH   4  18
ATOM     18  S   UNL     1      -1.556  13.245  21.133  0.00  0.00    +0.000 S 
ATOM     19  O   UNL     1      -1.430  14.588  20.596  0.00  0.00    +0.000 OA
ATOM     20  O   UNL     1      -1.842  12.979  22.524  0.00  0.00    +0.000 OA
BRANCH  18  21
ATOM     21  N   UNL     1      -0.161  12.394  20.754  0.00  0.00    +0.000 NA
ATOM     22  C   UNL     1       0.937  13.020  20.001  0.00  0.00    +0.000 C 
ATOM     23  C   UNL     1       1.114  12.303  18.668  0.00  0.00    +0.000 C 
ATOM     24  C   UNL     1       1.324  10.825  18.886  0.00  0.00    +0.000 A 
ATOM     25  C   UNL     1       1.985  10.069  17.907  0.00  0.00    +0.000 A 
ATOM     26  C   UNL     1       2.207   8.707  18.100  0.00  0.00    +0.000 A 
ATOM     27  C   UNL     1       1.777   8.093  19.275  0.00  0.00    +0.000 A 
ATOM     28  C   UNL     1       1.090   8.834  20.242  0.00  0.00    +0.000 A 
ATOM     29  C   UNL     1       0.833  10.200  20.051  0.00  0.00    +0.000 A 
ATOM     30  C   UNL     1      -0.003  10.967  21.068  0.00  0.00    +0.000 C 
ENDBRANCH  18  21
ENDBRANCH   4  18
TORSDOF 3
ENDMDL
MODEL 5
REMARK VINA RESULT:      -6.4      3.112      7.361
REMARK  Name = 
REMARK  7 active torsions:
REMARK  status: ('A' for Active; 'I' for Inactive)
REMARK    1  A    between atoms: C_1  and  C_2
REMARK    2  A    between atoms: C_3  and  C_4
REMARK    3  A    between atoms: C_9  and  C_10
REMARK    4  A    between atoms: C_13  and  S_14
REMARK    5  A    between atoms: S_14  and  N_17
REMARK    6  A    between atoms: C_27  and  C_28
REMARK    7  A    between atoms: N_29  and  C_30
REMARK                            x       y       z     vdW  Elec       q    Type
REMARK                         _______ _______ _______ _____ _____    ______ ____
ROOT
ATOM      1  C   UNL     1      -0.714  15.613  19.739  0.00  0.00    +0.000 C 
ATOM      2  C   UNL     1      -0.230  14.222  19.529  0.00  0.00    +0.000 A 
ATOM      3  C   UNL     1      -0.850  12.981  19.707  0.00  0.00    +0.000 A 
ATOM      4  C   UNL     1       0.081  12.002  19.168  0.00  0.00    +0.000 A 
ATOM      5  C   UNL     1       1.227  12.682  18.750  0.00  0.00    +0.000 A 
ATOM      6  C   UNL     1       2.476  12.261  18.057  0.00  0.00    +0.000 C 
ATOM      7  N   UNL     1       1.059  13.997  19.101  0.00  0.00    +0.000 N 
ATOM      8  C   UNL     1       2.074  15.038  19.036  0.00  0.00    +0.000 C 
ENDROOT
BRANCH   3   9
ATOM      9  C   UNL     1      -2.221  12.745  20.224  0.00  0.00    +0.000 C 
ATOM     10  O   UNL     1      -3.131  12.416  19.459  0.00  0.00    +0.000 OA
ATOM     11  N   UNL     1      -2.485  12.962  21.595  0.00  0.00    +0.000 N 
ATOM     12  C   UNL     1      -3.862  12.819  22.087  0.00  0.00    +0.000 C 
ATOM     13  C   UNL     1      -4.187  13.815  23.210  0.00  0.00    +0.000 C 
ATOM     14  C   UNL     1      -3.076  14.017  24.261  0.00  0.00    +0.000 C 
ATOM     15  C   UNL     1      -3.273  15.355  24.989  0.00  0.00    +0.000 C 
ATOM     16  C   UNL     1      -1.669  13.981  23.657  0.00  0.00    +0.000 C 
ATOM     17  C   UNL     1      -1.492  12.854  22.647  0.00  0.00    +0.000 C 
ENDBRANCH   3   9
BRANCH   4  18
ATOM     18  S   UNL     1      -0.246  10.279  19.132  0.00  0.00    +0.000 S 
ATOM     19  O   UNL     1      -0.945  10.072  20.387  0.00  0.00    +0.000 OA
ATOM     20  O   UNL     1      -0.866  10.065  17.844  0.00  0.00    +0.000 OA
BRANCH  18  21
ATOM     21  N   UNL     1       1.156   9.360  19.153  0.00  0.00    +0.000 NA
ATOM     22  C   UNL     1       2.160   9.471  18.083  0.00  0.00    +0.000 C 
ATOM     23  C   UNL     1       2.270   8.140  17.349  0.00  0.00    +0.000 C 
ATOM     24  C   UNL     1       2.572   7.024  18.319  0.00  0.00    +0.000 A 
ATOM     25  C   UNL     1       3.193   5.855  17.857  0.00  0.00    +0.000 A 
ATOM     26  C   UNL     1       3.498   4.823  18.742  0.00  0.00    +0.000 A 
ATOM     27  C   UNL     1       3.192   4.954  20.095  0.00  0.00    +0.000 A 
ATOM     28  C   UNL     1       2.545   6.104  20.558  0.00  0.00    +0.000 A 
ATOM     29  C   UNL     1       2.204   7.141  19.676  0.00  0.00    +0.000 A 
ATOM     30  C   UNL     1       1.411   8.340  20.180  0.00  0.00    +0.000 C 
ENDBRANCH  18  21
ENDBRANCH   4  18
TORSDOF 3
ENDMDL
MODEL 6
REMARK VINA RESULT:      -6.3      3.187      8.129
REMARK  Name = 
REMARK  7 active torsions:
REMARK  status: ('A' for Active; 'I' for Inactive)
REMARK    1  A    between atoms: C_1  and  C_2
REMARK    2  A    between atoms: C_3  and  C_4
REMARK    3  A    between atoms: C_9  and  C_10
REMARK    4  A    between atoms: C_13  and  S_14
REMARK    5  A    between atoms: S_14  and  N_17
REMARK    6  A    between atoms: C_27  and  C_28
REMARK    7  A    between atoms: N_29  and  C_30
REMARK                            x       y       z     vdW  Elec       q    Type
REMARK                         _______ _______ _______ _____ _____    ______ ____
ROOT
ATOM      1  C   UNL     1      -4.033  12.960  20.179  0.00  0.00    +0.000 C 
ATOM      2  C   UNL     1      -2.807  12.282  19.677  0.00  0.00    +0.000 A 
ATOM      3  C   UNL     1      -1.495  12.247  20.160  0.00  0.00    +0.000 A 
ATOM      4  C   UNL     1      -0.802  11.276  19.329  0.00  0.00    +0.000 A 
ATOM      5  C   UNL     1      -1.699  10.820  18.360  0.00  0.00    +0.000 A 
ATOM      6  C   UNL     1      -1.619   9.786  17.292  0.00  0.00    +0.000 C 
ATOM      7  N   UNL     1      -2.855  11.541  18.518  0.00  0.00    +0.000 N 
ATOM      8  C   UNL     1      -3.994  11.542  17.613  0.00  0.00    +0.000 C 
ENDROOT
BRANCH   3   9
ATOM      9  C   UNL     1      -0.973  12.964  21.350  0.00  0.00    +0.000 C 
ATOM     10  O   UNL     1      -1.104  12.485  22.479  0.00  0.00    +0.000 OA
ATOM     11  N   UNL     1      -0.377  14.235  21.180  0.00  0.00    +0.000 N 
ATOM     12  C   UNL     1       0.054  14.985  22.368  0.00  0.00    +0.000 C 
ATOM     13  C   UNL     1      -0.132  16.500  22.200  0.00  0.00    +0.000 C 
ATOM     14  C   UNL     1       0.259  17.069  20.822  0.00  0.00    +0.000 C 
ATOM     15  C   UNL     1      -0.435  18.420  20.589  0.00  0.00    +0.000 C 
ATOM     16  C   UNL     1      -0.087  16.126  19.665  0.00  0.00    +0.000 C 
ATOM     17  C   UNL     1       0.275  14.676  19.961  0.00  0.00    +0.000 C 
ENDBRANCH   3   9
BRANCH   4  18
ATOM     18  S   UNL     1       0.885  10.846  19.551  0.00  0.00    +0.000 S 
ATOM     19  O   UNL     1       1.553  11.730  18.613  0.00  0.00    +0.000 OA
ATOM     20  O   UNL     1       1.083  10.924  20.980  0.00  0.00    +0.000 OA
BRANCH  18  21
ATOM     21  N   UNL     1       1.206   9.263  19.104  0.00  0.00    +0.000 NA
ATOM     22  C   UNL     1       0.716   8.127  19.900  0.00  0.00    +0.000 C 
ATOM     23  C   UNL     1       1.900   7.350  20.461  0.00  0.00    +0.000 C 
ATOM     24  C   UNL     1       2.829   6.925  19.350  0.00  0.00    +0.000 A 
ATOM     25  C   UNL     1       3.673   5.821  19.538  0.00  0.00    +0.000 A 
ATOM     26  C   UNL     1       4.521   5.402  18.516  0.00  0.00    +0.000 A 
ATOM     27  C   UNL     1       4.527   6.077  17.297  0.00  0.00    +0.000 A 
ATOM     28  C   UNL     1       3.711   7.197  17.113  0.00  0.00    +0.000 A 
ATOM     29  C   UNL     1       2.871   7.651  18.141  0.00  0.00    +0.000 A 
ATOM     30  C   UNL     1       2.065   8.930  17.958  0.00  0.00    +0.000 C 
ENDBRANCH  18  21
ENDBRANCH   4  18
TORSDOF 3
ENDMDL
MODEL 7
REMARK VINA RESULT:      -6.2      2.496      7.560
REMARK  Name = 
REMARK  7 active torsions:
REMARK  status: ('A' for Active; 'I' for Inactive)
REMARK    1  A    between atoms: C_1  and  C_2
REMARK    2  A    between atoms: C_3  and  C_4
REMARK    3  A    between atoms: C_9  and  C_10
REMARK    4  A    between atoms: C_13  and  S_14
REMARK    5  A    between atoms: S_14  and  N_17
REMARK    6  A    between atoms: C_27  and  C_28
REMARK    7  A    between atoms: N_29  and  C_30
REMARK                            x       y       z     vdW  Elec       q    Type
REMARK                         _______ _______ _______ _____ _____    ______ ____
ROOT
ATOM      1  C   UNL     1      -0.110   9.466  21.130  0.00  0.00    +0.000 C 
ATOM      2  C   UNL     1       0.259  10.763  20.502  0.00  0.00    +0.000 A 
ATOM      3  C   UNL     1      -0.072  12.084  20.824  0.00  0.00    +0.000 A 
ATOM      4  C   UNL     1       0.736  12.912  19.943  0.00  0.00    +0.000 A 
ATOM      5  C   UNL     1       1.461  12.064  19.102  0.00  0.00    +0.000 A 
ATOM      6  C   UNL     1       2.500  12.294  18.060  0.00  0.00    +0.000 C 
ATOM      7  N   UNL     1       1.053  10.784  19.378  0.00  0.00    +0.000 N 
ATOM      8  C   UNL     1       1.396   9.592  18.618  0.00  0.00    +0.000 C 
ENDROOT
BRANCH   3   9
ATOM      9  C   UNL     1      -0.966  12.527  21.922  0.00  0.00    +0.000 C 
ATOM     10  O   UNL     1      -0.559  12.568  23.085  0.00  0.00    +0.000 OA
ATOM     11  N   UNL     1      -2.312  12.844  21.626  0.00  0.00    +0.000 N 
ATOM     12  C   UNL     1      -3.221  13.192  22.728  0.00  0.00    +0.000 C 
ATOM     13  C   UNL     1      -4.653  12.696  22.481  0.00  0.00    +0.000 C 
ATOM     14  C   UNL     1      -5.180  12.875  21.043  0.00  0.00    +0.000 C 
ATOM     15  C   UNL     1      -6.347  11.911  20.782  0.00  0.00    +0.000 C 
ATOM     16  C   UNL     1      -4.101  12.651  19.978  0.00  0.00    +0.000 C 
ATOM     17  C   UNL     1      -2.777  13.314  20.335  0.00  0.00    +0.000 C 
ENDBRANCH   3   9
BRANCH   4  18
ATOM     18  S   UNL     1       0.705  14.665  19.971  0.00  0.00    +0.000 S 
ATOM     19  O   UNL     1      -0.143  14.976  18.835  0.00  0.00    +0.000 OA
ATOM     20  O   UNL     1       0.344  14.989  21.332  0.00  0.00    +0.000 OA
BRANCH  18  21
ATOM     21  N   UNL     1       2.217  15.336  19.698  0.00  0.00    +0.000 NA
ATOM     22  C   UNL     1       2.500  16.121  18.486  0.00  0.00    +0.000 C 
ATOM     23  C   UNL     1       3.564  15.413  17.658  0.00  0.00    +0.000 C 
ATOM     24  C   UNL     1       4.798  15.158  18.488  0.00  0.00    +0.000 A 
ATOM     25  C   UNL     1       6.037  14.991  17.853  0.00  0.00    +0.000 A 
ATOM     26  C   UNL     1       7.190  14.776  18.604  0.00  0.00    +0.000 A 
ATOM     27  C   UNL     1       7.116  14.734  19.995  0.00  0.00    +0.000 A 
ATOM     28  C   UNL     1       5.879  14.868  20.634  0.00  0.00    +0.000 A 
ATOM     29  C   UNL     1       4.704  15.056  19.892  0.00  0.00    +0.000 A 
ATOM     30  C   UNL     1       3.355  15.100  20.598  0.00  0.00    +0.000 C 
ENDBRANCH  18  21
ENDBRANCH   4  18
TORSDOF 3
ENDMDL
MODEL 8
REMARK VINA RESULT:      -6.2      2.120      3.001
REMARK  Name = 
REMARK  7 active torsions:
REMARK  status: ('A' for Active; 'I' for Inactive)
REMARK    1  A    between atoms: C_1  and  C_2
REMARK    2  A    between atoms: C_3  and  C_4
REMARK    3  A    between atoms: C_9  and  C_10
REMARK    4  A    between atoms: C_13  and  S_14
REMARK    5  A    between atoms: S_14  and  N_17
REMARK    6  A    between atoms: C_27  and  C_28
REMARK    7  A    between atoms: N_29  and  C_30
REMARK                            x       y       z     vdW  Elec       q    Type
REMARK                         _______ _______ _______ _____ _____    ______ ____
ROOT
ATOM      1  C   UNL     1       2.151  13.993  18.676  0.00  0.00    +0.000 C 
ATOM      2  C   UNL     1       1.252  14.286  19.824  0.00  0.00    +0.000 A 
ATOM      3  C   UNL     1       0.492  13.453  20.652  0.00  0.00    +0.000 A 
ATOM      4  C   UNL     1      -0.033  14.318  21.696  0.00  0.00    +0.000 A 
ATOM      5  C   UNL     1       0.380  15.624  21.421  0.00  0.00    +0.000 A 
ATOM      6  C   UNL     1       0.238  16.919  22.142  0.00  0.00    +0.000 C 
ATOM      7  N   UNL     1       1.041  15.588  20.220  0.00  0.00    +0.000 N 
ATOM      8  C   UNL     1       1.479  16.740  19.448  0.00  0.00    +0.000 C 
ENDROOT
BRANCH   3   9
ATOM      9  C   UNL     1       0.363  11.979  20.541  0.00  0.00    +0.000 C 
ATOM     10  O   UNL     1       1.178  11.235  21.093  0.00  0.00    +0.000 OA
ATOM     11  N   UNL     1      -0.670  11.436  19.743  0.00  0.00    +0.000 N 
ATOM     12  C   UNL     1      -0.739   9.980  19.559  0.00  0.00    +0.000 C 
ATOM     13  C   UNL     1      -1.239   9.593  18.160  0.00  0.00    +0.000 C 
ATOM     14  C   UNL     1      -2.412  10.433  17.616  0.00  0.00    +0.000 C 
ATOM     15  C   UNL     1      -2.474  10.329  16.085  0.00  0.00    +0.000 C 
ATOM     16  C   UNL     1      -2.323  11.910  18.012  0.00  0.00    +0.000 C 
ATOM     17  C   UNL     1      -1.928  12.105  19.471  0.00  0.00    +0.000 C 
ENDBRANCH   3   9
BRANCH   4  18
ATOM     18  S   UNL     1      -1.041  13.740  23.011  0.00  0.00    +0.000 S 
ATOM     19  O   UNL     1      -0.635  12.350  23.121  0.00  0.00    +0.000 OA
ATOM     20  O   UNL     1      -0.831  14.704  24.065  0.00  0.00    +0.000 OA
BRANCH  18  21
ATOM     21  N   UNL     1      -2.674  13.783  22.632  0.00  0.00    +0.000 NA
ATOM     22  C   UNL     1      -3.228  14.822  21.750  0.00  0.00    +0.000 C 
ATOM     23  C   UNL     1      -4.219  15.677  22.530  0.00  0.00    +0.000 C 
ATOM     24  C   UNL     1      -5.286  14.812  23.155  0.00  0.00    +0.000 A 
ATOM     25  C   UNL     1      -6.531  15.373  23.476  0.00  0.00    +0.000 A 
ATOM     26  C   UNL     1      -7.535  14.585  24.034  0.00  0.00    +0.000 A 
ATOM     27  C   UNL     1      -7.306  13.230  24.268  0.00  0.00    +0.000 A 
ATOM     28  C   UNL     1      -6.058  12.671  23.979  0.00  0.00    +0.000 A 
ATOM     29  C   UNL     1      -5.026  13.456  23.444  0.00  0.00    +0.000 A 
ATOM     30  C   UNL     1      -3.643  12.854  23.230  0.00  0.00    +0.000 C 
ENDBRANCH  18  21
ENDBRANCH   4  18
TORSDOF 3
ENDMDL
MODEL 9
REMARK VINA RESULT:      -6.2      1.863      4.833
REMARK  Name = 
REMARK  7 active torsions:
REMARK  status: ('A' for Active; 'I' for Inactive)
REMARK    1  A    between atoms: C_1  and  C_2
REMARK    2  A    between atoms: C_3  and  C_4
REMARK    3  A    between atoms: C_9  and  C_10
REMARK    4  A    between atoms: C_13  and  S_14
REMARK    5  A    between atoms: S_14  and  N_17
REMARK    6  A    between atoms: C_27  and  C_28
REMARK    7  A    between atoms: N_29  and  C_30
REMARK                            x       y       z     vdW  Elec       q    Type
REMARK                         _______ _______ _______ _____ _____    ______ ____
ROOT
ATOM      1  C   UNL     1       1.434  10.429  18.494  0.00  0.00    +0.000 C 
ATOM      2  C   UNL     1       0.845  10.815  19.804  0.00  0.00    +0.000 A 
ATOM      3  C   UNL     1       0.329  12.028  20.275  0.00  0.00    +0.000 A 
ATOM      4  C   UNL     1      -0.254  11.724  21.572  0.00  0.00    +0.000 A 
ATOM      5  C   UNL     1      -0.015  10.375  21.845  0.00  0.00    +0.000 A 
ATOM      6  C   UNL     1      -0.420   9.464  22.951  0.00  0.00    +0.000 C 
ATOM      7  N   UNL     1       0.760   9.892  20.822  0.00  0.00    +0.000 N 
ATOM      8  C   UNL     1       1.410   8.592  20.779  0.00  0.00    +0.000 C 
ENDROOT
BRANCH   3   9
ATOM      9  C   UNL     1       0.286  13.315  19.537  0.00  0.00    +0.000 C 
ATOM     10  O   UNL     1      -0.725  13.646  18.912  0.00  0.00    +0.000 OA
ATOM     11  N   UNL     1       1.442  14.129  19.506  0.00  0.00    +0.000 N 
ATOM     12  C   UNL     1       1.427  15.356  18.698  0.00  0.00    +0.000 C 
ATOM     13  C   UNL     1       2.795  15.655  18.069  0.00  0.00    +0.000 C 
ATOM     14  C   UNL     1       4.014  15.423  18.985  0.00  0.00    +0.000 C 
ATOM     15  C   UNL     1       5.284  15.238  18.141  0.00  0.00    +0.000 C 
ATOM     16  C   UNL     1       3.847  14.210  19.905  0.00  0.00    +0.000 C 
ATOM     17  C   UNL     1       2.462  14.138  20.537  0.00  0.00    +0.000 C 
ENDBRANCH   3   9
BRANCH   4  18
ATOM     18  S   UNL     1      -1.060  12.920  22.570  0.00  0.00    +0.000 S 
ATOM     19  O   UNL     1      -1.466  12.135  23.722  0.00  0.00    +0.000 OA
ATOM     20  O   UNL     1      -0.111  14.006  22.655  0.00  0.00    +0.000 OA
BRANCH  18  21
ATOM     21  N   UNL     1      -2.439  13.537  21.842  0.00  0.00    +0.000 NA
ATOM     22  C   UNL     1      -2.835  14.943  22.020  0.00  0.00    +0.000 C 
ATOM     23  C   UNL     1      -4.175  15.007  22.742  0.00  0.00    +0.000 C 
ATOM     24  C   UNL     1      -5.213  14.198  22.004  0.00  0.00    +0.000 A 
ATOM     25  C   UNL     1      -6.572  14.497  22.173  0.00  0.00    +0.000 A 
ATOM     26  C   UNL     1      -7.543  13.775  21.484  0.00  0.00    +0.000 A 
ATOM     27  C   UNL     1      -7.163  12.753  20.614  0.00  0.00    +0.000 A 
ATOM     28  C   UNL     1      -5.812  12.429  20.464  0.00  0.00    +0.000 A 
ATOM     29  C   UNL     1      -4.822  13.127  21.173  0.00  0.00    +0.000 A 
ATOM     30  C   UNL     1      -3.365  12.694  21.073  0.00  0.00    +0.000 C 
ENDBRANCH  18  21
ENDBRANCH   4  18
TORSDOF 3
ENDMDL
