MODEL 1
REMARK VINA RESULT:      -7.8      0.000      0.000
REMARK  Name = 
REMARK  5 active torsions:
REMARK  status: ('A' for Active; 'I' for Inactive)
REMARK    1  A    between atoms: C_2  and  O_3
REMARK    2  A    between atoms: C_2  and  C_4
REMARK    3  A    between atoms: C_7  and  N_8
REMARK    4  A    between atoms: N_13  and  C_14
REMARK    5  A    between atoms: C_14  and  C_15
REMARK                            x       y       z     vdW  Elec       q    Type
REMARK                         _______ _______ _______ _____ _____    ______ ____
ROOT
ATOM      1  N   UNL     1       0.349  12.176  19.524  0.00  0.00    +0.000 N 
ATOM      2  C   UNL     1       0.997  11.190  20.338  0.00  0.00    +0.000 C 
ATOM      3  C   UNL     1       0.206   9.925  20.010  0.00  0.00    +0.000 C 
ATOM      4  C   UNL     1      -0.129   9.079  21.222  0.00  0.00    +0.000 C 
ATOM      5  C   UNL     1       1.110   8.376  21.754  0.00  0.00    +0.000 C 
ATOM      6  N   UNL     1       1.787   7.557  20.743  0.00  0.00    +0.000 NA
ATOM      7  C   UNL     1       2.126   8.348  19.548  0.00  0.00    +0.000 C 
ATOM      8  C   UNL     1       0.923   9.083  18.941  0.00  0.00    +0.000 C 
ATOM      9  O   UNL     1      -1.037  10.414  19.498  0.00  0.00    +0.000 OA
ATOM     10  C   UNL     1      -0.922  11.734  19.178  0.00  0.00    +0.000 C 
ATOM     11  O   UNL     1      -1.837  12.353  18.656  0.00  0.00    +0.000 OA
ENDROOT
BRANCH   1  15
ATOM     12  C   UNL     1       2.484  15.602  18.287  0.00  0.00    +0.000 A 
ATOM     13  C   UNL     1       2.897  14.330  17.894  0.00  0.00    +0.000 A 
ATOM     14  C   UNL     1       2.156  13.213  18.281  0.00  0.00    +0.000 A 
ATOM     15  C   UNL     1       0.992  13.336  19.040  0.00  0.00    +0.000 A 
ATOM     16  C   UNL     1       0.546  14.619  19.373  0.00  0.00    +0.000 A 
ATOM     17  C   UNL     1       1.288  15.747  19.005  0.00  0.00    +0.000 A 
BRANCH  12  19
ATOM     18  O   UNL     1       4.235  17.173  18.555  0.00  0.00    +0.000 OA
ATOM     19  C   UNL     1       3.255  16.816  17.934  0.00  0.00    +0.000 C 
BRANCH  19  20
ATOM     20  O   UNL     1       2.803  17.458  16.834  0.00  0.00    +0.000 OA
ATOM     21  H   UNL     1       2.893  18.426  16.837  0.00  0.00    +0.000 HD
ENDBRANCH  19  20
ENDBRANCH  12  19
ENDBRANCH   1  15
BRANCH   6  22
ATOM     22  C   UNL     1       1.025   6.362  20.358  0.00  0.00    +0.000 C 
BRANCH  22  23
ATOM     23  C   UNL     1       1.783   5.051  20.413  0.00  0.00    +0.000 A 
ATOM     24  C   UNL     1       1.122   3.862  20.818  0.00  0.00    +0.000 A 
ATOM     25  C   UNL     1       1.608   2.610  20.432  0.00  0.00    +0.000 A 
ATOM     26  C   UNL     1       2.710   2.612  19.610  0.00  0.00    +0.000 A 
ATOM     27  C   UNL     1       3.446   3.756  19.367  0.00  0.00    +0.000 A 
ATOM     28  C   UNL     1       3.040   4.989  19.802  0.00  0.00    +0.000 A 
ATOM     29  O   UNL     1       4.409   3.551  18.420  0.00  0.00    +0.000 OA
ATOM     30  C   UNL     1       3.808   2.404  17.797  0.00  0.00    +0.000 C 
ATOM     31  O   UNL     1       3.081   1.605  18.760  0.00  0.00    +0.000 OA
ENDBRANCH  22  23
ENDBRANCH   6  22
TORSDOF 5
ENDMDL
MODEL 2
REMARK VINA RESULT:      -7.7      1.217      1.448
REMARK  Name = 
REMARK  5 active torsions:
REMARK  status: ('A' for Active; 'I' for Inactive)
REMARK    1  A    between atoms: C_2  and  O_3
REMARK    2  A    between atoms: C_2  and  C_4
REMARK    3  A    between atoms: C_7  and  N_8
REMARK    4  A    between atoms: N_13  and  C_14
REMARK    5  A    between atoms: C_14  and  C_15
REMARK                            x       y       z     vdW  Elec       q    Type
REMARK                         _______ _______ _______ _____ _____    ______ ____
ROOT
ATOM      1  N   UNL     1       0.375  12.058  19.292  0.00  0.00    +0.000 N 
ATOM      2  C   UNL     1       1.086  11.073  20.052  0.00  0.00    +0.000 C 
ATOM      3  C   UNL     1       0.353   9.783  19.684  0.00  0.00    +0.000 C 
ATOM      4  C   UNL     1       0.084   8.872  20.863  0.00  0.00    +0.000 C 
ATOM      5  C   UNL     1       1.366   8.210  21.344  0.00  0.00    +0.000 C 
ATOM      6  N   UNL     1       2.063   7.470  20.287  0.00  0.00    +0.000 NA
ATOM      7  C   UNL     1       2.340   8.327  19.122  0.00  0.00    +0.000 C 
ATOM      8  C   UNL     1       1.090   9.025  18.567  0.00  0.00    +0.000 C 
ATOM      9  O   UNL     1      -0.922  10.231  19.214  0.00  0.00    +0.000 OA
ATOM     10  C   UNL     1      -0.879  11.568  18.948  0.00  0.00    +0.000 C 
ATOM     11  O   UNL     1      -1.833  12.161  18.469  0.00  0.00    +0.000 OA
ENDROOT
BRANCH   1  15
ATOM     12  C   UNL     1       2.280  15.665  18.203  0.00  0.00    +0.000 A 
ATOM     13  C   UNL     1       2.878  14.437  17.927  0.00  0.00    +0.000 A 
ATOM     14  C   UNL     1       2.215  13.255  18.260  0.00  0.00    +0.000 A 
ATOM     15  C   UNL     1       0.950  13.268  18.848  0.00  0.00    +0.000 A 
ATOM     16  C   UNL     1       0.326  14.502  19.059  0.00  0.00    +0.000 A 
ATOM     17  C   UNL     1       0.986  15.695  18.744  0.00  0.00    +0.000 A 
BRANCH  12  19
ATOM     18  O   UNL     1       4.120  17.153  18.181  0.00  0.00    +0.000 OA
ATOM     19  C   UNL     1       2.957  16.947  17.902  0.00  0.00    +0.000 C 
BRANCH  19  20
ATOM     20  O   UNL     1       2.183  17.842  17.250  0.00  0.00    +0.000 OA
ATOM     21  H   UNL     1       2.587  18.272  16.477  0.00  0.00    +0.000 HD
ENDBRANCH  19  20
ENDBRANCH  12  19
ENDBRANCH   1  15
BRANCH   6  22
ATOM     22  C   UNL     1       1.354   6.255  19.864  0.00  0.00    +0.000 C 
BRANCH  22  23
ATOM     23  C   UNL     1       2.221   5.153  19.288  0.00  0.00    +0.000 A 
ATOM     24  C   UNL     1       1.889   4.564  18.040  0.00  0.00    +0.000 A 
ATOM     25  C   UNL     1       2.868   3.933  17.268  0.00  0.00    +0.000 A 
ATOM     26  C   UNL     1       4.151   3.968  17.763  0.00  0.00    +0.000 A 
ATOM     27  C   UNL     1       4.432   4.385  19.050  0.00  0.00    +0.000 A 
ATOM     28  C   UNL     1       3.478   4.933  19.863  0.00  0.00    +0.000 A 
ATOM     29  O   UNL     1       5.777   4.466  19.277  0.00  0.00    +0.000 OA
ATOM     30  C   UNL     1       6.185   4.583  17.904  0.00  0.00    +0.000 C 
ATOM     31  O   UNL     1       5.300   3.845  17.029  0.00  0.00    +0.000 OA
ENDBRANCH  22  23
ENDBRANCH   6  22
TORSDOF 5
ENDMDL
MODEL 3
REMARK VINA RESULT:      -7.6      4.116      7.132
REMARK  Name = 
REMARK  5 active torsions:
REMARK  status: ('A' for Active; 'I' for Inactive)
REMARK    1  A    between atoms: C_2  and  O_3
REMARK    2  A    between atoms: C_2  and  C_4
REMARK    3  A    between atoms: C_7  and  N_8
REMARK    4  A    between atoms: N_13  and  C_14
REMARK    5  A    between atoms: C_14  and  C_15
REMARK                            x       y       z     vdW  Elec       q    Type
REMARK                         _______ _______ _______ _____ _____    ______ ____
ROOT
ATOM      1  N   UNL     1       2.479   6.567  19.907  0.00  0.00    +0.000 N 
ATOM      2  C   UNL     1       3.838   6.660  19.463  0.00  0.00    +0.000 C 
ATOM      3  C   UNL     1       4.027   5.343  18.710  0.00  0.00    +0.000 C 
ATOM      4  C   UNL     1       5.347   4.657  18.996  0.00  0.00    +0.000 C 
ATOM      5  C   UNL     1       6.500   5.399  18.339  0.00  0.00    +0.000 C 
ATOM      6  N   UNL     1       6.326   5.568  16.892  0.00  0.00    +0.000 NA
ATOM      7  C   UNL     1       5.050   6.233  16.578  0.00  0.00    +0.000 C 
ATOM      8  C   UNL     1       3.830   5.536  17.197  0.00  0.00    +0.000 C 
ATOM      9  O   UNL     1       3.002   4.494  19.234  0.00  0.00    +0.000 OA
ATOM     10  C   UNL     1       2.075   5.237  19.902  0.00  0.00    +0.000 C 
ATOM     11  O   UNL     1       1.068   4.736  20.377  0.00  0.00    +0.000 OA
ENDROOT
BRANCH   1  15
ATOM     12  C   UNL     1       0.277  10.086  20.678  0.00  0.00    +0.000 A 
ATOM     13  C   UNL     1       0.817   9.850  19.415  0.00  0.00    +0.000 A 
ATOM     14  C   UNL     1       1.508   8.664  19.168  0.00  0.00    +0.000 A 
ATOM     15  C   UNL     1       1.658   7.689  20.154  0.00  0.00    +0.000 A 
ATOM     16  C   UNL     1       1.056   7.900  21.400  0.00  0.00    +0.000 A 
ATOM     17  C   UNL     1       0.373   9.093  21.664  0.00  0.00    +0.000 A 
BRANCH  12  19
ATOM     18  O   UNL     1      -1.383  11.743  20.357  0.00  0.00    +0.000 OA
ATOM     19  C   UNL     1      -0.433  11.344  21.000  0.00  0.00    +0.000 C 
BRANCH  19  20
ATOM     20  O   UNL     1       0.034  11.980  22.097  0.00  0.00    +0.000 OA
ATOM     21  H   UNL     1      -0.360  12.848  22.289  0.00  0.00    +0.000 HD
ENDBRANCH  19  20
ENDBRANCH  12  19
ENDBRANCH   1  15
BRANCH   6  22
ATOM     22  C   UNL     1       6.440   4.311  16.141  0.00  0.00    +0.000 C 
BRANCH  22  23
ATOM     23  C   UNL     1       6.444   4.443  14.632  0.00  0.00    +0.000 A 
ATOM     24  C   UNL     1       7.485   5.155  13.982  0.00  0.00    +0.000 A 
ATOM     25  C   UNL     1       7.795   4.900  12.644  0.00  0.00    +0.000 A 
ATOM     26  C   UNL     1       7.075   3.900  12.032  0.00  0.00    +0.000 A 
ATOM     27  C   UNL     1       5.955   3.339  12.613  0.00  0.00    +0.000 A 
ATOM     28  C   UNL     1       5.576   3.629  13.895  0.00  0.00    +0.000 A 
ATOM     29  O   UNL     1       5.484   2.278  11.892  0.00  0.00    +0.000 OA
ATOM     30  C   UNL     1       6.706   1.975  11.197  0.00  0.00    +0.000 C 
ATOM     31  O   UNL     1       7.472   3.175  10.940  0.00  0.00    +0.000 OA
ENDBRANCH  22  23
ENDBRANCH   6  22
TORSDOF 5
ENDMDL
MODEL 4
REMARK VINA RESULT:      -7.4      3.209      9.528
REMARK  Name = 
REMARK  5 active torsions:
REMARK  status: ('A' for Active; 'I' for Inactive)
REMARK    1  A    between atoms: C_2  and  O_3
REMARK    2  A    between atoms: C_2  and  C_4
REMARK    3  A    between atoms: C_7  and  N_8
REMARK    4  A    between atoms: N_13  and  C_14
REMARK    5  A    between atoms: C_14  and  C_15
REMARK                            x       y       z     vdW  Elec       q    Type
REMARK                         _______ _______ _______ _____ _____    ______ ____
ROOT
ATOM      1  N   UNL     1       2.169   8.049  18.994  0.00  0.00    +0.000 N 
ATOM      2  C   UNL     1       1.414   8.969  19.792  0.00  0.00    +0.000 C 
ATOM      3  C   UNL     1       0.900   9.961  18.750  0.00  0.00    +0.000 C 
ATOM      4  C   UNL     1       0.999  11.410  19.180  0.00  0.00    +0.000 C 
ATOM      5  C   UNL     1      -0.034  11.732  20.249  0.00  0.00    +0.000 C 
ATOM      6  N   UNL     1      -1.407  11.425  19.835  0.00  0.00    +0.000 NA
ATOM      7  C   UNL     1      -1.538  10.022  19.408  0.00  0.00    +0.000 C 
ATOM      8  C   UNL     1      -0.536   9.618  18.318  0.00  0.00    +0.000 C 
ATOM      9  O   UNL     1       1.796   9.801  17.646  0.00  0.00    +0.000 OA
ATOM     10  C   UNL     1       2.507   8.646  17.786  0.00  0.00    +0.000 C 
ATOM     11  O   UNL     1       3.288   8.261  16.929  0.00  0.00    +0.000 OA
ENDROOT
BRANCH   1  15
ATOM     12  C   UNL     1       2.947   4.111  20.304  0.00  0.00    +0.000 A 
ATOM     13  C   UNL     1       1.887   4.840  20.841  0.00  0.00    +0.000 A 
ATOM     14  C   UNL     1       1.622   6.125  20.368  0.00  0.00    +0.000 A 
ATOM     15  C   UNL     1       2.383   6.699  19.349  0.00  0.00    +0.000 A 
ATOM     16  C   UNL     1       3.401   5.937  18.766  0.00  0.00    +0.000 A 
ATOM     17  C   UNL     1       3.687   4.652  19.243  0.00  0.00    +0.000 A 
BRANCH  12  19
ATOM     18  O   UNL     1       4.026   2.007  20.187  0.00  0.00    +0.000 OA
ATOM     19  C   UNL     1       3.292   2.758  20.797  0.00  0.00    +0.000 C 
BRANCH  19  20
ATOM     20  O   UNL     1       2.760   2.454  22.001  0.00  0.00    +0.000 OA
ATOM     21  H   UNL     1       2.894   1.542  22.310  0.00  0.00    +0.000 HD
ENDBRANCH  19  20
ENDBRANCH  12  19
ENDBRANCH   1  15
BRANCH   6  22
ATOM     22  C   UNL     1      -1.913  12.321  18.787  0.00  0.00    +0.000 C 
BRANCH  22  23
ATOM     23  C   UNL     1      -3.394  12.216  18.490  0.00  0.00    +0.000 A 
ATOM     24  C   UNL     1      -3.839  11.587  17.298  0.00  0.00    +0.000 A 
ATOM     25  C   UNL     1      -5.125  11.048  17.214  0.00  0.00    +0.000 A 
ATOM     26  C   UNL     1      -5.892  11.120  18.354  0.00  0.00    +0.000 A 
ATOM     27  C   UNL     1      -5.520  11.884  19.443  0.00  0.00    +0.000 A 
ATOM     28  C   UNL     1      -4.297  12.494  19.522  0.00  0.00    +0.000 A 
ATOM     29  O   UNL     1      -6.358  11.699  20.506  0.00  0.00    +0.000 OA
ATOM     30  C   UNL     1      -6.872  10.416  20.109  0.00  0.00    +0.000 C 
ATOM     31  O   UNL     1      -6.945  10.305  18.668  0.00  0.00    +0.000 OA
ENDBRANCH  22  23
ENDBRANCH   6  22
TORSDOF 5
ENDMDL
MODEL 5
REMARK VINA RESULT:      -7.4      2.097     10.028
REMARK  Name = 
REMARK  5 active torsions:
REMARK  status: ('A' for Active; 'I' for Inactive)
REMARK    1  A    between atoms: C_2  and  O_3
REMARK    2  A    between atoms: C_2  and  C_4
REMARK    3  A    between atoms: C_7  and  N_8
REMARK    4  A    between atoms: N_13  and  C_14
REMARK    5  A    between atoms: C_14  and  C_15
REMARK                            x       y       z     vdW  Elec       q    Type
REMARK                         _______ _______ _______ _____ _____    ______ ____
ROOT
ATOM      1  N   UNL     1       1.459   8.544  19.341  0.00  0.00    +0.000 N 
ATOM      2  C   UNL     1       0.850   9.589  18.573  0.00  0.00    +0.000 C 
ATOM      3  C   UNL     1       0.496  10.619  19.646  0.00  0.00    +0.000 C 
ATOM      4  C   UNL     1      -0.882  11.228  19.480  0.00  0.00    +0.000 C 
ATOM      5  C   UNL     1      -0.914  12.188  18.302  0.00  0.00    +0.000 C 
ATOM      6  N   UNL     1       0.095  13.248  18.394  0.00  0.00    +0.000 NA
ATOM      7  C   UNL     1       1.448  12.690  18.557  0.00  0.00    +0.000 C 
ATOM      8  C   UNL     1       1.569  11.716  19.738  0.00  0.00    +0.000 C 
ATOM      9  O   UNL     1       0.464   9.860  20.858  0.00  0.00    +0.000 OA
ATOM     10  C   UNL     1       1.074   8.655  20.671  0.00  0.00    +0.000 C 
ATOM     11  O   UNL     1       1.229   7.863  21.587  0.00  0.00    +0.000 OA
ENDROOT
BRANCH   1  15
ATOM     12  C   UNL     1       4.157   5.840  17.542  0.00  0.00    +0.000 A 
ATOM     13  C   UNL     1       4.130   7.178  17.153  0.00  0.00    +0.000 A 
ATOM     14  C   UNL     1       3.258   8.065  17.786  0.00  0.00    +0.000 A 
ATOM     15  C   UNL     1       2.420   7.650  18.821  0.00  0.00    +0.000 A 
ATOM     16  C   UNL     1       2.501   6.322  19.254  0.00  0.00    +0.000 A 
ATOM     17  C   UNL     1       3.360   5.419  18.616  0.00  0.00    +0.000 A 
BRANCH  12  19
ATOM     18  O   UNL     1       4.966   4.606  15.691  0.00  0.00    +0.000 OA
ATOM     19  C   UNL     1       5.038   4.852  16.878  0.00  0.00    +0.000 C 
BRANCH  19  20
ATOM     20  O   UNL     1       5.955   4.290  17.695  0.00  0.00    +0.000 OA
ATOM     21  H   UNL     1       5.913   4.554  18.630  0.00  0.00    +0.000 HD
ENDBRANCH  19  20
ENDBRANCH  12  19
ENDBRANCH   1  15
BRANCH   6  22
ATOM     22  C   UNL     1      -0.181  14.223  19.458  0.00  0.00    +0.000 C 
BRANCH  22  23
ATOM     23  C   UNL     1       0.323  15.630  19.209  0.00  0.00    +0.000 A 
ATOM     24  C   UNL     1       1.709  15.919  19.313  0.00  0.00    +0.000 A 
ATOM     25  C   UNL     1       2.259  17.017  18.646  0.00  0.00    +0.000 A 
ATOM     26  C   UNL     1       1.398  17.747  17.860  0.00  0.00    +0.000 A 
ATOM     27  C   UNL     1       0.030  17.566  17.904  0.00  0.00    +0.000 A 
ATOM     28  C   UNL     1      -0.549  16.548  18.614  0.00  0.00    +0.000 A 
ATOM     29  O   UNL     1      -0.613  18.298  16.946  0.00  0.00    +0.000 OA
ATOM     30  C   UNL     1       0.509  18.461  16.061  0.00  0.00    +0.000 C 
ATOM     31  O   UNL     1       1.751  18.537  16.799  0.00  0.00    +0.000 OA
ENDBRANCH  22  23
ENDBRANCH   6  22
TORSDOF 5
ENDMDL
MODEL 6
REMARK VINA RESULT:      -7.4      2.115      9.975
REMARK  Name = 
REMARK  5 active torsions:
REMARK  status: ('A' for Active; 'I' for Inactive)
REMARK    1  A    between atoms: C_2  and  O_3
REMARK    2  A    between atoms: C_2  and  C_4
REMARK    3  A    between atoms: C_7  and  N_8
REMARK    4  A    between atoms: N_13  and  C_14
REMARK    5  A    between atoms: C_14  and  C_15
REMARK                            x       y       z     vdW  Elec       q    Type
REMARK                         _______ _______ _______ _____ _____    ______ ____
ROOT
ATOM      1  N   UNL     1       1.317   8.618  19.494  0.00  0.00    +0.000 N 
ATOM      2  C   UNL     1       0.698   9.645  18.708  0.00  0.00    +0.000 C 
ATOM      3  C   UNL     1       0.368  10.705  19.758  0.00  0.00    +0.000 C 
ATOM      4  C   UNL     1      -1.009  11.316  19.601  0.00  0.00    +0.000 C 
ATOM      5  C   UNL     1      -1.061  12.243  18.397  0.00  0.00    +0.000 C 
ATOM      6  N   UNL     1      -0.045  13.301  18.440  0.00  0.00    +0.000 NA
ATOM      7  C   UNL     1       1.308  12.741  18.593  0.00  0.00    +0.000 C 
ATOM      8  C   UNL     1       1.447  11.800  19.798  0.00  0.00    +0.000 C 
ATOM      9  O   UNL     1       0.356   9.982  20.991  0.00  0.00    +0.000 OA
ATOM     10  C   UNL     1       0.958   8.769  20.827  0.00  0.00    +0.000 C 
ATOM     11  O   UNL     1       1.127   8.002  21.762  0.00  0.00    +0.000 OA
ENDROOT
BRANCH   1  15
ATOM     12  C   UNL     1       4.336   5.975  18.183  0.00  0.00    +0.000 A 
ATOM     13  C   UNL     1       3.518   5.637  19.259  0.00  0.00    +0.000 A 
ATOM     14  C   UNL     1       2.500   6.507  19.653  0.00  0.00    +0.000 A 
ATOM     15  C   UNL     1       2.264   7.706  18.981  0.00  0.00    +0.000 A 
ATOM     16  C   UNL     1       3.045   8.007  17.860  0.00  0.00    +0.000 A 
ATOM     17  C   UNL     1       4.079   7.151  17.464  0.00  0.00    +0.000 A 
BRANCH  12  19
ATOM     18  O   UNL     1       6.230   4.596  18.532  0.00  0.00    +0.000 OA
ATOM     19  C   UNL     1       5.452   5.103  17.749  0.00  0.00    +0.000 C 
BRANCH  19  20
ATOM     20  O   UNL     1       5.497   4.884  16.416  0.00  0.00    +0.000 OA
ATOM     21  H   UNL     1       4.641   4.742  15.977  0.00  0.00    +0.000 HD
ENDBRANCH  19  20
ENDBRANCH  12  19
ENDBRANCH   1  15
BRANCH   6  22
ATOM     22  C   UNL     1      -0.297  14.306  19.480  0.00  0.00    +0.000 C 
BRANCH  22  23
ATOM     23  C   UNL     1       0.255  15.690  19.206  0.00  0.00    +0.000 A 
ATOM     24  C   UNL     1       1.648  15.938  19.323  0.00  0.00    +0.000 A 
ATOM     25  C   UNL     1       2.242  17.002  18.639  0.00  0.00    +0.000 A 
ATOM     26  C   UNL     1       1.415  17.740  17.824  0.00  0.00    +0.000 A 
ATOM     27  C   UNL     1       0.041  17.603  17.852  0.00  0.00    +0.000 A 
ATOM     28  C   UNL     1      -0.579  16.622  18.578  0.00  0.00    +0.000 A 
ATOM     29  O   UNL     1      -0.565  18.333  16.869  0.00  0.00    +0.000 OA
ATOM     30  C   UNL     1       0.573  18.439  15.997  0.00  0.00    +0.000 C 
ATOM     31  O   UNL     1       1.808  18.493  16.750  0.00  0.00    +0.000 OA
ENDBRANCH  22  23
ENDBRANCH   6  22
TORSDOF 5
ENDMDL
MODEL 7
REMARK VINA RESULT:      -7.4      3.995      5.979
REMARK  Name = 
REMARK  5 active torsions:
REMARK  status: ('A' for Active; 'I' for Inactive)
REMARK    1  A    between atoms: C_2  and  O_3
REMARK    2  A    between atoms: C_2  and  C_4
REMARK    3  A    between atoms: C_7  and  N_8
REMARK    4  A    between atoms: N_13  and  C_14
REMARK    5  A    between atoms: C_14  and  C_15
REMARK                            x       y       z     vdW  Elec       q    Type
REMARK                         _______ _______ _______ _____ _____    ______ ____
ROOT
ATOM      1  N   UNL     1      -1.570  12.981  21.882  0.00  0.00    +0.000 N 
ATOM      2  C   UNL     1      -1.435  11.935  20.911  0.00  0.00    +0.000 C 
ATOM      3  C   UNL     1       0.018  11.501  21.099  0.00  0.00    +0.000 C 
ATOM      4  C   UNL     1       0.762  11.270  19.800  0.00  0.00    +0.000 C 
ATOM      5  C   UNL     1       0.287   9.996  19.119  0.00  0.00    +0.000 C 
ATOM      6  N   UNL     1       0.395   8.810  19.976  0.00  0.00    +0.000 NA
ATOM      7  C   UNL     1      -0.317   9.001  21.251  0.00  0.00    +0.000 C 
ATOM      8  C   UNL     1       0.115  10.264  22.008  0.00  0.00    +0.000 C 
ATOM      9  O   UNL     1       0.638  12.624  21.731  0.00  0.00    +0.000 OA
ATOM     10  C   UNL     1      -0.315  13.467  22.223  0.00  0.00    +0.000 C 
ATOM     11  O   UNL     1      -0.023  14.463  22.867  0.00  0.00    +0.000 OA
ENDROOT
BRANCH   1  15
ATOM     12  C   UNL     1      -5.361  13.790  23.556  0.00  0.00    +0.000 A 
ATOM     13  C   UNL     1      -4.553  12.785  24.085  0.00  0.00    +0.000 A 
ATOM     14  C   UNL     1      -3.288  12.558  23.543  0.00  0.00    +0.000 A 
ATOM     15  C   UNL     1      -2.796  13.330  22.490  0.00  0.00    +0.000 A 
ATOM     16  C   UNL     1      -3.583  14.382  22.009  0.00  0.00    +0.000 A 
ATOM     17  C   UNL     1      -4.861  14.609  22.533  0.00  0.00    +0.000 A 
BRANCH  12  19
ATOM     18  O   UNL     1      -7.538  13.161  24.241  0.00  0.00    +0.000 OA
ATOM     19  C   UNL     1      -6.725  14.047  24.072  0.00  0.00    +0.000 C 
BRANCH  19  20
ATOM     20  O   UNL     1      -6.966  15.339  24.383  0.00  0.00    +0.000 OA
ATOM     21  H   UNL     1      -7.654  15.784  23.859  0.00  0.00    +0.000 HD
ENDBRANCH  19  20
ENDBRANCH  12  19
ENDBRANCH   1  15
BRANCH   6  22
ATOM     22  C   UNL     1       1.783   8.400  20.229  0.00  0.00    +0.000 C 
BRANCH  22  23
ATOM     23  C   UNL     1       2.363   7.400  19.250  0.00  0.00    +0.000 A 
ATOM     24  C   UNL     1       3.001   7.850  18.065  0.00  0.00    +0.000 A 
ATOM     25  C   UNL     1       3.939   7.047  17.412  0.00  0.00    +0.000 A 
ATOM     26  C   UNL     1       4.232   5.843  18.010  0.00  0.00    +0.000 A 
ATOM     27  C   UNL     1       3.484   5.340  19.057  0.00  0.00    +0.000 A 
ATOM     28  C   UNL     1       2.501   6.071  19.668  0.00  0.00    +0.000 A 
ATOM     29  O   UNL     1       4.036   4.205  19.579  0.00  0.00    +0.000 OA
ATOM     30  C   UNL     1       5.378   4.426  19.112  0.00  0.00    +0.000 C 
ATOM     31  O   UNL     1       5.383   5.121  17.843  0.00  0.00    +0.000 OA
ENDBRANCH  22  23
ENDBRANCH   6  22
TORSDOF 5
ENDMDL
MODEL 8
REMARK VINA RESULT:      -7.4      1.247      1.794
REMARK  Name = 
REMARK  5 active torsions:
REMARK  status: ('A' for Active; 'I' for Inactive)
REMARK    1  A    between atoms: C_2  and  O_3
REMARK    2  A    between atoms: C_2  and  C_4
REMARK    3  A    between atoms: C_7  and  N_8
REMARK    4  A    between atoms: N_13  and  C_14
REMARK    5  A    between atoms: C_14  and  C_15
REMARK                            x       y       z     vdW  Elec       q    Type
REMARK                         _______ _______ _______ _____ _____    ______ ____
ROOT
ATOM      1  N   UNL     1       0.467  12.069  19.471  0.00  0.00    +0.000 N 
ATOM      2  C   UNL     1       1.118  11.019  20.198  0.00  0.00    +0.000 C 
ATOM      3  C   UNL     1       0.393   9.773  19.691  0.00  0.00    +0.000 C 
ATOM      4  C   UNL     1       0.040   8.781  20.780  0.00  0.00    +0.000 C 
ATOM      5  C   UNL     1       1.282   8.065  21.288  0.00  0.00    +0.000 C 
ATOM      6  N   UNL     1       2.035   7.393  20.224  0.00  0.00    +0.000 NA
ATOM      7  C   UNL     1       2.394   8.329  19.146  0.00  0.00    +0.000 C 
ATOM      8  C   UNL     1       1.190   9.086  18.568  0.00  0.00    +0.000 C 
ATOM      9  O   UNL     1      -0.844  10.274  19.178  0.00  0.00    +0.000 OA
ATOM     10  C   UNL     1      -0.768  11.626  19.016  0.00  0.00    +0.000 C 
ATOM     11  O   UNL     1      -1.683  12.269  18.524  0.00  0.00    +0.000 OA
ENDROOT
BRANCH   1  15
ATOM     12  C   UNL     1       2.131  15.762  18.282  0.00  0.00    +0.000 A 
ATOM     13  C   UNL     1       0.908  15.718  18.949  0.00  0.00    +0.000 A 
ATOM     14  C   UNL     1       0.393  14.492  19.368  0.00  0.00    +0.000 A 
ATOM     15  C   UNL     1       1.084  13.299  19.155  0.00  0.00    +0.000 A 
ATOM     16  C   UNL     1       2.342  13.356  18.546  0.00  0.00    +0.000 A 
ATOM     17  C   UNL     1       2.863  14.579  18.107  0.00  0.00    +0.000 A 
BRANCH  12  19
ATOM     18  O   UNL     1       2.023  17.905  17.281  0.00  0.00    +0.000 OA
ATOM     19  C   UNL     1       2.703  17.035  17.785  0.00  0.00    +0.000 C 
BRANCH  19  20
ATOM     20  O   UNL     1       4.033  17.160  17.986  0.00  0.00    +0.000 OA
ATOM     21  H   UNL     1       4.572  17.318  17.192  0.00  0.00    +0.000 HD
ENDBRANCH  19  20
ENDBRANCH  12  19
ENDBRANCH   1  15
BRANCH   6  22
ATOM     22  C   UNL     1       1.340   6.224  19.669  0.00  0.00    +0.000 C 
BRANCH  22  23
ATOM     23  C   UNL     1       2.229   5.111  19.155  0.00  0.00    +0.000 A 
ATOM     24  C   UNL     1       1.909   4.445  17.943  0.00  0.00    +0.000 A 
ATOM     25  C   UNL     1       2.900   3.792  17.206  0.00  0.00    +0.000 A 
ATOM     26  C   UNL     1       4.183   3.884  17.694  0.00  0.00    +0.000 A 
ATOM     27  C   UNL     1       4.457   4.379  18.954  0.00  0.00    +0.000 A 
ATOM     28  C   UNL     1       3.492   4.952  19.738  0.00  0.00    +0.000 A 
ATOM     29  O   UNL     1       5.800   4.503  19.173  0.00  0.00    +0.000 OA
ATOM     30  C   UNL     1       6.203   4.551  17.794  0.00  0.00    +0.000 C 
ATOM     31  O   UNL     1       5.333   3.745  16.965  0.00  0.00    +0.000 OA
ENDBRANCH  22  23
ENDBRANCH   6  22
TORSDOF 5
ENDMDL
MODEL 9
REMARK VINA RESULT:      -7.3      2.069      9.976
REMARK  Name = 
REMARK  5 active torsions:
REMARK  status: ('A' for Active; 'I' for Inactive)
REMARK    1  A    between atoms: C_2  and  O_3
REMARK    2  A    between atoms: C_2  and  C_4
REMARK    3  A    between atoms: C_7  and  N_8
REMARK    4  A    between atoms: N_13  and  C_14
REMARK    5  A    between atoms: C_14  and  C_15
REMARK                            x       y       z     vdW  Elec       q    Type
REMARK                         _______ _______ _______ _____ _____    ______ ____
ROOT
ATOM      1  N   UNL     1       0.895   9.273  20.413  0.00  0.00    +0.000 N 
ATOM      2  C   UNL     1       0.066  10.193  19.691  0.00  0.00    +0.000 C 
ATOM      3  C   UNL     1       0.012  11.394  20.635  0.00  0.00    +0.000 C 
ATOM      4  C   UNL     1      -1.368  12.004  20.774  0.00  0.00    +0.000 C 
ATOM      5  C   UNL     1      -1.760  12.757  19.513  0.00  0.00    +0.000 C 
ATOM      6  N   UNL     1      -0.792  13.791  19.134  0.00  0.00    +0.000 NA
ATOM      7  C   UNL     1       0.563  13.233  18.992  0.00  0.00    +0.000 C 
ATOM      8  C   UNL     1       1.041  12.464  20.231  0.00  0.00    +0.000 C 
ATOM      9  O   UNL     1       0.348  10.847  21.913  0.00  0.00    +0.000 OA
ATOM     10  C   UNL     1       0.906   9.612  21.760  0.00  0.00    +0.000 C 
ATOM     11  O   UNL     1       1.337   8.978  22.710  0.00  0.00    +0.000 OA
ENDROOT
BRANCH   1  15
ATOM     12  C   UNL     1       3.027   6.251  18.377  0.00  0.00    +0.000 A 
ATOM     13  C   UNL     1       2.901   7.524  17.824  0.00  0.00    +0.000 A 
ATOM     14  C   UNL     1       2.226   8.521  18.530  0.00  0.00    +0.000 A 
ATOM     15  C   UNL     1       1.686   8.282  19.793  0.00  0.00    +0.000 A 
ATOM     16  C   UNL     1       1.874   7.022  20.372  0.00  0.00    +0.000 A 
ATOM     17  C   UNL     1       2.536   6.009  19.668  0.00  0.00    +0.000 A 
BRANCH  12  19
ATOM     18  O   UNL     1       4.458   5.344  16.724  0.00  0.00    +0.000 OA
ATOM     19  C   UNL     1       3.702   5.150  17.653  0.00  0.00    +0.000 C 
BRANCH  19  20
ATOM     20  O   UNL     1       3.443   3.920  18.149  0.00  0.00    +0.000 OA
ATOM     21  H   UNL     1       2.920   3.331  17.579  0.00  0.00    +0.000 HD
ENDBRANCH  19  20
ENDBRANCH  12  19
ENDBRANCH   1  15
BRANCH   6  22
ATOM     22  C   UNL     1      -0.772  14.935  20.056  0.00  0.00    +0.000 C 
BRANCH  22  23
ATOM     23  C   UNL     1      -0.032  16.163  19.567  0.00  0.00    +0.000 A 
ATOM     24  C   UNL     1       1.381  16.233  19.675  0.00  0.00    +0.000 A 
ATOM     25  C   UNL     1       2.118  17.073  18.836  0.00  0.00    +0.000 A 
ATOM     26  C   UNL     1       1.404  17.769  17.889  0.00  0.00    +0.000 A 
ATOM     27  C   UNL     1       0.024  17.829  17.906  0.00  0.00    +0.000 A 
ATOM     28  C   UNL     1      -0.728  17.080  18.771  0.00  0.00    +0.000 A 
ATOM     29  O   UNL     1      -0.473  18.457  16.799  0.00  0.00    +0.000 OA
ATOM     30  C   UNL     1       0.669  18.256  15.950  0.00  0.00    +0.000 C 
ATOM     31  O   UNL     1       1.898  18.267  16.714  0.00  0.00    +0.000 OA
ENDBRANCH  22  23
ENDBRANCH   6  22
TORSDOF 5
ENDMDL
