MODEL 1
REMARK VINA RESULT:      -8.6      0.000      0.000
REMARK  Name = 
REMARK  8 active torsions:
REMARK  status: ('A' for Active; 'I' for Inactive)
REMARK    1  A    between atoms: C_1  and  O_2
REMARK    2  A    between atoms: O_2  and  C_3
REMARK    3  A    between atoms: C_10  and  C_11
REMARK    4  A    between atoms: C_11  and  C_12
REMARK    5  A    between atoms: C_12  and  C_13
REMARK    6  A    between atoms: C_16  and  N_17
REMARK    7  A    between atoms: N_17  and  C_18
REMARK    8  A    between atoms: C_18  and  C_19
REMARK                            x       y       z     vdW  Elec       q    Type
REMARK                         _______ _______ _______ _____ _____    ______ ____
ROOT
ATOM      1  C   UNL     1       7.597   7.901  17.911  0.00  0.00    +0.000 C 
ATOM      2  O   UNL     1       7.450   7.259  16.647  0.00  0.00    +0.000 OA
ATOM      3  C   UNL     1       6.673   6.059  16.770  0.00  0.00    +0.000 C 
ATOM      4  C   UNL     1       7.254   5.081  17.814  0.00  0.00    +0.000 C 
ATOM      5  C   UNL     1       7.612   5.877  19.083  0.00  0.00    +0.000 C 
ATOM      6  O   UNL     1       8.341   7.059  18.788  0.00  0.00    +0.000 OA
ENDROOT
BRANCH   4   7
ATOM      7  N   UNL     1       6.352   3.997  18.234  0.00  0.00    +0.000 NA
ATOM      8  H   UNL     1       6.752   3.100  17.943  0.00  0.00    +0.000 HD
BRANCH   7   9
ATOM      9  C   UNL     1       4.999   4.040  17.678  0.00  0.00    +0.000 C 
BRANCH   9  10
ATOM     10  C   UNL     1       3.983   4.111  18.809  0.00  0.00    +0.000 A 
ATOM     11  C   UNL     1       3.407   5.334  19.156  0.00  0.00    +0.000 A 
ATOM     12  C   UNL     1       2.523   5.384  20.233  0.00  0.00    +0.000 A 
ATOM     13  C   UNL     1       2.250   4.227  20.947  0.00  0.00    +0.000 A 
ATOM     14  C   UNL     1       2.888   3.057  20.555  0.00  0.00    +0.000 A 
ATOM     15  N   UNL     1       3.746   2.972  19.512  0.00  0.00    +0.000 NA
ENDBRANCH   9  10
ENDBRANCH   7   9
ENDBRANCH   4   7
BRANCH   1  16
ATOM     16  C   UNL     1       8.390   9.204  17.778  0.00  0.00    +0.000 C 
BRANCH  16  17
ATOM     17  C   UNL     1       9.064   9.639  19.080  0.00  0.00    +0.000 C 
BRANCH  17  25
ATOM     18  C   UNL     1       9.117  12.847  22.237  0.00  0.00    +0.000 A 
ATOM     19  C   UNL     1       9.742  14.049  21.935  0.00  0.00    +0.000 A 
ATOM     20  C   UNL     1      10.322  14.229  20.679  0.00  0.00    +0.000 A 
ATOM     21  C   UNL     1      10.300  13.239  19.709  0.00  0.00    +0.000 A 
ATOM     22  N   UNL     1      10.882  13.528  18.537  0.00  0.00    +0.000 NA
ATOM     23  C   UNL     1      10.874  12.582  17.581  0.00  0.00    +0.000 A 
ATOM     24  C   UNL     1      10.296  11.339  17.737  0.00  0.00    +0.000 A 
ATOM     25  C   UNL     1       9.678  11.024  18.954  0.00  0.00    +0.000 A 
ATOM     26  C   UNL     1       9.680  11.997  19.994  0.00  0.00    +0.000 A 
ATOM     27  C   UNL     1       9.106  11.824  21.281  0.00  0.00    +0.000 A 
BRANCH  18  29
ATOM     28  C   UNL     1       8.293  13.663  24.300  0.00  0.00    +0.000 C 
ATOM     29  O   UNL     1       8.509  12.555  23.429  0.00  0.00    +0.000 OA
ENDBRANCH  18  29
ENDBRANCH  17  25
ENDBRANCH  16  17
ENDBRANCH   1  16
TORSDOF 7
ENDMDL
MODEL 2
REMARK VINA RESULT:      -8.6      1.161      1.460
REMARK  Name = 
REMARK  8 active torsions:
REMARK  status: ('A' for Active; 'I' for Inactive)
REMARK    1  A    between atoms: C_1  and  O_2
REMARK    2  A    between atoms: O_2  and  C_3
REMARK    3  A    between atoms: C_10  and  C_11
REMARK    4  A    between atoms: C_11  and  C_12
REMARK    5  A    between atoms: C_12  and  C_13
REMARK    6  A    between atoms: C_16  and  N_17
REMARK    7  A    between atoms: N_17  and  C_18
REMARK    8  A    between atoms: C_18  and  C_19
REMARK                            x       y       z     vdW  Elec       q    Type
REMARK                         _______ _______ _______ _____ _____    ______ ____
ROOT
ATOM      1  C   UNL     1       7.776   7.711  17.560  0.00  0.00    +0.000 C 
ATOM      2  O   UNL     1       7.987   6.960  18.752  0.00  0.00    +0.000 OA
ATOM      3  C   UNL     1       7.707   5.569  18.536  0.00  0.00    +0.000 C 
ATOM      4  C   UNL     1       6.285   5.329  17.985  0.00  0.00    +0.000 C 
ATOM      5  C   UNL     1       6.027   6.332  16.845  0.00  0.00    +0.000 C 
ATOM      6  O   UNL     1       6.398   7.656  17.201  0.00  0.00    +0.000 OA
ENDROOT
BRANCH   4   7
ATOM      7  N   UNL     1       6.040   3.988  17.432  0.00  0.00    +0.000 NA
ATOM      8  H   UNL     1       6.806   3.743  16.799  0.00  0.00    +0.000 HD
BRANCH   7   9
ATOM      9  C   UNL     1       4.806   3.830  16.661  0.00  0.00    +0.000 C 
BRANCH   9  10
ATOM     10  C   UNL     1       3.667   3.436  17.591  0.00  0.00    +0.000 A 
ATOM     11  C   UNL     1       2.393   3.973  17.403  0.00  0.00    +0.000 A 
ATOM     12  C   UNL     1       1.381   3.643  18.302  0.00  0.00    +0.000 A 
ATOM     13  C   UNL     1       1.663   2.807  19.372  0.00  0.00    +0.000 A 
ATOM     14  C   UNL     1       2.964   2.339  19.504  0.00  0.00    +0.000 A 
ATOM     15  N   UNL     1       3.968   2.635  18.646  0.00  0.00    +0.000 NA
ENDBRANCH   9  10
ENDBRANCH   7   9
ENDBRANCH   4   7
BRANCH   1  16
ATOM     16  C   UNL     1       8.114   9.189  17.774  0.00  0.00    +0.000 C 
BRANCH  16  17
ATOM     17  C   UNL     1       9.040   9.433  18.966  0.00  0.00    +0.000 C 
BRANCH  17  25
ATOM     18  C   UNL     1       8.794  12.247  22.470  0.00  0.00    +0.000 A 
ATOM     19  C   UNL     1       9.310  13.527  22.316  0.00  0.00    +0.000 A 
ATOM     20  C   UNL     1       9.876  13.901  21.097  0.00  0.00    +0.000 A 
ATOM     21  C   UNL     1       9.947  13.031  20.020  0.00  0.00    +0.000 A 
ATOM     22  N   UNL     1      10.505  13.503  18.897  0.00  0.00    +0.000 NA
ATOM     23  C   UNL     1      10.586  12.677  17.839  0.00  0.00    +0.000 A 
ATOM     24  C   UNL     1      10.121  11.378  17.844  0.00  0.00    +0.000 A 
ATOM     25  C   UNL     1       9.529  10.871  19.009  0.00  0.00    +0.000 A 
ATOM     26  C   UNL     1       9.439  11.714  20.153  0.00  0.00    +0.000 A 
ATOM     27  C   UNL     1       8.879  11.344  21.403  0.00  0.00    +0.000 A 
BRANCH  18  29
ATOM     28  C   UNL     1       6.790  11.880  23.674  0.00  0.00    +0.000 C 
ATOM     29  O   UNL     1       8.210  11.767  23.612  0.00  0.00    +0.000 OA
ENDBRANCH  18  29
ENDBRANCH  17  25
ENDBRANCH  16  17
ENDBRANCH   1  16
TORSDOF 7
ENDMDL
MODEL 3
REMARK VINA RESULT:      -8.6      2.491      9.199
REMARK  Name = 
REMARK  8 active torsions:
REMARK  status: ('A' for Active; 'I' for Inactive)
REMARK    1  A    between atoms: C_1  and  O_2
REMARK    2  A    between atoms: O_2  and  C_3
REMARK    3  A    between atoms: C_10  and  C_11
REMARK    4  A    between atoms: C_11  and  C_12
REMARK    5  A    between atoms: C_12  and  C_13
REMARK    6  A    between atoms: C_16  and  N_17
REMARK    7  A    between atoms: N_17  and  C_18
REMARK    8  A    between atoms: C_18  and  C_19
REMARK                            x       y       z     vdW  Elec       q    Type
REMARK                         _______ _______ _______ _____ _____    ______ ____
ROOT
ATOM      1  C   UNL     1       6.367   5.288  17.435  0.00  0.00    +0.000 C 
ATOM      2  O   UNL     1       7.335   4.839  18.379  0.00  0.00    +0.000 OA
ATOM      3  C   UNL     1       7.800   5.928  19.190  0.00  0.00    +0.000 C 
ATOM      4  C   UNL     1       8.358   7.097  18.350  0.00  0.00    +0.000 C 
ATOM      5  C   UNL     1       7.375   7.384  17.200  0.00  0.00    +0.000 C 
ATOM      6  O   UNL     1       6.976   6.200  16.526  0.00  0.00    +0.000 OA
ENDROOT
BRANCH   4   7
ATOM      7  N   UNL     1       8.544   8.363  19.076  0.00  0.00    +0.000 NA
ATOM      8  H   UNL     1       7.797   8.464  19.768  0.00  0.00    +0.000 HD
BRANCH   7   9
ATOM      9  C   UNL     1       8.511   9.578  18.260  0.00  0.00    +0.000 C 
BRANCH   9  10
ATOM     10  C   UNL     1       9.411  10.637  18.882  0.00  0.00    +0.000 A 
ATOM     11  C   UNL     1      10.330  11.325  18.091  0.00  0.00    +0.000 A 
ATOM     12  C   UNL     1      11.183  12.249  18.693  0.00  0.00    +0.000 A 
ATOM     13  C   UNL     1      11.114  12.450  20.064  0.00  0.00    +0.000 A 
ATOM     14  C   UNL     1      10.190  11.703  20.783  0.00  0.00    +0.000 A 
ATOM     15  N   UNL     1       9.344  10.803  20.229  0.00  0.00    +0.000 NA
ENDBRANCH   9  10
ENDBRANCH   7   9
ENDBRANCH   4   7
BRANCH   1  16
ATOM     16  C   UNL     1       5.836   4.122  16.596  0.00  0.00    +0.000 C 
BRANCH  16  17
ATOM     17  C   UNL     1       4.319   4.152  16.407  0.00  0.00    +0.000 C 
BRANCH  17  25
ATOM     18  C   UNL     1       2.227   6.635  19.526  0.00  0.00    +0.000 A 
ATOM     19  C   UNL     1       1.607   5.973  20.577  0.00  0.00    +0.000 A 
ATOM     20  C   UNL     1       1.653   4.580  20.640  0.00  0.00    +0.000 A 
ATOM     21  C   UNL     1       2.301   3.821  19.678  0.00  0.00    +0.000 A 
ATOM     22  N   UNL     1       2.287   2.492  19.847  0.00  0.00    +0.000 NA
ATOM     23  C   UNL     1       2.908   1.734  18.925  0.00  0.00    +0.000 A 
ATOM     24  C   UNL     1       3.563   2.248  17.826  0.00  0.00    +0.000 A 
ATOM     25  C   UNL     1       3.592   3.636  17.638  0.00  0.00    +0.000 A 
ATOM     26  C   UNL     1       2.932   4.469  18.587  0.00  0.00    +0.000 A 
ATOM     27  C   UNL     1       2.866   5.885  18.529  0.00  0.00    +0.000 A 
BRANCH  18  29
ATOM     28  C   UNL     1       2.267   8.450  18.008  0.00  0.00    +0.000 C 
ATOM     29  O   UNL     1       2.256   7.993  19.359  0.00  0.00    +0.000 OA
ENDBRANCH  18  29
ENDBRANCH  17  25
ENDBRANCH  16  17
ENDBRANCH   1  16
TORSDOF 7
ENDMDL
MODEL 4
REMARK VINA RESULT:      -8.6      0.892      1.133
REMARK  Name = 
REMARK  8 active torsions:
REMARK  status: ('A' for Active; 'I' for Inactive)
REMARK    1  A    between atoms: C_1  and  O_2
REMARK    2  A    between atoms: O_2  and  C_3
REMARK    3  A    between atoms: C_10  and  C_11
REMARK    4  A    between atoms: C_11  and  C_12
REMARK    5  A    between atoms: C_12  and  C_13
REMARK    6  A    between atoms: C_16  and  N_17
REMARK    7  A    between atoms: N_17  and  C_18
REMARK    8  A    between atoms: C_18  and  C_19
REMARK                            x       y       z     vdW  Elec       q    Type
REMARK                         _______ _______ _______ _____ _____    ______ ____
ROOT
ATOM      1  C   UNL     1       7.552   7.825  17.882  0.00  0.00    +0.000 C 
ATOM      2  O   UNL     1       7.381   7.198  16.614  0.00  0.00    +0.000 OA
ATOM      3  C   UNL     1       6.543   6.038  16.726  0.00  0.00    +0.000 C 
ATOM      4  C   UNL     1       7.067   5.027  17.769  0.00  0.00    +0.000 C 
ATOM      5  C   UNL     1       7.456   5.798  19.044  0.00  0.00    +0.000 C 
ATOM      6  O   UNL     1       8.246   6.942  18.759  0.00  0.00    +0.000 OA
ENDROOT
BRANCH   4   7
ATOM      7  N   UNL     1       6.108   3.988  18.177  0.00  0.00    +0.000 NA
ATOM      8  H   UNL     1       6.607   3.101  18.292  0.00  0.00    +0.000 HD
BRANCH   7   9
ATOM      9  C   UNL     1       5.016   3.723  17.240  0.00  0.00    +0.000 C 
BRANCH   9  10
ATOM     10  C   UNL     1       3.703   3.614  18.002  0.00  0.00    +0.000 A 
ATOM     11  C   UNL     1       2.840   2.546  17.758  0.00  0.00    +0.000 A 
ATOM     12  C   UNL     1       1.617   2.499  18.426  0.00  0.00    +0.000 A 
ATOM     13  C   UNL     1       1.275   3.520  19.300  0.00  0.00    +0.000 A 
ATOM     14  C   UNL     1       2.179   4.562  19.465  0.00  0.00    +0.000 A 
ATOM     15  N   UNL     1       3.376   4.635  18.837  0.00  0.00    +0.000 NA
ENDBRANCH   9  10
ENDBRANCH   7   9
ENDBRANCH   4   7
BRANCH   1  16
ATOM     16  C   UNL     1       8.410   9.087  17.761  0.00  0.00    +0.000 C 
BRANCH  16  17
ATOM     17  C   UNL     1       9.040   9.522  19.085  0.00  0.00    +0.000 C 
BRANCH  17  25
ATOM     18  C   UNL     1       9.057  12.663  22.308  0.00  0.00    +0.000 A 
ATOM     19  C   UNL     1       9.667  13.879  22.030  0.00  0.00    +0.000 A 
ATOM     20  C   UNL     1      10.243  14.093  20.778  0.00  0.00    +0.000 A 
ATOM     21  C   UNL     1      10.232  13.123  19.788  0.00  0.00    +0.000 A 
ATOM     22  N   UNL     1      10.808  13.443  18.621  0.00  0.00    +0.000 NA
ATOM     23  C   UNL     1      10.811  12.517  17.646  0.00  0.00    +0.000 A 
ATOM     24  C   UNL     1      10.249  11.265  17.777  0.00  0.00    +0.000 A 
ATOM     25  C   UNL     1       9.637  10.917  18.988  0.00  0.00    +0.000 A 
ATOM     26  C   UNL     1       9.627  11.868  20.048  0.00  0.00    +0.000 A 
ATOM     27  C   UNL     1       9.058  11.660  21.331  0.00  0.00    +0.000 A 
BRANCH  18  29
ATOM     28  C   UNL     1       7.896  13.430  24.222  0.00  0.00    +0.000 C 
ATOM     29  O   UNL     1       8.455  12.339  23.494  0.00  0.00    +0.000 OA
ENDBRANCH  18  29
ENDBRANCH  17  25
ENDBRANCH  16  17
ENDBRANCH   1  16
TORSDOF 7
ENDMDL
MODEL 5
REMARK VINA RESULT:      -8.3      2.784      8.733
REMARK  Name = 
REMARK  8 active torsions:
REMARK  status: ('A' for Active; 'I' for Inactive)
REMARK    1  A    between atoms: C_1  and  O_2
REMARK    2  A    between atoms: O_2  and  C_3
REMARK    3  A    between atoms: C_10  and  C_11
REMARK    4  A    between atoms: C_11  and  C_12
REMARK    5  A    between atoms: C_12  and  C_13
REMARK    6  A    between atoms: C_16  and  N_17
REMARK    7  A    between atoms: N_17  and  C_18
REMARK    8  A    between atoms: C_18  and  C_19
REMARK                            x       y       z     vdW  Elec       q    Type
REMARK                         _______ _______ _______ _____ _____    ______ ____
ROOT
ATOM      1  C   UNL     1       5.518   4.731  17.596  0.00  0.00    +0.000 C 
ATOM      2  O   UNL     1       6.164   4.380  18.816  0.00  0.00    +0.000 OA
ATOM      3  C   UNL     1       6.848   5.510  19.376  0.00  0.00    +0.000 C 
ATOM      4  C   UNL     1       7.853   6.143  18.389  0.00  0.00    +0.000 C 
ATOM      5  C   UNL     1       7.167   6.284  17.018  0.00  0.00    +0.000 C 
ATOM      6  O   UNL     1       6.497   5.095  16.627  0.00  0.00    +0.000 OA
ENDROOT
BRANCH   4   7
ATOM      7  N   UNL     1       8.343   7.480  18.758  0.00  0.00    +0.000 NA
ATOM      8  H   UNL     1       7.914   7.760  19.645  0.00  0.00    +0.000 HD
BRANCH   7   9
ATOM      9  C   UNL     1       8.050   8.553  17.807  0.00  0.00    +0.000 C 
BRANCH   9  10
ATOM     10  C   UNL     1       8.575   9.876  18.348  0.00  0.00    +0.000 A 
ATOM     11  C   UNL     1       8.390  11.051  17.621  0.00  0.00    +0.000 A 
ATOM     12  C   UNL     1       8.931  12.240  18.109  0.00  0.00    +0.000 A 
ATOM     13  C   UNL     1       9.656  12.227  19.291  0.00  0.00    +0.000 A 
ATOM     14  C   UNL     1       9.818  11.009  19.938  0.00  0.00    +0.000 A 
ATOM     15  N   UNL     1       9.302   9.839  19.496  0.00  0.00    +0.000 NA
ENDBRANCH   9  10
ENDBRANCH   7   9
ENDBRANCH   4   7
BRANCH   1  16
ATOM     16  C   UNL     1       4.751   3.539  17.017  0.00  0.00    +0.000 C 
BRANCH  16  17
ATOM     17  C   UNL     1       3.233   3.716  17.058  0.00  0.00    +0.000 C 
BRANCH  17  25
ATOM     18  C   UNL     1       2.255   7.743  18.816  0.00  0.00    +0.000 A 
ATOM     19  C   UNL     1       1.805   7.789  20.129  0.00  0.00    +0.000 A 
ATOM     20  C   UNL     1       1.675   6.606  20.856  0.00  0.00    +0.000 A 
ATOM     21  C   UNL     1       1.981   5.369  20.311  0.00  0.00    +0.000 A 
ATOM     22  N   UNL     1       1.826   4.302  21.106  0.00  0.00    +0.000 NA
ATOM     23  C   UNL     1       2.115   3.091  20.598  0.00  0.00    +0.000 A 
ATOM     24  C   UNL     1       2.567   2.888  19.311  0.00  0.00    +0.000 A 
ATOM     25  C   UNL     1       2.741   3.993  18.469  0.00  0.00    +0.000 A 
ATOM     26  C   UNL     1       2.431   5.290  18.969  0.00  0.00    +0.000 A 
ATOM     27  C   UNL     1       2.544   6.501  18.237  0.00  0.00    +0.000 A 
BRANCH  18  29
ATOM     28  C   UNL     1       1.373   9.792  18.027  0.00  0.00    +0.000 C 
ATOM     29  O   UNL     1       2.428   8.833  18.006  0.00  0.00    +0.000 OA
ENDBRANCH  18  29
ENDBRANCH  17  25
ENDBRANCH  16  17
ENDBRANCH   1  16
TORSDOF 7
ENDMDL
MODEL 6
REMARK VINA RESULT:      -8.3      2.616      8.713
REMARK  Name = 
REMARK  8 active torsions:
REMARK  status: ('A' for Active; 'I' for Inactive)
REMARK    1  A    between atoms: C_1  and  O_2
REMARK    2  A    between atoms: O_2  and  C_3
REMARK    3  A    between atoms: C_10  and  C_11
REMARK    4  A    between atoms: C_11  and  C_12
REMARK    5  A    between atoms: C_12  and  C_13
REMARK    6  A    between atoms: C_16  and  N_17
REMARK    7  A    between atoms: N_17  and  C_18
REMARK    8  A    between atoms: C_18  and  C_19
REMARK                            x       y       z     vdW  Elec       q    Type
REMARK                         _______ _______ _______ _____ _____    ______ ____
ROOT
ATOM      1  C   UNL     1       6.133   5.325  17.615  0.00  0.00    +0.000 C 
ATOM      2  O   UNL     1       7.258   4.830  18.336  0.00  0.00    +0.000 OA
ATOM      3  C   UNL     1       7.879   5.878  19.095  0.00  0.00    +0.000 C 
ATOM      4  C   UNL     1       8.279   7.086  18.221  0.00  0.00    +0.000 C 
ATOM      5  C   UNL     1       7.099   7.430  17.293  0.00  0.00    +0.000 C 
ATOM      6  O   UNL     1       6.568   6.279  16.651  0.00  0.00    +0.000 OA
ENDROOT
BRANCH   4   7
ATOM      7  N   UNL     1       8.611   8.316  18.957  0.00  0.00    +0.000 NA
ATOM      8  H   UNL     1       8.009   8.384  19.782  0.00  0.00    +0.000 HD
BRANCH   7   9
ATOM      9  C   UNL     1       8.438   9.568  18.221  0.00  0.00    +0.000 C 
BRANCH   9  10
ATOM     10  C   UNL     1       9.387  10.623  18.773  0.00  0.00    +0.000 A 
ATOM     11  C   UNL     1      10.248  11.306  17.914  0.00  0.00    +0.000 A 
ATOM     12  C   UNL     1      11.148  12.226  18.450  0.00  0.00    +0.000 A 
ATOM     13  C   UNL     1      11.184  12.427  19.822  0.00  0.00    +0.000 A 
ATOM     14  C   UNL     1      10.313  11.685  20.609  0.00  0.00    +0.000 A 
ATOM     15  N   UNL     1       9.423  10.790  20.121  0.00  0.00    +0.000 NA
ENDBRANCH   9  10
ENDBRANCH   7   9
ENDBRANCH   4   7
BRANCH   1  16
ATOM     16  C   UNL     1       5.441   4.202  16.837  0.00  0.00    +0.000 C 
BRANCH  16  17
ATOM     17  C   UNL     1       3.919   4.337  16.802  0.00  0.00    +0.000 C 
BRANCH  17  25
ATOM     18  C   UNL     1       2.186   8.190  18.355  0.00  0.00    +0.000 A 
ATOM     19  C   UNL     1       1.699   8.208  19.655  0.00  0.00    +0.000 A 
ATOM     20  C   UNL     1       1.765   7.053  20.434  0.00  0.00    +0.000 A 
ATOM     21  C   UNL     1       2.302   5.869  19.952  0.00  0.00    +0.000 A 
ATOM     22  N   UNL     1       2.320   4.826  20.792  0.00  0.00    +0.000 NA
ATOM     23  C   UNL     1       2.836   3.667  20.345  0.00  0.00    +0.000 A 
ATOM     24  C   UNL     1       3.352   3.496  19.078  0.00  0.00    +0.000 A 
ATOM     25  C   UNL     1       3.347   4.579  18.189  0.00  0.00    +0.000 A 
ATOM     26  C   UNL     1       2.795   5.818  18.623  0.00  0.00    +0.000 A 
ATOM     27  C   UNL     1       2.709   6.997  17.839  0.00  0.00    +0.000 A 
BRANCH  18  29
ATOM     28  C   UNL     1       1.998  10.536  18.106  0.00  0.00    +0.000 C 
ATOM     29  O   UNL     1       2.182   9.258  17.499  0.00  0.00    +0.000 OA
ENDBRANCH  18  29
ENDBRANCH  17  25
ENDBRANCH  16  17
ENDBRANCH   1  16
TORSDOF 7
ENDMDL
MODEL 7
REMARK VINA RESULT:      -8.1      1.112      1.573
REMARK  Name = 
REMARK  8 active torsions:
REMARK  status: ('A' for Active; 'I' for Inactive)
REMARK    1  A    between atoms: C_1  and  O_2
REMARK    2  A    between atoms: O_2  and  C_3
REMARK    3  A    between atoms: C_10  and  C_11
REMARK    4  A    between atoms: C_11  and  C_12
REMARK    5  A    between atoms: C_12  and  C_13
REMARK    6  A    between atoms: C_16  and  N_17
REMARK    7  A    between atoms: N_17  and  C_18
REMARK    8  A    between atoms: C_18  and  C_19
REMARK                            x       y       z     vdW  Elec       q    Type
REMARK                         _______ _______ _______ _____ _____    ______ ____
ROOT
ATOM      1  C   UNL     1       7.826   7.715  17.756  0.00  0.00    +0.000 C 
ATOM      2  O   UNL     1       8.220   7.049  18.953  0.00  0.00    +0.000 OA
ATOM      3  C   UNL     1       7.837   5.667  18.919  0.00  0.00    +0.000 C 
ATOM      4  C   UNL     1       6.326   5.477  18.662  0.00  0.00    +0.000 C 
ATOM      5  C   UNL     1       5.908   6.400  17.502  0.00  0.00    +0.000 C 
ATOM      6  O   UNL     1       6.404   7.721  17.662  0.00  0.00    +0.000 OA
ENDROOT
BRANCH   4   7
ATOM      7  N   UNL     1       5.916   4.115  18.288  0.00  0.00    +0.000 NA
ATOM      8  H   UNL     1       5.286   4.165  17.483  0.00  0.00    +0.000 HD
BRANCH   7   9
ATOM      9  C   UNL     1       5.202   3.358  19.318  0.00  0.00    +0.000 C 
BRANCH   9  10
ATOM     10  C   UNL     1       3.703   3.437  19.064  0.00  0.00    +0.000 A 
ATOM     11  C   UNL     1       2.804   3.112  20.080  0.00  0.00    +0.000 A 
ATOM     12  C   UNL     1       1.437   3.136  19.808  0.00  0.00    +0.000 A 
ATOM     13  C   UNL     1       1.001   3.461  18.532  0.00  0.00    +0.000 A 
ATOM     14  C   UNL     1       1.962   3.743  17.570  0.00  0.00    +0.000 A 
ATOM     15  N   UNL     1       3.295   3.735  17.803  0.00  0.00    +0.000 NA
ENDBRANCH   9  10
ENDBRANCH   7   9
ENDBRANCH   4   7
BRANCH   1  16
ATOM     16  C   UNL     1       8.271   9.180  17.768  0.00  0.00    +0.000 C 
BRANCH  16  17
ATOM     17  C   UNL     1       9.037   9.570  19.033  0.00  0.00    +0.000 C 
BRANCH  17  25
ATOM     18  C   UNL     1       9.139  12.760  22.206  0.00  0.00    +0.000 A 
ATOM     19  C   UNL     1       9.764  13.963  21.902  0.00  0.00    +0.000 A 
ATOM     20  C   UNL     1      10.329  14.148  20.640  0.00  0.00    +0.000 A 
ATOM     21  C   UNL     1      10.292  13.163  19.666  0.00  0.00    +0.000 A 
ATOM     22  N   UNL     1      10.859  13.456  18.488  0.00  0.00    +0.000 NA
ATOM     23  C   UNL     1      10.837  12.515  17.527  0.00  0.00    +0.000 A 
ATOM     24  C   UNL     1      10.257  11.273  17.684  0.00  0.00    +0.000 A 
ATOM     25  C   UNL     1       9.654  10.954  18.907  0.00  0.00    +0.000 A 
ATOM     26  C   UNL     1       9.671  11.921  19.952  0.00  0.00    +0.000 A 
ATOM     27  C   UNL     1       9.113  11.742  21.245  0.00  0.00    +0.000 A 
BRANCH  18  29
ATOM     28  C   UNL     1       7.318  11.742  23.323  0.00  0.00    +0.000 C 
ATOM     29  O   UNL     1       8.545  12.464  23.404  0.00  0.00    +0.000 OA
ENDBRANCH  18  29
ENDBRANCH  17  25
ENDBRANCH  16  17
ENDBRANCH   1  16
TORSDOF 7
ENDMDL
MODEL 8
REMARK VINA RESULT:      -8.1      2.446      8.808
REMARK  Name = 
REMARK  8 active torsions:
REMARK  status: ('A' for Active; 'I' for Inactive)
REMARK    1  A    between atoms: C_1  and  O_2
REMARK    2  A    between atoms: O_2  and  C_3
REMARK    3  A    between atoms: C_10  and  C_11
REMARK    4  A    between atoms: C_11  and  C_12
REMARK    5  A    between atoms: C_12  and  C_13
REMARK    6  A    between atoms: C_16  and  N_17
REMARK    7  A    between atoms: N_17  and  C_18
REMARK    8  A    between atoms: C_18  and  C_19
REMARK                            x       y       z     vdW  Elec       q    Type
REMARK                         _______ _______ _______ _____ _____    ______ ____
ROOT
ATOM      1  C   UNL     1       7.072   5.088  16.816  0.00  0.00    +0.000 C 
ATOM      2  O   UNL     1       6.456   6.309  16.416  0.00  0.00    +0.000 OA
ATOM      3  C   UNL     1       7.257   7.436  16.799  0.00  0.00    +0.000 C 
ATOM      4  C   UNL     1       7.571   7.453  18.311  0.00  0.00    +0.000 C 
ATOM      5  C   UNL     1       8.012   6.039  18.734  0.00  0.00    +0.000 C 
ATOM      6  O   UNL     1       7.141   5.034  18.238  0.00  0.00    +0.000 OA
ENDROOT
BRANCH   4   7
ATOM      7  N   UNL     1       8.643   8.373  18.723  0.00  0.00    +0.000 NA
ATOM      8  H   UNL     1       8.602   8.499  19.738  0.00  0.00    +0.000 HD
BRANCH   7   9
ATOM      9  C   UNL     1       8.591   9.715  18.142  0.00  0.00    +0.000 C 
BRANCH   9  10
ATOM     10  C   UNL     1       9.572  10.625  18.867  0.00  0.00    +0.000 A 
ATOM     11  C   UNL     1       9.452  10.828  20.242  0.00  0.00    +0.000 A 
ATOM     12  C   UNL     1      10.326  11.711  20.875  0.00  0.00    +0.000 A 
ATOM     13  C   UNL     1      11.281  12.382  20.125  0.00  0.00    +0.000 A 
ATOM     14  C   UNL     1      11.315  12.145  18.757  0.00  0.00    +0.000 A 
ATOM     15  N   UNL     1      10.486  11.291  18.113  0.00  0.00    +0.000 NA
ENDBRANCH   9  10
ENDBRANCH   7   9
ENDBRANCH   4   7
BRANCH   1  16
ATOM     16  C   UNL     1       6.242   3.881  16.371  0.00  0.00    +0.000 C 
BRANCH  16  17
ATOM     17  C   UNL     1       4.748   4.183  16.253  0.00  0.00    +0.000 C 
BRANCH  17  25
ATOM     18  C   UNL     1       2.674   7.503  18.474  0.00  0.00    +0.000 A 
ATOM     19  C   UNL     1       2.079   7.201  19.692  0.00  0.00    +0.000 A 
ATOM     20  C   UNL     1       2.144   5.898  20.188  0.00  0.00    +0.000 A 
ATOM     21  C   UNL     1       2.787   4.880  19.501  0.00  0.00    +0.000 A 
ATOM     22  N   UNL     1       2.793   3.671  20.078  0.00  0.00    +0.000 NA
ATOM     23  C   UNL     1       3.409   2.667  19.429  0.00  0.00    +0.000 A 
ATOM     24  C   UNL     1       4.040   2.815  18.211  0.00  0.00    +0.000 A 
ATOM     25  C   UNL     1       4.048   4.074  17.598  0.00  0.00    +0.000 A 
ATOM     26  C   UNL     1       3.392   5.157  18.250  0.00  0.00    +0.000 A 
ATOM     27  C   UNL     1       3.306   6.483  17.752  0.00  0.00    +0.000 A 
BRANCH  18  29
ATOM     28  C   UNL     1       1.482   9.499  18.030  0.00  0.00    +0.000 C 
ATOM     29  O   UNL     1       2.682   8.741  17.889  0.00  0.00    +0.000 OA
ENDBRANCH  18  29
ENDBRANCH  17  25
ENDBRANCH  16  17
ENDBRANCH   1  16
TORSDOF 7
ENDMDL
MODEL 9
REMARK VINA RESULT:      -8.0      2.586      2.820
REMARK  Name = 
REMARK  8 active torsions:
REMARK  status: ('A' for Active; 'I' for Inactive)
REMARK    1  A    between atoms: C_1  and  O_2
REMARK    2  A    between atoms: O_2  and  C_3
REMARK    3  A    between atoms: C_10  and  C_11
REMARK    4  A    between atoms: C_11  and  C_12
REMARK    5  A    between atoms: C_12  and  C_13
REMARK    6  A    between atoms: C_16  and  N_17
REMARK    7  A    between atoms: N_17  and  C_18
REMARK    8  A    between atoms: C_18  and  C_19
REMARK                            x       y       z     vdW  Elec       q    Type
REMARK                         _______ _______ _______ _____ _____    ______ ____
ROOT
ATOM      1  C   UNL     1       7.821   7.988  18.126  0.00  0.00    +0.000 C 
ATOM      2  O   UNL     1       7.797   7.538  16.774  0.00  0.00    +0.000 OA
ATOM      3  C   UNL     1       6.876   6.450  16.614  0.00  0.00    +0.000 C 
ATOM      4  C   UNL     1       7.172   5.277  17.574  0.00  0.00    +0.000 C 
ATOM      5  C   UNL     1       7.420   5.849  18.982  0.00  0.00    +0.000 C 
ATOM      6  O   UNL     1       8.319   6.949  18.964  0.00  0.00    +0.000 OA
ENDROOT
BRANCH   4   7
ATOM      7  N   UNL     1       6.097   4.281  17.704  0.00  0.00    +0.000 NA
ATOM      8  H   UNL     1       6.489   3.346  17.562  0.00  0.00    +0.000 HD
BRANCH   7   9
ATOM      9  C   UNL     1       4.990   4.409  16.755  0.00  0.00    +0.000 C 
BRANCH   9  10
ATOM     10  C   UNL     1       3.726   3.813  17.359  0.00  0.00    +0.000 A 
ATOM     11  C   UNL     1       2.664   4.643  17.718  0.00  0.00    +0.000 A 
ATOM     12  C   UNL     1       1.541   4.082  18.323  0.00  0.00    +0.000 A 
ATOM     13  C   UNL     1       1.509   2.718  18.573  0.00  0.00    +0.000 A 
ATOM     14  C   UNL     1       2.619   1.967  18.211  0.00  0.00    +0.000 A 
ATOM     15  N   UNL     1       3.723   2.479  17.617  0.00  0.00    +0.000 NA
ENDBRANCH   9  10
ENDBRANCH   7   9
ENDBRANCH   4   7
BRANCH   1  16
ATOM     16  C   UNL     1       8.771   9.177  18.293  0.00  0.00    +0.000 C 
BRANCH  16  17
ATOM     17  C   UNL     1       8.125  10.521  17.954  0.00  0.00    +0.000 C 
BRANCH  17  25
ATOM     18  C   UNL     1       7.285  14.942  17.828  0.00  0.00    +0.000 A 
ATOM     19  C   UNL     1       8.368  15.810  17.794  0.00  0.00    +0.000 A 
ATOM     20  C   UNL     1       9.665  15.297  17.794  0.00  0.00    +0.000 A 
ATOM     21  C   UNL     1       9.918  13.935  17.830  0.00  0.00    +0.000 A 
ATOM     22  N   UNL     1      11.204  13.558  17.818  0.00  0.00    +0.000 NA
ATOM     23  C   UNL     1      11.474  12.241  17.854  0.00  0.00    +0.000 A 
ATOM     24  C   UNL     1      10.504  11.261  17.894  0.00  0.00    +0.000 A 
ATOM     25  C   UNL     1       9.155  11.638  17.901  0.00  0.00    +0.000 A 
ATOM     26  C   UNL     1       8.832  13.025  17.878  0.00  0.00    +0.000 A 
ATOM     27  C   UNL     1       7.519  13.562  17.891  0.00  0.00    +0.000 A 
BRANCH  18  29
ATOM     28  C   UNL     1       5.020  14.269  17.962  0.00  0.00    +0.000 C 
ATOM     29  O   UNL     1       5.970  15.324  17.826  0.00  0.00    +0.000 OA
ENDBRANCH  18  29
ENDBRANCH  17  25
ENDBRANCH  16  17
ENDBRANCH   1  16
TORSDOF 7
ENDMDL
