MODEL 1
REMARK VINA RESULT:      -8.5      0.000      0.000
REMARK  Name = 
REMARK  10 active torsions:
REMARK  status: ('A' for Active; 'I' for Inactive)
REMARK    1  A    between atoms: C_1  and  O_2
REMARK    2  A    between atoms: O_2  and  C_3
REMARK    3  A    between atoms: C_6  and  C_7
REMARK    4  A    between atoms: C_7  and  C_26
REMARK    5  A    between atoms: C_8  and  C_9
REMARK    6  A    between atoms: C_10  and  C_11
REMARK    7  A    between atoms: N_13  and  C_14
REMARK    8  A    between atoms: C_17  and  C_18
REMARK    9  A    between atoms: C_29  and  O_30
REMARK   10  A    between atoms: O_30  and  C_31
REMARK                            x       y       z     vdW  Elec       q    Type
REMARK                         _______ _______ _______ _____ _____    ______ ____
ROOT
ATOM      1  C   UNL     1       3.547   6.572  17.585  0.00  0.00    +0.000 C 
ATOM      2  C   UNL     1       3.170   7.863  17.454  0.00  0.00    +0.000 C 
ENDROOT
BRANCH   1   6
ATOM      3  C   UNL     1       1.312   3.797  19.998  0.00  0.00    +0.000 A 
ATOM      4  C   UNL     1       2.227   4.677  20.579  0.00  0.00    +0.000 A 
ATOM      5  C   UNL     1       2.940   5.586  19.793  0.00  0.00    +0.000 A 
ATOM      6  C   UNL     1       2.768   5.612  18.404  0.00  0.00    +0.000 A 
ATOM      7  C   UNL     1       1.854   4.724  17.822  0.00  0.00    +0.000 A 
ATOM      8  C   UNL     1       1.126   3.821  18.615  0.00  0.00    +0.000 A 
BRANCH   3  10
ATOM      9  C   UNL     1       1.486   2.508  21.984  0.00  0.00    +0.000 C 
ATOM     10  O   UNL     1       0.708   2.939  20.875  0.00  0.00    +0.000 OA
ENDBRANCH   3  10
ENDBRANCH   1   6
BRANCH   1  11
ATOM     11  C   UNL     1       4.754   6.174  16.831  0.00  0.00    +0.000 A 
ATOM     12  C   UNL     1       4.645   5.299  15.746  0.00  0.00    +0.000 A 
ATOM     13  C   UNL     1       5.788   4.902  15.046  0.00  0.00    +0.000 A 
ATOM     14  C   UNL     1       7.045   5.390  15.407  0.00  0.00    +0.000 A 
ATOM     15  C   UNL     1       7.159   6.251  16.499  0.00  0.00    +0.000 A 
ATOM     16  C   UNL     1       6.019   6.639  17.210  0.00  0.00    +0.000 A 
BRANCH  14  17
ATOM     17  O   UNL     1       8.090   4.922  14.659  0.00  0.00    +0.000 OA
ATOM     18  C   UNL     1       7.986   5.132  13.256  0.00  0.00    +0.000 C 
ENDBRANCH  14  17
ENDBRANCH   1  11
BRANCH   2  19
ATOM     19  C   UNL     1       2.104   8.490  18.198  0.00  0.00    +0.000 C 
ATOM     20  C   UNL     1       1.474   9.620  17.843  0.00  0.00    +0.000 C 
BRANCH  20  21
ATOM     21  C   UNL     1       0.410  10.080  18.770  0.00  0.00    +0.000 C 
ATOM     22  O   UNL     1       0.307   9.568  19.877  0.00  0.00    +0.000 OA
ATOM     23  N   UNL     1      -0.420  11.027  18.201  0.00  0.00    +0.000 N 
ATOM     24  H   UNL     1      -0.258  11.270  17.232  0.00  0.00    +0.000 HD
BRANCH  23  25
ATOM     25  C   UNL     1      -1.604  11.527  18.791  0.00  0.00    +0.000 A 
ATOM     26  C   UNL     1      -2.867  11.318  18.246  0.00  0.00    +0.000 A 
ATOM     27  C   UNL     1      -4.011  11.872  18.840  0.00  0.00    +0.000 A 
ATOM     28  C   UNL     1      -3.930  12.639  20.014  0.00  0.00    +0.000 A 
ATOM     29  C   UNL     1      -2.649  12.834  20.559  0.00  0.00    +0.000 A 
ATOM     30  C   UNL     1      -1.502  12.285  19.960  0.00  0.00    +0.000 A 
BRANCH  28  31
ATOM     31  C   UNL     1      -5.151  13.200  20.626  0.00  0.00    +0.000 A 
ATOM     32  C   UNL     1      -5.643  14.468  20.277  0.00  0.00    +0.000 A 
ATOM     33  C   UNL     1      -6.785  14.989  20.885  0.00  0.00    +0.000 A 
ATOM     34  C   UNL     1      -7.429  14.217  21.834  0.00  0.00    +0.000 A 
ATOM     35  N   UNL     1      -7.010  12.991  22.205  0.00  0.00    +0.000 NA
ATOM     36  C   UNL     1      -5.889  12.521  21.601  0.00  0.00    +0.000 A 
ENDBRANCH  28  31
ENDBRANCH  23  25
ENDBRANCH  20  21
ENDBRANCH   2  19
TORSDOF 8
ENDMDL
MODEL 2
REMARK VINA RESULT:      -8.5      0.667      1.152
REMARK  Name = 
REMARK  10 active torsions:
REMARK  status: ('A' for Active; 'I' for Inactive)
REMARK    1  A    between atoms: C_1  and  O_2
REMARK    2  A    between atoms: O_2  and  C_3
REMARK    3  A    between atoms: C_6  and  C_7
REMARK    4  A    between atoms: C_7  and  C_26
REMARK    5  A    between atoms: C_8  and  C_9
REMARK    6  A    between atoms: C_10  and  C_11
REMARK    7  A    between atoms: N_13  and  C_14
REMARK    8  A    between atoms: C_17  and  C_18
REMARK    9  A    between atoms: C_29  and  O_30
REMARK   10  A    between atoms: O_30  and  C_31
REMARK                            x       y       z     vdW  Elec       q    Type
REMARK                         _______ _______ _______ _____ _____    ______ ____
ROOT
ATOM      1  C   UNL     1       3.625   6.333  17.468  0.00  0.00    +0.000 C 
ATOM      2  C   UNL     1       3.262   7.629  17.352  0.00  0.00    +0.000 C 
ENDROOT
BRANCH   1   6
ATOM      3  C   UNL     1       1.471   3.594  19.995  0.00  0.00    +0.000 A 
ATOM      4  C   UNL     1       2.550   4.330  20.490  0.00  0.00    +0.000 A 
ATOM      5  C   UNL     1       3.238   5.228  19.670  0.00  0.00    +0.000 A 
ATOM      6  C   UNL     1       2.872   5.387  18.328  0.00  0.00    +0.000 A 
ATOM      7  C   UNL     1       1.794   4.644  17.831  0.00  0.00    +0.000 A 
ATOM      8  C   UNL     1       1.093   3.752  18.661  0.00  0.00    +0.000 A 
BRANCH   3  10
ATOM      9  C   UNL     1       1.634   2.497  22.094  0.00  0.00    +0.000 C 
ATOM     10  O   UNL     1       0.910   2.729  20.893  0.00  0.00    +0.000 OA
ENDBRANCH   3  10
ENDBRANCH   1   6
BRANCH   1  11
ATOM     11  C   UNL     1       4.787   5.913  16.656  0.00  0.00    +0.000 A 
ATOM     12  C   UNL     1       6.007   6.586  16.780  0.00  0.00    +0.000 A 
ATOM     13  C   UNL     1       7.100   6.207  15.996  0.00  0.00    +0.000 A 
ATOM     14  C   UNL     1       6.994   5.142  15.100  0.00  0.00    +0.000 A 
ATOM     15  C   UNL     1       5.774   4.480  14.963  0.00  0.00    +0.000 A 
ATOM     16  C   UNL     1       4.674   4.865  15.736  0.00  0.00    +0.000 A 
BRANCH  14  17
ATOM     17  O   UNL     1       8.124   4.872  14.378  0.00  0.00    +0.000 OA
ATOM     18  C   UNL     1       8.079   5.235  13.003  0.00  0.00    +0.000 C 
ENDBRANCH  14  17
ENDBRANCH   1  11
BRANCH   2  19
ATOM     19  C   UNL     1       2.245   8.275  18.145  0.00  0.00    +0.000 C 
ATOM     20  C   UNL     1       1.750   9.501  17.919  0.00  0.00    +0.000 C 
BRANCH  20  21
ATOM     21  C   UNL     1       0.711   9.961  18.874  0.00  0.00    +0.000 C 
ATOM     22  O   UNL     1       0.581   9.390  19.949  0.00  0.00    +0.000 OA
ATOM     23  N   UNL     1      -0.069  10.980  18.363  0.00  0.00    +0.000 N 
ATOM     24  H   UNL     1       0.106  11.271  17.410  0.00  0.00    +0.000 HD
BRANCH  23  25
ATOM     25  C   UNL     1      -1.226  11.505  18.984  0.00  0.00    +0.000 A 
ATOM     26  C   UNL     1      -2.508  11.322  18.474  0.00  0.00    +0.000 A 
ATOM     27  C   UNL     1      -3.623  11.900  19.097  0.00  0.00    +0.000 A 
ATOM     28  C   UNL     1      -3.495  12.666  20.268  0.00  0.00    +0.000 A 
ATOM     29  C   UNL     1      -2.196  12.834  20.779  0.00  0.00    +0.000 A 
ATOM     30  C   UNL     1      -1.077  12.262  20.150  0.00  0.00    +0.000 A 
BRANCH  28  31
ATOM     31  C   UNL     1      -4.688  13.252  20.912  0.00  0.00    +0.000 A 
ATOM     32  C   UNL     1      -5.929  12.595  20.916  0.00  0.00    +0.000 A 
ATOM     33  C   UNL     1      -7.049  13.178  21.510  0.00  0.00    +0.000 A 
ATOM     34  C   UNL     1      -6.901  14.416  22.106  0.00  0.00    +0.000 A 
ATOM     35  N   UNL     1      -5.736  15.092  22.141  0.00  0.00    +0.000 NA
ATOM     36  C   UNL     1      -4.670  14.499  21.543  0.00  0.00    +0.000 A 
ENDBRANCH  28  31
ENDBRANCH  23  25
ENDBRANCH  20  21
ENDBRANCH   2  19
TORSDOF 8
ENDMDL
MODEL 3
REMARK VINA RESULT:      -8.5      0.438      1.228
REMARK  Name = 
REMARK  10 active torsions:
REMARK  status: ('A' for Active; 'I' for Inactive)
REMARK    1  A    between atoms: C_1  and  O_2
REMARK    2  A    between atoms: O_2  and  C_3
REMARK    3  A    between atoms: C_6  and  C_7
REMARK    4  A    between atoms: C_7  and  C_26
REMARK    5  A    between atoms: C_8  and  C_9
REMARK    6  A    between atoms: C_10  and  C_11
REMARK    7  A    between atoms: N_13  and  C_14
REMARK    8  A    between atoms: C_17  and  C_18
REMARK    9  A    between atoms: C_29  and  O_30
REMARK   10  A    between atoms: O_30  and  C_31
REMARK                            x       y       z     vdW  Elec       q    Type
REMARK                         _______ _______ _______ _____ _____    ______ ____
ROOT
ATOM      1  C   UNL     1       3.623   6.547  17.580  0.00  0.00    +0.000 C 
ATOM      2  C   UNL     1       3.192   7.814  17.401  0.00  0.00    +0.000 C 
ENDROOT
BRANCH   1   6
ATOM      3  C   UNL     1       1.567   3.812  20.191  0.00  0.00    +0.000 A 
ATOM      4  C   UNL     1       1.280   3.853  18.826  0.00  0.00    +0.000 A 
ATOM      5  C   UNL     1       1.959   4.733  17.979  0.00  0.00    +0.000 A 
ATOM      6  C   UNL     1       2.925   5.608  18.491  0.00  0.00    +0.000 A 
ATOM      7  C   UNL     1       3.208   5.571  19.862  0.00  0.00    +0.000 A 
ATOM      8  C   UNL     1       2.534   4.675  20.711  0.00  0.00    +0.000 A 
BRANCH   3  10
ATOM      9  C   UNL     1       1.395   2.395  22.087  0.00  0.00    +0.000 C 
ATOM     10  O   UNL     1       0.807   2.931  20.909  0.00  0.00    +0.000 OA
ENDBRANCH   3  10
ENDBRANCH   1   6
BRANCH   1  11
ATOM     11  C   UNL     1       4.803   6.149  16.783  0.00  0.00    +0.000 A 
ATOM     12  C   UNL     1       4.660   5.251  15.720  0.00  0.00    +0.000 A 
ATOM     13  C   UNL     1       5.777   4.855  14.981  0.00  0.00    +0.000 A 
ATOM     14  C   UNL     1       7.042   5.366  15.279  0.00  0.00    +0.000 A 
ATOM     15  C   UNL     1       7.190   6.250  16.349  0.00  0.00    +0.000 A 
ATOM     16  C   UNL     1       6.076   6.637  17.099  0.00  0.00    +0.000 A 
BRANCH  14  17
ATOM     17  O   UNL     1       8.061   4.896  14.497  0.00  0.00    +0.000 OA
ATOM     18  C   UNL     1       7.984   5.234  13.117  0.00  0.00    +0.000 C 
ENDBRANCH  14  17
ENDBRANCH   1  11
BRANCH   2  19
ATOM     19  C   UNL     1       2.144   8.445  18.167  0.00  0.00    +0.000 C 
ATOM     20  C   UNL     1       1.528   9.590  17.839  0.00  0.00    +0.000 C 
BRANCH  20  21
ATOM     21  C   UNL     1       0.482  10.051  18.785  0.00  0.00    +0.000 C 
ATOM     22  O   UNL     1       0.349   9.487  19.864  0.00  0.00    +0.000 OA
ATOM     23  N   UNL     1      -0.301  11.063  18.264  0.00  0.00    +0.000 N 
ATOM     24  H   UNL     1      -0.123  11.348  17.310  0.00  0.00    +0.000 HD
BRANCH  23  25
ATOM     25  C   UNL     1      -1.464  11.587  18.876  0.00  0.00    +0.000 A 
ATOM     26  C   UNL     1      -1.431  12.329  20.052  0.00  0.00    +0.000 A 
ATOM     27  C   UNL     1      -2.613  12.790  20.649  0.00  0.00    +0.000 A 
ATOM     28  C   UNL     1      -3.870  12.541  20.076  0.00  0.00    +0.000 A 
ATOM     29  C   UNL     1      -3.889  11.798  18.882  0.00  0.00    +0.000 A 
ATOM     30  C   UNL     1      -2.705  11.330  18.288  0.00  0.00    +0.000 A 
BRANCH  28  31
ATOM     31  C   UNL     1      -5.099  13.049  20.718  0.00  0.00    +0.000 A 
ATOM     32  C   UNL     1      -6.243  13.385  19.975  0.00  0.00    +0.000 A 
ATOM     33  C   UNL     1      -7.385  13.886  20.599  0.00  0.00    +0.000 A 
ATOM     34  C   UNL     1      -7.366  14.032  21.973  0.00  0.00    +0.000 A 
ATOM     35  N   UNL     1      -6.303  13.720  22.741  0.00  0.00    +0.000 NA
ATOM     36  C   UNL     1      -5.205  13.246  22.098  0.00  0.00    +0.000 A 
ENDBRANCH  28  31
ENDBRANCH  23  25
ENDBRANCH  20  21
ENDBRANCH   2  19
TORSDOF 8
ENDMDL
MODEL 4
REMARK VINA RESULT:      -8.4      2.375      2.750
REMARK  Name = 
REMARK  10 active torsions:
REMARK  status: ('A' for Active; 'I' for Inactive)
REMARK    1  A    between atoms: C_1  and  O_2
REMARK    2  A    between atoms: O_2  and  C_3
REMARK    3  A    between atoms: C_6  and  C_7
REMARK    4  A    between atoms: C_7  and  C_26
REMARK    5  A    between atoms: C_8  and  C_9
REMARK    6  A    between atoms: C_10  and  C_11
REMARK    7  A    between atoms: N_13  and  C_14
REMARK    8  A    between atoms: C_17  and  C_18
REMARK    9  A    between atoms: C_29  and  O_30
REMARK   10  A    between atoms: O_30  and  C_31
REMARK                            x       y       z     vdW  Elec       q    Type
REMARK                         _______ _______ _______ _____ _____    ______ ____
ROOT
ATOM      1  C   UNL     1       3.624   6.787  17.608  0.00  0.00    +0.000 C 
ATOM      2  C   UNL     1       3.275   8.083  17.460  0.00  0.00    +0.000 C 
ENDROOT
BRANCH   1   6
ATOM      3  C   UNL     1       1.353   4.116  20.105  0.00  0.00    +0.000 A 
ATOM      4  C   UNL     1       2.044   5.197  20.654  0.00  0.00    +0.000 A 
ATOM      5  C   UNL     1       2.769   6.070  19.838  0.00  0.00    +0.000 A 
ATOM      6  C   UNL     1       2.835   5.860  18.456  0.00  0.00    +0.000 A 
ATOM      7  C   UNL     1       2.146   4.771  17.906  0.00  0.00    +0.000 A 
ATOM      8  C   UNL     1       1.405   3.903  18.726  0.00  0.00    +0.000 A 
BRANCH   3  10
ATOM      9  C   UNL     1       1.532   2.475  21.810  0.00  0.00    +0.000 C 
ATOM     10  O   UNL     1       0.713   3.324  21.017  0.00  0.00    +0.000 OA
ENDBRANCH   3  10
ENDBRANCH   1   6
BRANCH   1  11
ATOM     11  C   UNL     1       4.810   6.347  16.843  0.00  0.00    +0.000 A 
ATOM     12  C   UNL     1       4.669   5.910  15.522  0.00  0.00    +0.000 A 
ATOM     13  C   UNL     1       5.785   5.471  14.805  0.00  0.00    +0.000 A 
ATOM     14  C   UNL     1       7.053   5.484  15.389  0.00  0.00    +0.000 A 
ATOM     15  C   UNL     1       7.195   5.905  16.712  0.00  0.00    +0.000 A 
ATOM     16  C   UNL     1       6.077   6.332  17.437  0.00  0.00    +0.000 A 
BRANCH  14  17
ATOM     17  O   UNL     1       8.066   5.020  14.597  0.00  0.00    +0.000 OA
ATOM     18  C   UNL     1       7.850   5.129  13.194  0.00  0.00    +0.000 C 
ENDBRANCH  14  17
ENDBRANCH   1  11
BRANCH   2  19
ATOM     19  C   UNL     1       2.236   8.748  18.208  0.00  0.00    +0.000 C 
ATOM     20  C   UNL     1       1.114   9.264  17.684  0.00  0.00    +0.000 C 
BRANCH  20  21
ATOM     21  C   UNL     1       0.190   9.908  18.650  0.00  0.00    +0.000 C 
ATOM     22  O   UNL     1      -1.009   9.949  18.407  0.00  0.00    +0.000 OA
ATOM     23  N   UNL     1       0.851  10.477  19.721  0.00  0.00    +0.000 N 
ATOM     24  H   UNL     1       1.862  10.443  19.720  0.00  0.00    +0.000 HD
BRANCH  23  25
ATOM     25  C   UNL     1       0.245  11.287  20.710  0.00  0.00    +0.000 A 
ATOM     26  C   UNL     1      -0.346  10.767  21.857  0.00  0.00    +0.000 A 
ATOM     27  C   UNL     1      -0.976  11.604  22.789  0.00  0.00    +0.000 A 
ATOM     28  C   UNL     1      -1.017  12.997  22.615  0.00  0.00    +0.000 A 
ATOM     29  C   UNL     1      -0.407  13.511  21.457  0.00  0.00    +0.000 A 
ATOM     30  C   UNL     1       0.217  12.672  20.519  0.00  0.00    +0.000 A 
BRANCH  28  31
ATOM     31  C   UNL     1      -1.675  13.857  23.619  0.00  0.00    +0.000 A 
ATOM     32  C   UNL     1      -0.981  14.873  24.297  0.00  0.00    +0.000 A 
ATOM     33  C   UNL     1      -1.616  15.658  25.259  0.00  0.00    +0.000 A 
ATOM     34  C   UNL     1      -2.952  15.419  25.519  0.00  0.00    +0.000 A 
ATOM     35  N   UNL     1      -3.673  14.465  24.896  0.00  0.00    +0.000 NA
ATOM     36  C   UNL     1      -3.019  13.712  23.974  0.00  0.00    +0.000 A 
ENDBRANCH  28  31
ENDBRANCH  23  25
ENDBRANCH  20  21
ENDBRANCH   2  19
TORSDOF 8
ENDMDL
MODEL 5
REMARK VINA RESULT:      -8.4      0.528      1.159
REMARK  Name = 
REMARK  10 active torsions:
REMARK  status: ('A' for Active; 'I' for Inactive)
REMARK    1  A    between atoms: C_1  and  O_2
REMARK    2  A    between atoms: O_2  and  C_3
REMARK    3  A    between atoms: C_6  and  C_7
REMARK    4  A    between atoms: C_7  and  C_26
REMARK    5  A    between atoms: C_8  and  C_9
REMARK    6  A    between atoms: C_10  and  C_11
REMARK    7  A    between atoms: N_13  and  C_14
REMARK    8  A    between atoms: C_17  and  C_18
REMARK    9  A    between atoms: C_29  and  O_30
REMARK   10  A    between atoms: O_30  and  C_31
REMARK                            x       y       z     vdW  Elec       q    Type
REMARK                         _______ _______ _______ _____ _____    ______ ____
ROOT
ATOM      1  C   UNL     1       3.479   6.587  17.660  0.00  0.00    +0.000 C 
ATOM      2  C   UNL     1       3.034   7.843  17.437  0.00  0.00    +0.000 C 
ENDROOT
BRANCH   1   6
ATOM      3  C   UNL     1       1.440   3.909  20.342  0.00  0.00    +0.000 A 
ATOM      4  C   UNL     1       1.311   3.775  18.959  0.00  0.00    +0.000 A 
ATOM      5  C   UNL     1       1.985   4.638  18.091  0.00  0.00    +0.000 A 
ATOM      6  C   UNL     1       2.785   5.670  18.596  0.00  0.00    +0.000 A 
ATOM      7  C   UNL     1       2.909   5.808  19.984  0.00  0.00    +0.000 A 
ATOM      8  C   UNL     1       2.242   4.929  20.856  0.00  0.00    +0.000 A 
BRANCH   3  10
ATOM      9  C   UNL     1       1.411   2.221  22.010  0.00  0.00    +0.000 C 
ATOM     10  O   UNL     1       0.701   3.022  21.074  0.00  0.00    +0.000 OA
ENDBRANCH   3  10
ENDBRANCH   1   6
BRANCH   1  11
ATOM     11  C   UNL     1       4.669   6.178  16.885  0.00  0.00    +0.000 A 
ATOM     12  C   UNL     1       4.569   5.159  15.933  0.00  0.00    +0.000 A 
ATOM     13  C   UNL     1       5.698   4.753  15.216  0.00  0.00    +0.000 A 
ATOM     14  C   UNL     1       6.931   5.374  15.426  0.00  0.00    +0.000 A 
ATOM     15  C   UNL     1       7.038   6.381  16.386  0.00  0.00    +0.000 A 
ATOM     16  C   UNL     1       5.912   6.779  17.114  0.00  0.00    +0.000 A 
BRANCH  14  17
ATOM     17  O   UNL     1       7.966   4.885  14.677  0.00  0.00    +0.000 OA
ATOM     18  C   UNL     1       7.922   5.194  13.289  0.00  0.00    +0.000 C 
ENDBRANCH  14  17
ENDBRANCH   1  11
BRANCH   2  19
ATOM     19  C   UNL     1       1.974   8.485  18.174  0.00  0.00    +0.000 C 
ATOM     20  C   UNL     1       1.431   9.674  17.872  0.00  0.00    +0.000 C 
BRANCH  20  21
ATOM     21  C   UNL     1       0.353  10.139  18.781  0.00  0.00    +0.000 C 
ATOM     22  O   UNL     1       0.255   9.656  19.901  0.00  0.00    +0.000 OA
ATOM     23  N   UNL     1      -0.494  11.050  18.182  0.00  0.00    +0.000 N 
ATOM     24  H   UNL     1      -0.333  11.269  17.207  0.00  0.00    +0.000 HD
BRANCH  23  25
ATOM     25  C   UNL     1      -1.691  11.542  18.752  0.00  0.00    +0.000 A 
ATOM     26  C   UNL     1      -2.950  11.255  18.234  0.00  0.00    +0.000 A 
ATOM     27  C   UNL     1      -4.108  11.802  18.805  0.00  0.00    +0.000 A 
ATOM     28  C   UNL     1      -4.047  12.641  19.929  0.00  0.00    +0.000 A 
ATOM     29  C   UNL     1      -2.770  12.916  20.449  0.00  0.00    +0.000 A 
ATOM     30  C   UNL     1      -1.608  12.374  19.872  0.00  0.00    +0.000 A 
BRANCH  28  31
ATOM     31  C   UNL     1      -5.283  13.193  20.519  0.00  0.00    +0.000 A 
ATOM     32  C   UNL     1      -5.876  12.634  21.663  0.00  0.00    +0.000 A 
ATOM     33  C   UNL     1      -7.057  13.157  22.190  0.00  0.00    +0.000 A 
ATOM     34  C   UNL     1      -7.624  14.249  21.562  0.00  0.00    +0.000 A 
ATOM     35  N   UNL     1      -7.100  14.833  20.466  0.00  0.00    +0.000 NA
ATOM     36  C   UNL     1      -5.956  14.291  19.974  0.00  0.00    +0.000 A 
ENDBRANCH  28  31
ENDBRANCH  23  25
ENDBRANCH  20  21
ENDBRANCH   2  19
TORSDOF 8
ENDMDL
MODEL 6
REMARK VINA RESULT:      -8.2      2.639      2.991
REMARK  Name = 
REMARK  10 active torsions:
REMARK  status: ('A' for Active; 'I' for Inactive)
REMARK    1  A    between atoms: C_1  and  O_2
REMARK    2  A    between atoms: O_2  and  C_3
REMARK    3  A    between atoms: C_6  and  C_7
REMARK    4  A    between atoms: C_7  and  C_26
REMARK    5  A    between atoms: C_8  and  C_9
REMARK    6  A    between atoms: C_10  and  C_11
REMARK    7  A    between atoms: N_13  and  C_14
REMARK    8  A    between atoms: C_17  and  C_18
REMARK    9  A    between atoms: C_29  and  O_30
REMARK   10  A    between atoms: O_30  and  C_31
REMARK                            x       y       z     vdW  Elec       q    Type
REMARK                         _______ _______ _______ _____ _____    ______ ____
ROOT
ATOM      1  C   UNL     1       3.672   6.732  17.631  0.00  0.00    +0.000 C 
ATOM      2  C   UNL     1       3.311   8.024  17.466  0.00  0.00    +0.000 C 
ENDROOT
BRANCH   1   6
ATOM      3  C   UNL     1       1.459   4.071  20.189  0.00  0.00    +0.000 A 
ATOM      4  C   UNL     1       1.413   3.934  18.801  0.00  0.00    +0.000 A 
ATOM      5  C   UNL     1       2.144   4.792  17.974  0.00  0.00    +0.000 A 
ATOM      6  C   UNL     1       2.917   5.821  18.525  0.00  0.00    +0.000 A 
ATOM      7  C   UNL     1       2.957   5.962  19.918  0.00  0.00    +0.000 A 
ATOM      8  C   UNL     1       2.233   5.089  20.749  0.00  0.00    +0.000 A 
BRANCH   3  10
ATOM      9  C   UNL     1       1.316   2.394  21.863  0.00  0.00    +0.000 C 
ATOM     10  O   UNL     1       0.672   3.190  20.877  0.00  0.00    +0.000 OA
ENDBRANCH   3  10
ENDBRANCH   1   6
BRANCH   1  11
ATOM     11  C   UNL     1       4.834   6.281  16.836  0.00  0.00    +0.000 A 
ATOM     12  C   UNL     1       4.639   5.694  15.582  0.00  0.00    +0.000 A 
ATOM     13  C   UNL     1       5.734   5.245  14.839  0.00  0.00    +0.000 A 
ATOM     14  C   UNL     1       7.033   5.397  15.330  0.00  0.00    +0.000 A 
ATOM     15  C   UNL     1       7.229   5.967  16.588  0.00  0.00    +0.000 A 
ATOM     16  C   UNL     1       6.134   6.406  17.339  0.00  0.00    +0.000 A 
BRANCH  14  17
ATOM     17  O   UNL     1       8.023   4.908  14.522  0.00  0.00    +0.000 OA
ATOM     18  C   UNL     1       7.859   5.153  13.130  0.00  0.00    +0.000 C 
ENDBRANCH  14  17
ENDBRANCH   1  11
BRANCH   2  19
ATOM     19  C   UNL     1       2.294   8.700  18.234  0.00  0.00    +0.000 C 
ATOM     20  C   UNL     1       1.230   9.335  17.720  0.00  0.00    +0.000 C 
BRANCH  20  21
ATOM     21  C   UNL     1       0.319   9.965  18.707  0.00  0.00    +0.000 C 
ATOM     22  O   UNL     1      -0.891   9.918  18.531  0.00  0.00    +0.000 OA
ATOM     23  N   UNL     1       0.997  10.628  19.712  0.00  0.00    +0.000 N 
ATOM     24  H   UNL     1       2.006  10.659  19.655  0.00  0.00    +0.000 HD
BRANCH  23  25
ATOM     25  C   UNL     1       0.393  11.446  20.696  0.00  0.00    +0.000 A 
ATOM     26  C   UNL     1      -0.552  10.969  21.600  0.00  0.00    +0.000 A 
ATOM     27  C   UNL     1      -1.159  11.826  22.529  0.00  0.00    +0.000 A 
ATOM     28  C   UNL     1      -0.826  13.188  22.599  0.00  0.00    +0.000 A 
ATOM     29  C   UNL     1       0.137  13.655  21.687  0.00  0.00    +0.000 A 
ATOM     30  C   UNL     1       0.741  12.798  20.750  0.00  0.00    +0.000 A 
BRANCH  28  31
ATOM     31  C   UNL     1      -1.471  14.065  23.596  0.00  0.00    +0.000 A 
ATOM     32  C   UNL     1      -2.673  13.712  24.231  0.00  0.00    +0.000 A 
ATOM     33  C   UNL     1      -3.277  14.566  25.153  0.00  0.00    +0.000 A 
ATOM     34  C   UNL     1      -2.656  15.768  25.434  0.00  0.00    +0.000 A 
ATOM     35  N   UNL     1      -1.499  16.160  24.863  0.00  0.00    +0.000 NA
ATOM     36  C   UNL     1      -0.945  15.308  23.963  0.00  0.00    +0.000 A 
ENDBRANCH  28  31
ENDBRANCH  23  25
ENDBRANCH  20  21
ENDBRANCH   2  19
TORSDOF 8
ENDMDL
MODEL 7
REMARK VINA RESULT:      -8.1      1.996      2.551
REMARK  Name = 
REMARK  10 active torsions:
REMARK  status: ('A' for Active; 'I' for Inactive)
REMARK    1  A    between atoms: C_1  and  O_2
REMARK    2  A    between atoms: O_2  and  C_3
REMARK    3  A    between atoms: C_6  and  C_7
REMARK    4  A    between atoms: C_7  and  C_26
REMARK    5  A    between atoms: C_8  and  C_9
REMARK    6  A    between atoms: C_10  and  C_11
REMARK    7  A    between atoms: N_13  and  C_14
REMARK    8  A    between atoms: C_17  and  C_18
REMARK    9  A    between atoms: C_29  and  O_30
REMARK   10  A    between atoms: O_30  and  C_31
REMARK                            x       y       z     vdW  Elec       q    Type
REMARK                         _______ _______ _______ _____ _____    ______ ____
ROOT
ATOM      1  C   UNL     1       3.582   6.463  17.605  0.00  0.00    +0.000 C 
ATOM      2  C   UNL     1       3.240   7.767  17.521  0.00  0.00    +0.000 C 
ENDROOT
BRANCH   1   6
ATOM      3  C   UNL     1       1.398   3.703  20.082  0.00  0.00    +0.000 A 
ATOM      4  C   UNL     1       2.434   4.475  20.610  0.00  0.00    +0.000 A 
ATOM      5  C   UNL     1       3.132   5.380  19.806  0.00  0.00    +0.000 A 
ATOM      6  C   UNL     1       2.819   5.510  18.447  0.00  0.00    +0.000 A 
ATOM      7  C   UNL     1       1.783   4.731  17.917  0.00  0.00    +0.000 A 
ATOM      8  C   UNL     1       1.072   3.832  18.731  0.00  0.00    +0.000 A 
BRANCH   3  10
ATOM      9  C   UNL     1       1.580   2.511  22.126  0.00  0.00    +0.000 C 
ATOM     10  O   UNL     1       0.822   2.836  20.968  0.00  0.00    +0.000 OA
ENDBRANCH   3  10
ENDBRANCH   1   6
BRANCH   1  11
ATOM     11  C   UNL     1       4.734   6.045  16.778  0.00  0.00    +0.000 A 
ATOM     12  C   UNL     1       5.980   6.656  16.952  0.00  0.00    +0.000 A 
ATOM     13  C   UNL     1       7.064   6.279  16.155  0.00  0.00    +0.000 A 
ATOM     14  C   UNL     1       6.923   5.276  15.194  0.00  0.00    +0.000 A 
ATOM     15  C   UNL     1       5.677   4.676  15.007  0.00  0.00    +0.000 A 
ATOM     16  C   UNL     1       4.587   5.061  15.794  0.00  0.00    +0.000 A 
BRANCH  14  17
ATOM     17  O   UNL     1       8.047   5.002  14.466  0.00  0.00    +0.000 OA
ATOM     18  C   UNL     1       7.981   5.331  13.083  0.00  0.00    +0.000 C 
ENDBRANCH  14  17
ENDBRANCH   1  11
BRANCH   2  19
ATOM     19  C   UNL     1       2.236   8.410  18.334  0.00  0.00    +0.000 C 
ATOM     20  C   UNL     1       1.704   9.618  18.095  0.00  0.00    +0.000 C 
BRANCH  20  21
ATOM     21  C   UNL     1       0.689  10.079  19.075  0.00  0.00    +0.000 C 
ATOM     22  O   UNL     1      -0.376   9.484  19.169  0.00  0.00    +0.000 OA
ATOM     23  N   UNL     1       1.070  11.232  19.734  0.00  0.00    +0.000 N 
ATOM     24  H   UNL     1       1.946  11.658  19.464  0.00  0.00    +0.000 HD
BRANCH  23  25
ATOM     25  C   UNL     1       0.242  11.980  20.604  0.00  0.00    +0.000 A 
ATOM     26  C   UNL     1      -0.159  11.514  21.853  0.00  0.00    +0.000 A 
ATOM     27  C   UNL     1      -1.019  12.270  22.663  0.00  0.00    +0.000 A 
ATOM     28  C   UNL     1      -1.489  13.530  22.259  0.00  0.00    +0.000 A 
ATOM     29  C   UNL     1      -1.068  13.993  21.000  0.00  0.00    +0.000 A 
ATOM     30  C   UNL     1      -0.213  13.232  20.184  0.00  0.00    +0.000 A 
BRANCH  28  31
ATOM     31  C   UNL     1      -2.383  14.312  23.138  0.00  0.00    +0.000 A 
ATOM     32  C   UNL     1      -2.084  14.536  24.492  0.00  0.00    +0.000 A 
ATOM     33  C   UNL     1      -2.954  15.257  25.310  0.00  0.00    +0.000 A 
ATOM     34  C   UNL     1      -4.114  15.757  24.749  0.00  0.00    +0.000 A 
ATOM     35  N   UNL     1      -4.452  15.581  23.457  0.00  0.00    +0.000 NA
ATOM     36  C   UNL     1      -3.587  14.864  22.693  0.00  0.00    +0.000 A 
ENDBRANCH  28  31
ENDBRANCH  23  25
ENDBRANCH  20  21
ENDBRANCH   2  19
TORSDOF 8
ENDMDL
MODEL 8
REMARK VINA RESULT:      -8.0      3.300     11.936
REMARK  Name = 
REMARK  10 active torsions:
REMARK  status: ('A' for Active; 'I' for Inactive)
REMARK    1  A    between atoms: C_1  and  O_2
REMARK    2  A    between atoms: O_2  and  C_3
REMARK    3  A    between atoms: C_6  and  C_7
REMARK    4  A    between atoms: C_7  and  C_26
REMARK    5  A    between atoms: C_8  and  C_9
REMARK    6  A    between atoms: C_10  and  C_11
REMARK    7  A    between atoms: N_13  and  C_14
REMARK    8  A    between atoms: C_17  and  C_18
REMARK    9  A    between atoms: C_29  and  O_30
REMARK   10  A    between atoms: O_30  and  C_31
REMARK                            x       y       z     vdW  Elec       q    Type
REMARK                         _______ _______ _______ _____ _____    ______ ____
ROOT
ATOM      1  C   UNL     1      -2.536  12.619  21.752  0.00  0.00    +0.000 C 
ATOM      2  C   UNL     1      -1.623  12.059  22.576  0.00  0.00    +0.000 C 
ENDROOT
BRANCH   1   6
ATOM      3  C   UNL     1      -2.696  11.606  17.572  0.00  0.00    +0.000 A 
ATOM      4  C   UNL     1      -1.476  11.854  18.203  0.00  0.00    +0.000 A 
ATOM      5  C   UNL     1      -1.428  12.169  19.564  0.00  0.00    +0.000 A 
ATOM      6  C   UNL     1      -2.606  12.266  20.313  0.00  0.00    +0.000 A 
ATOM      7  C   UNL     1      -3.830  12.023  19.677  0.00  0.00    +0.000 A 
ATOM      8  C   UNL     1      -3.877  11.691  18.311  0.00  0.00    +0.000 A 
BRANCH   3  10
ATOM      9  C   UNL     1      -3.658  10.581  15.659  0.00  0.00    +0.000 C 
ATOM     10  O   UNL     1      -2.604  11.342  16.233  0.00  0.00    +0.000 OA
ENDBRANCH   3  10
ENDBRANCH   1   6
BRANCH   1  11
ATOM     11  C   UNL     1      -3.478  13.567  22.383  0.00  0.00    +0.000 A 
ATOM     12  C   UNL     1      -3.335  14.942  22.172  0.00  0.00    +0.000 A 
ATOM     13  C   UNL     1      -4.209  15.842  22.787  0.00  0.00    +0.000 A 
ATOM     14  C   UNL     1      -5.246  15.379  23.599  0.00  0.00    +0.000 A 
ATOM     15  C   UNL     1      -5.382  14.009  23.825  0.00  0.00    +0.000 A 
ATOM     16  C   UNL     1      -4.500  13.107  23.221  0.00  0.00    +0.000 A 
BRANCH  14  17
ATOM     17  O   UNL     1      -6.029  16.352  24.157  0.00  0.00    +0.000 OA
ATOM     18  C   UNL     1      -5.830  17.668  23.653  0.00  0.00    +0.000 C 
ENDBRANCH  14  17
ENDBRANCH   1  11
BRANCH   2  19
ATOM     19  C   UNL     1      -0.536  11.212  22.148  0.00  0.00    +0.000 C 
ATOM     20  C   UNL     1      -0.379   9.924  22.488  0.00  0.00    +0.000 C 
BRANCH  20  21
ATOM     21  C   UNL     1       0.822   9.254  21.931  0.00  0.00    +0.000 C 
ATOM     22  O   UNL     1       1.902   9.379  22.495  0.00  0.00    +0.000 OA
ATOM     23  N   UNL     1       0.566   8.605  20.739  0.00  0.00    +0.000 N 
ATOM     24  H   UNL     1      -0.365   8.685  20.353  0.00  0.00    +0.000 HD
BRANCH  23  25
ATOM     25  C   UNL     1       1.548   8.017  19.908  0.00  0.00    +0.000 A 
ATOM     26  C   UNL     1       1.977   8.595  18.717  0.00  0.00    +0.000 A 
ATOM     27  C   UNL     1       2.920   7.953  17.901  0.00  0.00    +0.000 A 
ATOM     28  C   UNL     1       3.483   6.718  18.262  0.00  0.00    +0.000 A 
ATOM     29  C   UNL     1       3.049   6.150  19.472  0.00  0.00    +0.000 A 
ATOM     30  C   UNL     1       2.098   6.789  20.286  0.00  0.00    +0.000 A 
BRANCH  28  31
ATOM     31  C   UNL     1       4.484   6.070  17.390  0.00  0.00    +0.000 A 
ATOM     32  C   UNL     1       4.328   4.752  16.930  0.00  0.00    +0.000 A 
ATOM     33  C   UNL     1       5.298   4.151  16.128  0.00  0.00    +0.000 A 
ATOM     34  C   UNL     1       6.413   4.892  15.786  0.00  0.00    +0.000 A 
ATOM     35  N   UNL     1       6.616   6.162  16.191  0.00  0.00    +0.000 NA
ATOM     36  C   UNL     1       5.657   6.711  16.980  0.00  0.00    +0.000 A 
ENDBRANCH  28  31
ENDBRANCH  23  25
ENDBRANCH  20  21
ENDBRANCH   2  19
TORSDOF 8
ENDMDL
MODEL 9
REMARK VINA RESULT:      -8.0      1.871      2.384
REMARK  Name = 
REMARK  10 active torsions:
REMARK  status: ('A' for Active; 'I' for Inactive)
REMARK    1  A    between atoms: C_1  and  O_2
REMARK    2  A    between atoms: O_2  and  C_3
REMARK    3  A    between atoms: C_6  and  C_7
REMARK    4  A    between atoms: C_7  and  C_26
REMARK    5  A    between atoms: C_8  and  C_9
REMARK    6  A    between atoms: C_10  and  C_11
REMARK    7  A    between atoms: N_13  and  C_14
REMARK    8  A    between atoms: C_17  and  C_18
REMARK    9  A    between atoms: C_29  and  O_30
REMARK   10  A    between atoms: O_30  and  C_31
REMARK                            x       y       z     vdW  Elec       q    Type
REMARK                         _______ _______ _______ _____ _____    ______ ____
ROOT
ATOM      1  C   UNL     1       3.626   6.056  17.463  0.00  0.00    +0.000 C 
ATOM      2  C   UNL     1       3.477   7.399  17.483  0.00  0.00    +0.000 C 
ENDROOT
BRANCH   1   6
ATOM      3  C   UNL     1       1.464   3.502  20.170  0.00  0.00    +0.000 A 
ATOM      4  C   UNL     1       2.615   4.175  20.584  0.00  0.00    +0.000 A 
ATOM      5  C   UNL     1       3.306   5.014  19.706  0.00  0.00    +0.000 A 
ATOM      6  C   UNL     1       2.869   5.175  18.386  0.00  0.00    +0.000 A 
ATOM      7  C   UNL     1       1.718   4.494  17.969  0.00  0.00    +0.000 A 
ATOM      8  C   UNL     1       1.015   3.662  18.858  0.00  0.00    +0.000 A 
BRANCH   3  10
ATOM      9  C   UNL     1       1.711   2.380  22.247  0.00  0.00    +0.000 C 
ATOM     10  O   UNL     1       0.906   2.689  21.117  0.00  0.00    +0.000 OA
ENDBRANCH   3  10
ENDBRANCH   1   6
BRANCH   1  11
ATOM     11  C   UNL     1       4.553   5.526  16.442  0.00  0.00    +0.000 A 
ATOM     12  C   UNL     1       4.814   4.154  16.377  0.00  0.00    +0.000 A 
ATOM     13  C   UNL     1       5.709   3.652  15.429  0.00  0.00    +0.000 A 
ATOM     14  C   UNL     1       6.335   4.511  14.522  0.00  0.00    +0.000 A 
ATOM     15  C   UNL     1       6.090   5.882  14.595  0.00  0.00    +0.000 A 
ATOM     16  C   UNL     1       5.204   6.388  15.552  0.00  0.00    +0.000 A 
BRANCH  14  17
ATOM     17  O   UNL     1       7.200   3.909  13.650  0.00  0.00    +0.000 OA
ATOM     18  C   UNL     1       6.652   3.558  12.384  0.00  0.00    +0.000 C 
ENDBRANCH  14  17
ENDBRANCH   1  11
BRANCH   2  19
ATOM     19  C   UNL     1       2.726   8.131  18.475  0.00  0.00    +0.000 C 
ATOM     20  C   UNL     1       1.635   8.871  18.228  0.00  0.00    +0.000 C 
BRANCH  20  21
ATOM     21  C   UNL     1       1.032   9.540  19.407  0.00  0.00    +0.000 C 
ATOM     22  O   UNL     1       0.878   8.912  20.447  0.00  0.00    +0.000 OA
ATOM     23  N   UNL     1       0.628  10.834  19.138  0.00  0.00    +0.000 N 
ATOM     24  H   UNL     1       0.736  11.171  18.191  0.00  0.00    +0.000 HD
BRANCH  23  25
ATOM     25  C   UNL     1      -0.114  11.652  20.021  0.00  0.00    +0.000 A 
ATOM     26  C   UNL     1       0.453  12.286  21.123  0.00  0.00    +0.000 A 
ATOM     27  C   UNL     1      -0.331  13.051  21.998  0.00  0.00    +0.000 A 
ATOM     28  C   UNL     1      -1.709  13.225  21.789  0.00  0.00    +0.000 A 
ATOM     29  C   UNL     1      -2.267  12.588  20.668  0.00  0.00    +0.000 A 
ATOM     30  C   UNL     1      -1.484  11.814  19.794  0.00  0.00    +0.000 A 
BRANCH  28  31
ATOM     31  C   UNL     1      -2.509  14.047  22.720  0.00  0.00    +0.000 A 
ATOM     32  C   UNL     1      -2.006  14.465  23.963  0.00  0.00    +0.000 A 
ATOM     33  C   UNL     1      -2.788  15.220  24.837  0.00  0.00    +0.000 A 
ATOM     34  C   UNL     1      -4.067  15.559  24.441  0.00  0.00    +0.000 A 
ATOM     35  N   UNL     1      -4.602  15.195  23.259  0.00  0.00    +0.000 NA
ATOM     36  C   UNL     1      -3.817  14.450  22.439  0.00  0.00    +0.000 A 
ENDBRANCH  28  31
ENDBRANCH  23  25
ENDBRANCH  20  21
ENDBRANCH   2  19
TORSDOF 8
ENDMDL
