MODEL 1
REMARK VINA RESULT:      -6.5      0.000      0.000
REMARK  Name = 
REMARK  11 active torsions:
REMARK  status: ('A' for Active; 'I' for Inactive)
REMARK    1  A    between atoms: C_1  and  C_2
REMARK    2  A    between atoms: C_2  and  O_3
REMARK    3  A    between atoms: O_3  and  C_4
REMARK    4  A    between atoms: C_4  and  C_6
REMARK    5  A    between atoms: C_7  and  C_8
REMARK    6  A    between atoms: C_8  and  N_9
REMARK    7  A    between atoms: N_15  and  C_16
REMARK    8  A    between atoms: C_16  and  C_17
REMARK    9  A    between atoms: C_26  and  O_27
REMARK   10  A    between atoms: C_30  and  C_31
REMARK   11  A    between atoms: C_32  and  C_33
REMARK                            x       y       z     vdW  Elec       q    Type
REMARK                         _______ _______ _______ _____ _____    ______ ____
ROOT
ATOM      1  C   UNL     1      -5.133  13.005  22.909  0.00  0.00    +0.000 A 
ATOM      2  C   UNL     1      -3.786  13.331  23.129  0.00  0.00    +0.000 A 
ATOM      3  N   UNL     1      -3.101  12.977  21.944  0.00  0.00    +0.000 N 
ATOM      4  C   UNL     1      -4.001  12.586  20.941  0.00  0.00    +0.000 A 
ATOM      5  C   UNL     1      -5.267  12.685  21.524  0.00  0.00    +0.000 A 
ATOM      6  C   UNL     1      -6.417  12.493  20.724  0.00  0.00    +0.000 A 
ATOM      7  C   UNL     1      -6.303  12.120  19.396  0.00  0.00    +0.000 A 
ATOM      8  C   UNL     1      -5.068  11.922  18.821  0.00  0.00    +0.000 A 
ATOM      9  N   UNL     1      -5.012  11.486  17.552  0.00  0.00    +0.000 NA
ATOM     10  C   UNL     1      -3.800  11.272  17.010  0.00  0.00    +0.000 A 
ATOM     11  C   UNL     1      -3.840  10.710  15.622  0.00  0.00    +0.000 C 
ATOM     12  C   UNL     1      -2.631  11.534  17.734  0.00  0.00    +0.000 A 
ATOM     13  C   UNL     1      -1.276  11.329  17.123  0.00  0.00    +0.000 C 
ATOM     14  N   UNL     1      -2.658  11.991  19.031  0.00  0.00    +0.000 NA
ATOM     15  C   UNL     1      -3.889  12.166  19.575  0.00  0.00    +0.000 A 
ENDROOT
BRANCH   1  16
ATOM     16  C   UNL     1      -6.256  13.081  23.849  0.00  0.00    +0.000 C 
ATOM     17  O   UNL     1      -6.811  12.108  24.342  0.00  0.00    +0.000 OA
BRANCH  16  18
ATOM     18  O   UNL     1      -6.598  14.377  24.104  0.00  0.00    +0.000 OA
BRANCH  18  20
ATOM     19  C   UNL     1      -7.913  15.410  22.374  0.00  0.00    +0.000 C 
ATOM     20  C   UNL     1      -7.917  14.845  23.787  0.00  0.00    +0.000 C 
ENDBRANCH  18  20
ENDBRANCH  16  18
ENDBRANCH   1  16
BRANCH   7  21
ATOM     21  O   UNL     1      -7.449  11.938  18.660  0.00  0.00    +0.000 OA
ATOM     22  H   UNL     1      -7.485  12.589  17.944  0.00  0.00    +0.000 HD
ENDBRANCH   7  21
BRANCH   2  23
ATOM     23  C   UNL     1      -3.179  14.106  24.299  0.00  0.00    +0.000 C 
BRANCH  23  24
ATOM     24  N   UNL     1      -3.533  15.535  24.424  0.00  0.00    +0.000 NA
ATOM     25  C   UNL     1      -3.500  16.284  23.141  0.00  0.00    +0.000 C 
ATOM     26  C   UNL     1      -2.096  16.598  22.574  0.00  0.00    +0.000 C 
ATOM     27  O   UNL     1      -1.277  17.283  23.529  0.00  0.00    +0.000 OA
ATOM     28  C   UNL     1      -1.179  16.532  24.741  0.00  0.00    +0.000 C 
ATOM     29  C   UNL     1      -2.575  16.239  25.333  0.00  0.00    +0.000 C 
ENDBRANCH  23  24
ENDBRANCH   2  23
BRANCH   3  30
ATOM     30  C   UNL     1      -1.639  13.025  21.777  0.00  0.00    +0.000 C 
BRANCH  30  31
ATOM     31  C   UNL     1      -0.899  11.719  22.019  0.00  0.00    +0.000 A 
ATOM     32  C   UNL     1      -1.180  10.847  23.080  0.00  0.00    +0.000 A 
ATOM     33  C   UNL     1      -0.515   9.623  23.200  0.00  0.00    +0.000 A 
ATOM     34  C   UNL     1       0.453   9.254  22.269  0.00  0.00    +0.000 A 
ATOM     35  C   UNL     1       0.777  10.121  21.231  0.00  0.00    +0.000 A 
ATOM     36  C   UNL     1       0.111  11.345  21.110  0.00  0.00    +0.000 A 
ENDBRANCH  30  31
ENDBRANCH   3  30
TORSDOF 8
ENDMDL
MODEL 2
REMARK VINA RESULT:      -6.1      1.276      1.641
REMARK  Name = 
REMARK  11 active torsions:
REMARK  status: ('A' for Active; 'I' for Inactive)
REMARK    1  A    between atoms: C_1  and  C_2
REMARK    2  A    between atoms: C_2  and  O_3
REMARK    3  A    between atoms: O_3  and  C_4
REMARK    4  A    between atoms: C_4  and  C_6
REMARK    5  A    between atoms: C_7  and  C_8
REMARK    6  A    between atoms: C_8  and  N_9
REMARK    7  A    between atoms: N_15  and  C_16
REMARK    8  A    between atoms: C_16  and  C_17
REMARK    9  A    between atoms: C_26  and  O_27
REMARK   10  A    between atoms: C_30  and  C_31
REMARK   11  A    between atoms: C_32  and  C_33
REMARK                            x       y       z     vdW  Elec       q    Type
REMARK                         _______ _______ _______ _____ _____    ______ ____
ROOT
ATOM      1  C   UNL     1      -4.553  14.301  21.946  0.00  0.00    +0.000 A 
ATOM      2  C   UNL     1      -3.197  14.475  22.264  0.00  0.00    +0.000 A 
ATOM      3  N   UNL     1      -2.480  13.626  21.390  0.00  0.00    +0.000 N 
ATOM      4  C   UNL     1      -3.334  13.047  20.438  0.00  0.00    +0.000 A 
ATOM      5  C   UNL     1      -4.607  13.537  20.740  0.00  0.00    +0.000 A 
ATOM      6  C   UNL     1      -5.685  13.253  19.870  0.00  0.00    +0.000 A 
ATOM      7  C   UNL     1      -5.513  12.423  18.776  0.00  0.00    +0.000 A 
ATOM      8  C   UNL     1      -4.291  11.849  18.509  0.00  0.00    +0.000 A 
ATOM      9  N   UNL     1      -4.195  10.990  17.481  0.00  0.00    +0.000 NA
ATOM     10  C   UNL     1      -3.002  10.417  17.246  0.00  0.00    +0.000 A 
ATOM     11  C   UNL     1      -3.012   9.414  16.132  0.00  0.00    +0.000 C 
ATOM     12  C   UNL     1      -1.884  10.736  18.025  0.00  0.00    +0.000 A 
ATOM     13  C   UNL     1      -0.542  10.126  17.746  0.00  0.00    +0.000 C 
ATOM     14  N   UNL     1      -1.950  11.620  19.077  0.00  0.00    +0.000 NA
ATOM     15  C   UNL     1      -3.170  12.161  19.324  0.00  0.00    +0.000 A 
ENDROOT
BRANCH   1  16
ATOM     16  C   UNL     1      -5.728  14.873  22.610  0.00  0.00    +0.000 C 
ATOM     17  O   UNL     1      -6.405  15.785  22.154  0.00  0.00    +0.000 OA
BRANCH  16  18
ATOM     18  O   UNL     1      -5.971  14.253  23.802  0.00  0.00    +0.000 OA
BRANCH  18  20
ATOM     19  C   UNL     1      -7.637  12.542  23.510  0.00  0.00    +0.000 C 
ATOM     20  C   UNL     1      -6.180  12.835  23.841  0.00  0.00    +0.000 C 
ENDBRANCH  18  20
ENDBRANCH  16  18
ENDBRANCH   1  16
BRANCH   7  21
ATOM     21  O   UNL     1      -6.593  12.170  17.964  0.00  0.00    +0.000 OA
ATOM     22  H   UNL     1      -6.288  11.824  17.112  0.00  0.00    +0.000 HD
ENDBRANCH   7  21
BRANCH   2  23
ATOM     23  C   UNL     1      -2.570  15.510  23.197  0.00  0.00    +0.000 C 
BRANCH  23  24
ATOM     24  N   UNL     1      -2.895  15.413  24.635  0.00  0.00    +0.000 NA
ATOM     25  C   UNL     1      -3.637  16.585  25.171  0.00  0.00    +0.000 C 
ATOM     26  C   UNL     1      -2.814  17.880  25.360  0.00  0.00    +0.000 C 
ATOM     27  O   UNL     1      -1.653  17.660  26.171  0.00  0.00    +0.000 OA
ATOM     28  C   UNL     1      -0.843  16.619  25.619  0.00  0.00    +0.000 C 
ATOM     29  C   UNL     1      -1.646  15.311  25.454  0.00  0.00    +0.000 C 
ENDBRANCH  23  24
ENDBRANCH   2  23
BRANCH   3  30
ATOM     30  C   UNL     1      -1.029  13.388  21.459  0.00  0.00    +0.000 C 
BRANCH  30  31
ATOM     31  C   UNL     1      -0.603  12.001  21.913  0.00  0.00    +0.000 A 
ATOM     32  C   UNL     1      -1.225  11.293  22.950  0.00  0.00    +0.000 A 
ATOM     33  C   UNL     1      -0.835   9.988  23.265  0.00  0.00    +0.000 A 
ATOM     34  C   UNL     1       0.195   9.372  22.558  0.00  0.00    +0.000 A 
ATOM     35  C   UNL     1       0.854  10.070  21.552  0.00  0.00    +0.000 A 
ATOM     36  C   UNL     1       0.463  11.374  21.236  0.00  0.00    +0.000 A 
ENDBRANCH  30  31
ENDBRANCH   3  30
TORSDOF 8
ENDMDL
MODEL 3
REMARK VINA RESULT:      -6.1      1.136      1.405
REMARK  Name = 
REMARK  11 active torsions:
REMARK  status: ('A' for Active; 'I' for Inactive)
REMARK    1  A    between atoms: C_1  and  C_2
REMARK    2  A    between atoms: C_2  and  O_3
REMARK    3  A    between atoms: O_3  and  C_4
REMARK    4  A    between atoms: C_4  and  C_6
REMARK    5  A    between atoms: C_7  and  C_8
REMARK    6  A    between atoms: C_8  and  N_9
REMARK    7  A    between atoms: N_15  and  C_16
REMARK    8  A    between atoms: C_16  and  C_17
REMARK    9  A    between atoms: C_26  and  O_27
REMARK   10  A    between atoms: C_30  and  C_31
REMARK   11  A    between atoms: C_32  and  C_33
REMARK                            x       y       z     vdW  Elec       q    Type
REMARK                         _______ _______ _______ _____ _____    ______ ____
ROOT
ATOM      1  C   UNL     1      -4.319  13.995  22.586  0.00  0.00    +0.000 A 
ATOM      2  C   UNL     1      -2.938  14.108  22.812  0.00  0.00    +0.000 A 
ATOM      3  N   UNL     1      -2.313  13.361  21.788  0.00  0.00    +0.000 N 
ATOM      4  C   UNL     1      -3.253  12.915  20.846  0.00  0.00    +0.000 A 
ATOM      5  C   UNL     1      -4.486  13.383  21.306  0.00  0.00    +0.000 A 
ATOM      6  C   UNL     1      -5.636  13.222  20.498  0.00  0.00    +0.000 A 
ATOM      7  C   UNL     1      -5.571  12.529  19.303  0.00  0.00    +0.000 A 
ATOM      8  C   UNL     1      -4.388  11.974  18.871  0.00  0.00    +0.000 A 
ATOM      9  N   UNL     1      -4.394  11.245  17.743  0.00  0.00    +0.000 NA
ATOM     10  C   UNL     1      -3.237  10.687  17.345  0.00  0.00    +0.000 A 
ATOM     11  C   UNL     1      -3.359   9.827  16.124  0.00  0.00    +0.000 C 
ATOM     12  C   UNL     1      -2.053  10.893  18.064  0.00  0.00    +0.000 A 
ATOM     13  C   UNL     1      -0.753  10.301  17.606  0.00  0.00    +0.000 C 
ATOM     14  N   UNL     1      -2.015  11.643  19.216  0.00  0.00    +0.000 NA
ATOM     15  C   UNL     1      -3.199  12.169  19.624  0.00  0.00    +0.000 A 
ENDROOT
BRANCH   1  16
ATOM     16  C   UNL     1      -5.424  14.499  23.407  0.00  0.00    +0.000 C 
ATOM     17  O   UNL     1      -5.703  15.683  23.539  0.00  0.00    +0.000 OA
BRANCH  16  18
ATOM     18  O   UNL     1      -6.103  13.475  24.002  0.00  0.00    +0.000 OA
BRANCH  18  20
ATOM     19  C   UNL     1      -7.917  12.079  23.260  0.00  0.00    +0.000 C 
ATOM     20  C   UNL     1      -7.532  13.407  23.896  0.00  0.00    +0.000 C 
ENDBRANCH  18  20
ENDBRANCH  16  18
ENDBRANCH   1  16
BRANCH   7  21
ATOM     21  O   UNL     1      -6.716  12.392  18.556  0.00  0.00    +0.000 OA
ATOM     22  H   UNL     1      -6.542  12.650  17.639  0.00  0.00    +0.000 HD
ENDBRANCH   7  21
BRANCH   2  23
ATOM     23  C   UNL     1      -2.215  15.013  23.809  0.00  0.00    +0.000 C 
BRANCH  23  24
ATOM     24  N   UNL     1      -2.345  16.473  23.620  0.00  0.00    +0.000 NA
ATOM     25  C   UNL     1      -2.093  16.932  22.229  0.00  0.00    +0.000 C 
ATOM     26  C   UNL     1      -0.617  16.922  21.768  0.00  0.00    +0.000 C 
ATOM     27  O   UNL     1       0.223  17.667  22.658  0.00  0.00    +0.000 OA
ATOM     28  C   UNL     1       0.105  17.174  23.995  0.00  0.00    +0.000 C 
ATOM     29  C   UNL     1      -1.362  17.207  24.477  0.00  0.00    +0.000 C 
ENDBRANCH  23  24
ENDBRANCH   2  23
BRANCH   3  30
ATOM     30  C   UNL     1      -0.867  13.096  21.710  0.00  0.00    +0.000 C 
BRANCH  30  31
ATOM     31  C   UNL     1      -0.435  11.672  22.022  0.00  0.00    +0.000 A 
ATOM     32  C   UNL     1      -0.989  10.894  23.048  0.00  0.00    +0.000 A 
ATOM     33  C   UNL     1      -0.601   9.564  23.230  0.00  0.00    +0.000 A 
ATOM     34  C   UNL     1       0.359   8.990  22.400  0.00  0.00    +0.000 A 
ATOM     35  C   UNL     1       0.951   9.755  21.401  0.00  0.00    +0.000 A 
ATOM     36  C   UNL     1       0.562  11.085  21.217  0.00  0.00    +0.000 A 
ENDBRANCH  30  31
ENDBRANCH   3  30
TORSDOF 8
ENDMDL
MODEL 4
REMARK VINA RESULT:      -6.0      9.628     12.784
REMARK  Name = 
REMARK  11 active torsions:
REMARK  status: ('A' for Active; 'I' for Inactive)
REMARK    1  A    between atoms: C_1  and  C_2
REMARK    2  A    between atoms: C_2  and  O_3
REMARK    3  A    between atoms: O_3  and  C_4
REMARK    4  A    between atoms: C_4  and  C_6
REMARK    5  A    between atoms: C_7  and  C_8
REMARK    6  A    between atoms: C_8  and  N_9
REMARK    7  A    between atoms: N_15  and  C_16
REMARK    8  A    between atoms: C_16  and  C_17
REMARK    9  A    between atoms: C_26  and  O_27
REMARK   10  A    between atoms: C_30  and  C_31
REMARK   11  A    between atoms: C_32  and  C_33
REMARK                            x       y       z     vdW  Elec       q    Type
REMARK                         _______ _______ _______ _____ _____    ______ ____
ROOT
ATOM      1  C   UNL     1       6.682  15.733  19.552  0.00  0.00    +0.000 A 
ATOM      2  C   UNL     1       8.034  15.355  19.547  0.00  0.00    +0.000 A 
ATOM      3  N   UNL     1       8.304  14.853  20.841  0.00  0.00    +0.000 N 
ATOM      4  C   UNL     1       7.128  14.764  21.601  0.00  0.00    +0.000 A 
ATOM      5  C   UNL     1       6.112  15.236  20.764  0.00  0.00    +0.000 A 
ATOM      6  C   UNL     1       4.766  15.144  21.186  0.00  0.00    +0.000 A 
ATOM      7  C   UNL     1       4.449  14.678  22.450  0.00  0.00    +0.000 A 
ATOM      8  C   UNL     1       5.435  14.297  23.330  0.00  0.00    +0.000 A 
ATOM      9  N   UNL     1       5.081  13.925  24.571  0.00  0.00    +0.000 NA
ATOM     10  C   UNL     1       6.056  13.579  25.430  0.00  0.00    +0.000 A 
ATOM     11  C   UNL     1       5.571  13.259  26.811  0.00  0.00    +0.000 C 
ATOM     12  C   UNL     1       7.397  13.568  25.030  0.00  0.00    +0.000 A 
ATOM     13  C   UNL     1       8.486  13.149  25.974  0.00  0.00    +0.000 C 
ATOM     14  N   UNL     1       7.788  13.933  23.763  0.00  0.00    +0.000 NA
ATOM     15  C   UNL     1       6.795  14.315  22.920  0.00  0.00    +0.000 A 
ENDROOT
BRANCH   1  16
ATOM     16  C   UNL     1       5.916  16.399  18.495  0.00  0.00    +0.000 C 
ATOM     17  O   UNL     1       5.840  17.612  18.356  0.00  0.00    +0.000 OA
BRANCH  16  18
ATOM     18  O   UNL     1       5.302  15.489  17.684  0.00  0.00    +0.000 OA
BRANCH  18  20
ATOM     19  C   UNL     1       3.200  14.394  18.101  0.00  0.00    +0.000 C 
ATOM     20  C   UNL     1       3.891  15.581  17.444  0.00  0.00    +0.000 C 
ENDBRANCH  18  20
ENDBRANCH  16  18
ENDBRANCH   1  16
BRANCH   7  21
ATOM     21  O   UNL     1       3.126  14.614  22.817  0.00  0.00    +0.000 OA
ATOM     22  H   UNL     1       3.052  14.250  23.711  0.00  0.00    +0.000 HD
ENDBRANCH   7  21
BRANCH   2  23
ATOM     23  C   UNL     1       8.990  15.280  18.357  0.00  0.00    +0.000 C 
BRANCH  23  24
ATOM     24  N   UNL     1       9.429  16.557  17.757  0.00  0.00    +0.000 NA
ATOM     25  C   UNL     1      10.560  16.423  16.802  0.00  0.00    +0.000 C 
ATOM     26  C   UNL     1      11.947  16.146  17.427  0.00  0.00    +0.000 C 
ATOM     27  O   UNL     1      12.292  17.125  18.414  0.00  0.00    +0.000 OA
ATOM     28  C   UNL     1      11.284  17.198  19.426  0.00  0.00    +0.000 C 
ATOM     29  C   UNL     1       9.899  17.504  18.816  0.00  0.00    +0.000 C 
ENDBRANCH  23  24
ENDBRANCH   2  23
BRANCH   3  30
ATOM     30  C   UNL     1       9.638  14.462  21.324  0.00  0.00    +0.000 C 
BRANCH  30  31
ATOM     31  C   UNL     1      10.316  13.332  20.567  0.00  0.00    +0.000 A 
ATOM     32  C   UNL     1       9.713  12.094  20.306  0.00  0.00    +0.000 A 
ATOM     33  C   UNL     1      10.362  11.126  19.535  0.00  0.00    +0.000 A 
ATOM     34  C   UNL     1      11.633  11.372  19.020  0.00  0.00    +0.000 A 
ATOM     35  C   UNL     1      12.267  12.577  19.300  0.00  0.00    +0.000 A 
ATOM     36  C   UNL     1      11.617  13.547  20.070  0.00  0.00    +0.000 A 
ENDBRANCH  30  31
ENDBRANCH   3  30
TORSDOF 8
ENDMDL
MODEL 5
REMARK VINA RESULT:      -6.0      2.612      5.141
REMARK  Name = 
REMARK  11 active torsions:
REMARK  status: ('A' for Active; 'I' for Inactive)
REMARK    1  A    between atoms: C_1  and  C_2
REMARK    2  A    between atoms: C_2  and  O_3
REMARK    3  A    between atoms: O_3  and  C_4
REMARK    4  A    between atoms: C_4  and  C_6
REMARK    5  A    between atoms: C_7  and  C_8
REMARK    6  A    between atoms: C_8  and  N_9
REMARK    7  A    between atoms: N_15  and  C_16
REMARK    8  A    between atoms: C_16  and  C_17
REMARK    9  A    between atoms: C_26  and  O_27
REMARK   10  A    between atoms: C_30  and  C_31
REMARK   11  A    between atoms: C_32  and  C_33
REMARK                            x       y       z     vdW  Elec       q    Type
REMARK                         _______ _______ _______ _____ _____    ______ ____
ROOT
ATOM      1  C   UNL     1      -2.134  13.085  22.431  0.00  0.00    +0.000 A 
ATOM      2  C   UNL     1      -2.402  13.514  21.121  0.00  0.00    +0.000 A 
ATOM      3  N   UNL     1      -1.656  12.664  20.273  0.00  0.00    +0.000 N 
ATOM      4  C   UNL     1      -1.056  11.626  21.002  0.00  0.00    +0.000 A 
ATOM      5  C   UNL     1      -1.427  11.848  22.331  0.00  0.00    +0.000 A 
ATOM      6  C   UNL     1      -1.098  10.887  23.314  0.00  0.00    +0.000 A 
ATOM      7  C   UNL     1      -0.337   9.776  22.993  0.00  0.00    +0.000 A 
ATOM      8  C   UNL     1       0.123   9.581  21.711  0.00  0.00    +0.000 A 
ATOM      9  N   UNL     1       0.921   8.528  21.467  0.00  0.00    +0.000 NA
ATOM     10  C   UNL     1       1.384   8.363  20.216  0.00  0.00    +0.000 A 
ATOM     11  C   UNL     1       2.330   7.211  20.060  0.00  0.00    +0.000 C 
ATOM     12  C   UNL     1       1.013   9.238  19.189  0.00  0.00    +0.000 A 
ATOM     13  C   UNL     1       1.499   9.039  17.784  0.00  0.00    +0.000 C 
ATOM     14  N   UNL     1       0.189  10.317  19.407  0.00  0.00    +0.000 NA
ATOM     15  C   UNL     1      -0.240  10.492  20.683  0.00  0.00    +0.000 A 
ENDROOT
BRANCH   1  16
ATOM     16  C   UNL     1      -2.577  13.680  23.695  0.00  0.00    +0.000 C 
ATOM     17  O   UNL     1      -1.982  14.571  24.286  0.00  0.00    +0.000 OA
BRANCH  16  18
ATOM     18  O   UNL     1      -3.743  13.113  24.125  0.00  0.00    +0.000 OA
BRANCH  18  20
ATOM     19  C   UNL     1      -5.863  12.953  22.999  0.00  0.00    +0.000 C 
ATOM     20  C   UNL     1      -4.988  13.794  23.918  0.00  0.00    +0.000 C 
ENDBRANCH  18  20
ENDBRANCH  16  18
ENDBRANCH   1  16
BRANCH   7  21
ATOM     21  O   UNL     1      -0.037   8.872  23.985  0.00  0.00    +0.000 OA
ATOM     22  H   UNL     1       0.833   8.480  23.818  0.00  0.00    +0.000 HD
ENDBRANCH   7  21
BRANCH   2  23
ATOM     23  C   UNL     1      -3.438  14.535  20.654  0.00  0.00    +0.000 C 
BRANCH  23  24
ATOM     24  N   UNL     1      -3.476  15.835  21.355  0.00  0.00    +0.000 NA
ATOM     25  C   UNL     1      -4.608  16.710  20.954  0.00  0.00    +0.000 C 
ATOM     26  C   UNL     1      -4.494  17.372  19.561  0.00  0.00    +0.000 C 
ATOM     27  O   UNL     1      -3.272  18.106  19.419  0.00  0.00    +0.000 OA
ATOM     28  C   UNL     1      -2.145  17.264  19.675  0.00  0.00    +0.000 C 
ATOM     29  C   UNL     1      -2.233  16.621  21.076  0.00  0.00    +0.000 C 
ENDBRANCH  23  24
ENDBRANCH   2  23
BRANCH   3  30
ATOM     30  C   UNL     1      -1.533  12.835  18.816  0.00  0.00    +0.000 C 
BRANCH  30  31
ATOM     31  C   UNL     1      -2.436  11.957  17.965  0.00  0.00    +0.000 A 
ATOM     32  C   UNL     1      -3.785  11.709  18.256  0.00  0.00    +0.000 A 
ATOM     33  C   UNL     1      -4.581  10.956  17.388  0.00  0.00    +0.000 A 
ATOM     34  C   UNL     1      -4.041  10.425  16.220  0.00  0.00    +0.000 A 
ATOM     35  C   UNL     1      -2.695  10.624  15.931  0.00  0.00    +0.000 A 
ATOM     36  C   UNL     1      -1.899  11.378  16.798  0.00  0.00    +0.000 A 
ENDBRANCH  30  31
ENDBRANCH   3  30
TORSDOF 8
ENDMDL
MODEL 6
REMARK VINA RESULT:      -6.0      2.516      5.445
REMARK  Name = 
REMARK  11 active torsions:
REMARK  status: ('A' for Active; 'I' for Inactive)
REMARK    1  A    between atoms: C_1  and  C_2
REMARK    2  A    between atoms: C_2  and  O_3
REMARK    3  A    between atoms: O_3  and  C_4
REMARK    4  A    between atoms: C_4  and  C_6
REMARK    5  A    between atoms: C_7  and  C_8
REMARK    6  A    between atoms: C_8  and  N_9
REMARK    7  A    between atoms: N_15  and  C_16
REMARK    8  A    between atoms: C_16  and  C_17
REMARK    9  A    between atoms: C_26  and  O_27
REMARK   10  A    between atoms: C_30  and  C_31
REMARK   11  A    between atoms: C_32  and  C_33
REMARK                            x       y       z     vdW  Elec       q    Type
REMARK                         _______ _______ _______ _____ _____    ______ ____
ROOT
ATOM      1  C   UNL     1      -2.015  13.277  22.406  0.00  0.00    +0.000 A 
ATOM      2  C   UNL     1      -2.291  13.676  21.089  0.00  0.00    +0.000 A 
ATOM      3  N   UNL     1      -1.577  12.786  20.255  0.00  0.00    +0.000 N 
ATOM      4  C   UNL     1      -0.991  11.755  21.005  0.00  0.00    +0.000 A 
ATOM      5  C   UNL     1      -1.337  12.022  22.332  0.00  0.00    +0.000 A 
ATOM      6  C   UNL     1      -1.016  11.081  23.337  0.00  0.00    +0.000 A 
ATOM      7  C   UNL     1      -0.285   9.945  23.037  0.00  0.00    +0.000 A 
ATOM      8  C   UNL     1       0.152   9.704  21.754  0.00  0.00    +0.000 A 
ATOM      9  N   UNL     1       0.923   8.627  21.529  0.00  0.00    +0.000 NA
ATOM     10  C   UNL     1       1.364   8.416  20.277  0.00  0.00    +0.000 A 
ATOM     11  C   UNL     1       2.282   7.240  20.140  0.00  0.00    +0.000 C 
ATOM     12  C   UNL     1       0.998   9.272  19.231  0.00  0.00    +0.000 A 
ATOM     13  C   UNL     1       1.460   9.023  17.825  0.00  0.00    +0.000 C 
ATOM     14  N   UNL     1       0.202  10.375  19.430  0.00  0.00    +0.000 NA
ATOM     15  C   UNL     1      -0.205  10.594  20.706  0.00  0.00    +0.000 A 
ENDROOT
BRANCH   1  16
ATOM     16  C   UNL     1      -2.427  13.917  23.660  0.00  0.00    +0.000 C 
ATOM     17  O   UNL     1      -1.670  14.519  24.409  0.00  0.00    +0.000 OA
BRANCH  16  18
ATOM     18  O   UNL     1      -3.765  13.757  23.878  0.00  0.00    +0.000 OA
BRANCH  18  20
ATOM     19  C   UNL     1      -5.746  12.482  24.366  0.00  0.00    +0.000 C 
ATOM     20  C   UNL     1      -4.243  12.596  24.572  0.00  0.00    +0.000 C 
ENDBRANCH  18  20
ENDBRANCH  16  18
ENDBRANCH   1  16
BRANCH   7  21
ATOM     21  O   UNL     1       0.008   9.062  24.049  0.00  0.00    +0.000 OA
ATOM     22  H   UNL     1      -0.033   9.518  24.902  0.00  0.00    +0.000 HD
ENDBRANCH   7  21
BRANCH   2  23
ATOM     23  C   UNL     1      -3.311  14.707  20.607  0.00  0.00    +0.000 C 
BRANCH  23  24
ATOM     24  N   UNL     1      -4.648  14.686  21.237  0.00  0.00    +0.000 NA
ATOM     25  C   UNL     1      -5.592  13.712  20.628  0.00  0.00    +0.000 C 
ATOM     26  C   UNL     1      -6.160  14.094  19.242  0.00  0.00    +0.000 C 
ATOM     27  O   UNL     1      -6.779  15.386  19.257  0.00  0.00    +0.000 OA
ATOM     28  C   UNL     1      -5.861  16.379  19.721  0.00  0.00    +0.000 C 
ATOM     29  C   UNL     1      -5.309  16.023  21.119  0.00  0.00    +0.000 C 
ENDBRANCH  23  24
ENDBRANCH   2  23
BRANCH   3  30
ATOM     30  C   UNL     1      -1.471  12.914  18.792  0.00  0.00    +0.000 C 
BRANCH  30  31
ATOM     31  C   UNL     1      -2.294  11.930  17.977  0.00  0.00    +0.000 A 
ATOM     32  C   UNL     1      -1.832  11.303  16.811  0.00  0.00    +0.000 A 
ATOM     33  C   UNL     1      -2.611  10.347  16.152  0.00  0.00    +0.000 A 
ATOM     34  C   UNL     1      -3.872  10.010  16.638  0.00  0.00    +0.000 A 
ATOM     35  C   UNL     1      -4.367  10.649  17.770  0.00  0.00    +0.000 A 
ATOM     36  C   UNL     1      -3.588  11.604  18.430  0.00  0.00    +0.000 A 
ENDBRANCH  30  31
ENDBRANCH   3  30
TORSDOF 8
ENDMDL
MODEL 7
REMARK VINA RESULT:      -6.0      2.378      5.397
REMARK  Name = 
REMARK  11 active torsions:
REMARK  status: ('A' for Active; 'I' for Inactive)
REMARK    1  A    between atoms: C_1  and  C_2
REMARK    2  A    between atoms: C_2  and  O_3
REMARK    3  A    between atoms: O_3  and  C_4
REMARK    4  A    between atoms: C_4  and  C_6
REMARK    5  A    between atoms: C_7  and  C_8
REMARK    6  A    between atoms: C_8  and  N_9
REMARK    7  A    between atoms: N_15  and  C_16
REMARK    8  A    between atoms: C_16  and  C_17
REMARK    9  A    between atoms: C_26  and  O_27
REMARK   10  A    between atoms: C_30  and  C_31
REMARK   11  A    between atoms: C_32  and  C_33
REMARK                            x       y       z     vdW  Elec       q    Type
REMARK                         _______ _______ _______ _____ _____    ______ ____
ROOT
ATOM      1  C   UNL     1      -2.326  13.021  22.548  0.00  0.00    +0.000 A 
ATOM      2  C   UNL     1      -2.622  13.472  21.252  0.00  0.00    +0.000 A 
ATOM      3  N   UNL     1      -1.855  12.670  20.376  0.00  0.00    +0.000 N 
ATOM      4  C   UNL     1      -1.211  11.637  21.074  0.00  0.00    +0.000 A 
ATOM      5  C   UNL     1      -1.575  11.814  22.411  0.00  0.00    +0.000 A 
ATOM      6  C   UNL     1      -1.202  10.841  23.367  0.00  0.00    +0.000 A 
ATOM      7  C   UNL     1      -0.405   9.767  23.012  0.00  0.00    +0.000 A 
ATOM      8  C   UNL     1       0.048   9.620  21.721  0.00  0.00    +0.000 A 
ATOM      9  N   UNL     1       0.881   8.603  21.444  0.00  0.00    +0.000 NA
ATOM     10  C   UNL     1       1.336   8.484  20.184  0.00  0.00    +0.000 A 
ATOM     11  C   UNL     1       2.321   7.372  19.991  0.00  0.00    +0.000 C 
ATOM     12  C   UNL     1       0.923   9.371  19.183  0.00  0.00    +0.000 A 
ATOM     13  C   UNL     1       1.401   9.223  17.768  0.00  0.00    +0.000 C 
ATOM     14  N   UNL     1       0.063  10.414  19.435  0.00  0.00    +0.000 NA
ATOM     15  C   UNL     1      -0.359  10.541  20.719  0.00  0.00    +0.000 A 
ENDROOT
BRANCH   1  16
ATOM     16  C   UNL     1      -2.777  13.569  23.831  0.00  0.00    +0.000 C 
ATOM     17  O   UNL     1      -3.705  13.117  24.488  0.00  0.00    +0.000 OA
BRANCH  16  18
ATOM     18  O   UNL     1      -2.022  14.646  24.200  0.00  0.00    +0.000 OA
BRANCH  18  20
ATOM     19  C   UNL     1      -2.114  16.879  23.309  0.00  0.00    +0.000 C 
ATOM     20  C   UNL     1      -2.642  15.927  24.373  0.00  0.00    +0.000 C 
ENDBRANCH  18  20
ENDBRANCH  16  18
ENDBRANCH   1  16
BRANCH   7  21
ATOM     21  O   UNL     1      -0.062   8.851  23.978  0.00  0.00    +0.000 OA
ATOM     22  H   UNL     1      -0.816   8.699  24.567  0.00  0.00    +0.000 HD
ENDBRANCH   7  21
BRANCH   2  23
ATOM     23  C   UNL     1      -3.700  14.466  20.820  0.00  0.00    +0.000 C 
BRANCH  23  24
ATOM     24  N   UNL     1      -4.981  13.911  20.335  0.00  0.00    +0.000 NA
ATOM     25  C   UNL     1      -5.943  14.935  19.850  0.00  0.00    +0.000 C 
ATOM     26  C   UNL     1      -6.632  15.788  20.941  0.00  0.00    +0.000 C 
ATOM     27  O   UNL     1      -7.283  14.973  21.922  0.00  0.00    +0.000 OA
ATOM     28  C   UNL     1      -6.358  14.052  22.507  0.00  0.00    +0.000 C 
ATOM     29  C   UNL     1      -5.686  13.173  21.429  0.00  0.00    +0.000 C 
ENDBRANCH  23  24
ENDBRANCH   2  23
BRANCH   3  30
ATOM     30  C   UNL     1      -1.754  12.881  18.923  0.00  0.00    +0.000 C 
BRANCH  30  31
ATOM     31  C   UNL     1      -2.541  11.913  18.054  0.00  0.00    +0.000 A 
ATOM     32  C   UNL     1      -3.857  11.513  18.324  0.00  0.00    +0.000 A 
ATOM     33  C   UNL     1      -4.551  10.681  17.441  0.00  0.00    +0.000 A 
ATOM     34  C   UNL     1      -3.938  10.221  16.278  0.00  0.00    +0.000 A 
ATOM     35  C   UNL     1      -2.619  10.572  16.010  0.00  0.00    +0.000 A 
ATOM     36  C   UNL     1      -1.925  11.406  16.892  0.00  0.00    +0.000 A 
ENDBRANCH  30  31
ENDBRANCH   3  30
TORSDOF 8
ENDMDL
MODEL 8
REMARK VINA RESULT:      -6.0      2.670      4.816
REMARK  Name = 
REMARK  11 active torsions:
REMARK  status: ('A' for Active; 'I' for Inactive)
REMARK    1  A    between atoms: C_1  and  C_2
REMARK    2  A    between atoms: C_2  and  O_3
REMARK    3  A    between atoms: O_3  and  C_4
REMARK    4  A    between atoms: C_4  and  C_6
REMARK    5  A    between atoms: C_7  and  C_8
REMARK    6  A    between atoms: C_8  and  N_9
REMARK    7  A    between atoms: N_15  and  C_16
REMARK    8  A    between atoms: C_16  and  C_17
REMARK    9  A    between atoms: C_26  and  O_27
REMARK   10  A    between atoms: C_30  and  C_31
REMARK   11  A    between atoms: C_32  and  C_33
REMARK                            x       y       z     vdW  Elec       q    Type
REMARK                         _______ _______ _______ _____ _____    ______ ____
ROOT
ATOM      1  C   UNL     1      -5.612  12.482  19.119  0.00  0.00    +0.000 A 
ATOM      2  C   UNL     1      -5.172  13.508  19.969  0.00  0.00    +0.000 A 
ATOM      3  N   UNL     1      -3.785  13.298  20.148  0.00  0.00    +0.000 N 
ATOM      4  C   UNL     1      -3.321  12.269  19.314  0.00  0.00    +0.000 A 
ATOM      5  C   UNL     1      -4.448  11.823  18.618  0.00  0.00    +0.000 A 
ATOM      6  C   UNL     1      -4.293  10.874  17.582  0.00  0.00    +0.000 A 
ATOM      7  C   UNL     1      -3.057  10.316  17.310  0.00  0.00    +0.000 A 
ATOM      8  C   UNL     1      -1.947  10.665  18.044  0.00  0.00    +0.000 A 
ATOM      9  N   UNL     1      -0.786  10.039  17.793  0.00  0.00    +0.000 NA
ATOM     10  C   UNL     1       0.286  10.371  18.533  0.00  0.00    +0.000 A 
ATOM     11  C   UNL     1       1.512   9.563  18.236  0.00  0.00    +0.000 C 
ATOM     12  C   UNL     1       0.203  11.370  19.511  0.00  0.00    +0.000 A 
ATOM     13  C   UNL     1       1.404  11.770  20.317  0.00  0.00    +0.000 C 
ATOM     14  N   UNL     1      -0.969  12.036  19.783  0.00  0.00    +0.000 NA
ATOM     15  C   UNL     1      -2.050  11.662  19.051  0.00  0.00    +0.000 A 
ENDROOT
BRANCH   1  16
ATOM     16  C   UNL     1      -6.980  12.177  18.688  0.00  0.00    +0.000 C 
ATOM     17  O   UNL     1      -7.409  12.374  17.559  0.00  0.00    +0.000 OA
BRANCH  16  18
ATOM     18  O   UNL     1      -7.709  11.639  19.709  0.00  0.00    +0.000 OA
BRANCH  18  20
ATOM     19  C   UNL     1      -7.183   9.299  19.521  0.00  0.00    +0.000 C 
ATOM     20  C   UNL     1      -7.199  10.514  20.437  0.00  0.00    +0.000 C 
ENDBRANCH  18  20
ENDBRANCH  16  18
ENDBRANCH   1  16
BRANCH   7  21
ATOM     21  O   UNL     1      -2.958   9.392  16.297  0.00  0.00    +0.000 OA
ATOM     22  H   UNL     1      -3.423   9.715  15.512  0.00  0.00    +0.000 HD
ENDBRANCH   7  21
BRANCH   2  23
ATOM     23  C   UNL     1      -5.945  14.736  20.449  0.00  0.00    +0.000 C 
BRANCH  23  24
ATOM     24  N   UNL     1      -5.995  15.904  19.545  0.00  0.00    +0.000 NA
ATOM     25  C   UNL     1      -5.008  16.967  19.869  0.00  0.00    +0.000 C 
ATOM     26  C   UNL     1      -5.316  17.820  21.121  0.00  0.00    +0.000 C 
ATOM     27  O   UNL     1      -6.621  18.408  21.057  0.00  0.00    +0.000 OA
ATOM     28  C   UNL     1      -7.619  17.401  20.871  0.00  0.00    +0.000 C 
ATOM     29  C   UNL     1      -7.338  16.561  19.606  0.00  0.00    +0.000 C 
ENDBRANCH  23  24
ENDBRANCH   2  23
BRANCH   3  30
ATOM     30  C   UNL     1      -2.936  14.065  21.074  0.00  0.00    +0.000 C 
BRANCH  30  31
ATOM     31  C   UNL     1      -3.194  13.838  22.555  0.00  0.00    +0.000 A 
ATOM     32  C   UNL     1      -3.047  14.830  23.535  0.00  0.00    +0.000 A 
ATOM     33  C   UNL     1      -3.377  14.577  24.869  0.00  0.00    +0.000 A 
ATOM     34  C   UNL     1      -3.846  13.323  25.253  0.00  0.00    +0.000 A 
ATOM     35  C   UNL     1      -3.961  12.311  24.305  0.00  0.00    +0.000 A 
ATOM     36  C   UNL     1      -3.632  12.565  22.970  0.00  0.00    +0.000 A 
ENDBRANCH  30  31
ENDBRANCH   3  30
TORSDOF 8
ENDMDL
MODEL 9
REMARK VINA RESULT:      -5.9      2.206      5.037
REMARK  Name = 
REMARK  11 active torsions:
REMARK  status: ('A' for Active; 'I' for Inactive)
REMARK    1  A    between atoms: C_1  and  C_2
REMARK    2  A    between atoms: C_2  and  O_3
REMARK    3  A    between atoms: O_3  and  C_4
REMARK    4  A    between atoms: C_4  and  C_6
REMARK    5  A    between atoms: C_7  and  C_8
REMARK    6  A    between atoms: C_8  and  N_9
REMARK    7  A    between atoms: N_15  and  C_16
REMARK    8  A    between atoms: C_16  and  C_17
REMARK    9  A    between atoms: C_26  and  O_27
REMARK   10  A    between atoms: C_30  and  C_31
REMARK   11  A    between atoms: C_32  and  C_33
REMARK                            x       y       z     vdW  Elec       q    Type
REMARK                         _______ _______ _______ _____ _____    ______ ____
ROOT
ATOM      1  C   UNL     1      -5.397  12.450  19.100  0.00  0.00    +0.000 A 
ATOM      2  C   UNL     1      -5.063  13.052  20.323  0.00  0.00    +0.000 A 
ATOM      3  N   UNL     1      -3.740  12.644  20.609  0.00  0.00    +0.000 N 
ATOM      4  C   UNL     1      -3.188  11.935  19.531  0.00  0.00    +0.000 A 
ATOM      5  C   UNL     1      -4.197  11.890  18.565  0.00  0.00    +0.000 A 
ATOM      6  C   UNL     1      -3.910  11.362  17.285  0.00  0.00    +0.000 A 
ATOM      7  C   UNL     1      -2.673  10.806  17.008  0.00  0.00    +0.000 A 
ATOM      8  C   UNL     1      -1.692  10.750  17.971  0.00  0.00    +0.000 A 
ATOM      9  N   UNL     1      -0.537  10.132  17.676  0.00  0.00    +0.000 NA
ATOM     10  C   UNL     1       0.405  10.062  18.634  0.00  0.00    +0.000 A 
ATOM     11  C   UNL     1       1.624   9.285  18.240  0.00  0.00    +0.000 C 
ATOM     12  C   UNL     1       0.201  10.650  19.888  0.00  0.00    +0.000 A 
ATOM     13  C   UNL     1       1.261  10.604  20.949  0.00  0.00    +0.000 C 
ATOM     14  N   UNL     1      -0.967  11.298  20.214  0.00  0.00    +0.000 NA
ATOM     15  C   UNL     1      -1.921  11.328  19.248  0.00  0.00    +0.000 A 
ENDROOT
BRANCH   1  16
ATOM     16  C   UNL     1      -6.682  12.467  18.394  0.00  0.00    +0.000 C 
ATOM     17  O   UNL     1      -6.978  13.265  17.515  0.00  0.00    +0.000 OA
BRANCH  16  18
ATOM     18  O   UNL     1      -7.504  11.474  18.843  0.00  0.00    +0.000 OA
BRANCH  18  20
ATOM     19  C   UNL     1      -7.461   9.529  20.260  0.00  0.00    +0.000 C 
ATOM     20  C   UNL     1      -7.017  10.128  18.933  0.00  0.00    +0.000 C 
ENDBRANCH  18  20
ENDBRANCH  16  18
ENDBRANCH   1  16
BRANCH   7  21
ATOM     21  O   UNL     1      -2.444  10.299  15.751  0.00  0.00    +0.000 OA
ATOM     22  H   UNL     1      -2.822   9.409  15.684  0.00  0.00    +0.000 HD
ENDBRANCH   7  21
BRANCH   2  23
ATOM     23  C   UNL     1      -5.848  14.104  21.105  0.00  0.00    +0.000 C 
BRANCH  23  24
ATOM     24  N   UNL     1      -7.235  13.770  21.489  0.00  0.00    +0.000 NA
ATOM     25  C   UNL     1      -7.916  14.824  22.287  0.00  0.00    +0.000 C 
ATOM     26  C   UNL     1      -7.456  14.965  23.756  0.00  0.00    +0.000 C 
ATOM     27  O   UNL     1      -7.545  13.723  24.464  0.00  0.00    +0.000 OA
ATOM     28  C   UNL     1      -6.796  12.706  23.794  0.00  0.00    +0.000 C 
ATOM     29  C   UNL     1      -7.267  12.534  22.333  0.00  0.00    +0.000 C 
ENDBRANCH  23  24
ENDBRANCH   2  23
BRANCH   3  30
ATOM     30  C   UNL     1      -3.029  12.934  21.865  0.00  0.00    +0.000 C 
BRANCH  30  31
ATOM     31  C   UNL     1      -2.344  14.288  21.944  0.00  0.00    +0.000 A 
ATOM     32  C   UNL     1      -2.011  14.927  23.147  0.00  0.00    +0.000 A 
ATOM     33  C   UNL     1      -1.310  16.136  23.149  0.00  0.00    +0.000 A 
ATOM     34  C   UNL     1      -0.941  16.738  21.948  0.00  0.00    +0.000 A 
ATOM     35  C   UNL     1      -1.296  16.143  20.742  0.00  0.00    +0.000 A 
ATOM     36  C   UNL     1      -1.995  14.932  20.740  0.00  0.00    +0.000 A 
ENDBRANCH  30  31
ENDBRANCH   3  30
TORSDOF 8
ENDMDL
