MODEL 1
REMARK VINA RESULT:      -8.5      0.000      0.000
REMARK  Name = 
REMARK  9 active torsions:
REMARK  status: ('A' for Active; 'I' for Inactive)
REMARK    1  A    between atoms: C_1  and  C_2
REMARK    2  A    between atoms: C_2  and  N_3
REMARK    3  A    between atoms: N_3  and  C_24
REMARK    4  A    between atoms: C_4  and  C_6
REMARK    5  A    between atoms: C_6  and  C_7
REMARK    6  A    between atoms: C_7  and  N_8
REMARK    7  A    between atoms: C_10  and  C_11
REMARK    8  A    between atoms: C_12  and  C_13
REMARK    9  A    between atoms: C_20  and  O_21
REMARK                            x       y       z     vdW  Elec       q    Type
REMARK                         _______ _______ _______ _____ _____    ______ ____
ROOT
ATOM      1  N   UNL     1       2.469   5.652  17.866  0.00  0.00    +0.000 NA
ATOM      2  C   UNL     1       2.705   4.176  18.334  0.00  0.00    +0.000 C 
ATOM      3  C   UNL     1       3.819   3.478  17.527  0.00  0.00    +0.000 C 
ATOM      4  C   UNL     1       4.095   2.024  17.857  0.00  0.00    +0.000 C 
ATOM      5  C   UNL     1       5.084   4.358  17.300  0.00  0.00    +0.000 C 
ATOM      6  C   UNL     1       5.341   4.011  15.764  0.00  0.00    +0.000 C 
ATOM      7  C   UNL     1       4.647   5.600  18.310  0.00  0.00    +0.000 C 
ATOM      8  C   UNL     1       3.752   6.405  17.498  0.00  0.00    +0.000 C 
ATOM      9  C   UNL     1       4.881   6.757  16.330  0.00  0.00    +0.000 C 
ATOM     10  C   UNL     1       6.415   6.337  16.903  0.00  0.00    +0.000 A 
ATOM     11  C   UNL     1       7.252   7.287  17.495  0.00  0.00    +0.000 A 
ATOM     12  C   UNL     1       8.026   6.896  18.618  0.00  0.00    +0.000 A 
ATOM     13  C   UNL     1       8.053   5.561  19.083  0.00  0.00    +0.000 A 
ATOM     14  C   UNL     1       7.319   4.558  18.471  0.00  0.00    +0.000 A 
ATOM     15  C   UNL     1       6.444   4.966  17.472  0.00  0.00    +0.000 A 
ENDROOT
BRANCH  13  16
ATOM     16  O   UNL     1       8.670   5.221  20.257  0.00  0.00    +0.000 OA
ATOM     17  H   UNL     1       8.011   4.859  20.871  0.00  0.00    +0.000 HD
ENDBRANCH  13  16
BRANCH   1  18
ATOM     18  C   UNL     1       1.951   6.303  19.174  0.00  0.00    +0.000 C 
BRANCH  18  19
ATOM     19  C   UNL     1       2.497   7.698  19.490  0.00  0.00    +0.000 C 
BRANCH  19  21
ATOM     20  N   UNL     1       1.078   9.711  19.800  0.00  0.00    +0.000 N 
ATOM     21  C   UNL     1       1.645   8.819  18.876  0.00  0.00    +0.000 C 
ATOM     22  O   UNL     1       1.577   8.954  17.659  0.00  0.00    +0.000 OA
BRANCH  20  23
ATOM     23  C   UNL     1       0.402  10.866  19.298  0.00  0.00    +0.000 A 
ATOM     24  C   UNL     1       1.091  12.065  19.087  0.00  0.00    +0.000 A 
ATOM     25  C   UNL     1       0.427  13.169  18.552  0.00  0.00    +0.000 A 
ATOM     26  C   UNL     1      -0.926  13.097  18.216  0.00  0.00    +0.000 A 
ATOM     27  C   UNL     1      -1.629  11.905  18.430  0.00  0.00    +0.000 A 
ATOM     28  C   UNL     1      -0.953  10.789  18.954  0.00  0.00    +0.000 A 
ENDBRANCH  20  23
BRANCH  20  30
ATOM     29  C   UNL     1      -0.242   8.591  21.632  0.00  0.00    +0.000 C 
ATOM     30  C   UNL     1       0.925   9.487  21.255  0.00  0.00    +0.000 C 
ENDBRANCH  20  30
ENDBRANCH  19  21
ENDBRANCH  18  19
ENDBRANCH   1  18
TORSDOF 6
ENDMDL
MODEL 2
REMARK VINA RESULT:      -8.4      1.674      2.210
REMARK  Name = 
REMARK  9 active torsions:
REMARK  status: ('A' for Active; 'I' for Inactive)
REMARK    1  A    between atoms: C_1  and  C_2
REMARK    2  A    between atoms: C_2  and  N_3
REMARK    3  A    between atoms: N_3  and  C_24
REMARK    4  A    between atoms: C_4  and  C_6
REMARK    5  A    between atoms: C_6  and  C_7
REMARK    6  A    between atoms: C_7  and  N_8
REMARK    7  A    between atoms: C_10  and  C_11
REMARK    8  A    between atoms: C_12  and  C_13
REMARK    9  A    between atoms: C_20  and  O_21
REMARK                            x       y       z     vdW  Elec       q    Type
REMARK                         _______ _______ _______ _____ _____    ______ ____
ROOT
ATOM      1  N   UNL     1       2.376   6.672  18.062  0.00  0.00    +0.000 NA
ATOM      2  C   UNL     1       2.326   5.261  18.740  0.00  0.00    +0.000 C 
ATOM      3  C   UNL     1       3.258   4.246  18.048  0.00  0.00    +0.000 C 
ATOM      4  C   UNL     1       3.248   2.829  18.586  0.00  0.00    +0.000 C 
ATOM      5  C   UNL     1       4.667   4.812  17.699  0.00  0.00    +0.000 C 
ATOM      6  C   UNL     1       4.808   4.204  16.230  0.00  0.00    +0.000 C 
ATOM      7  C   UNL     1       4.512   6.249  18.515  0.00  0.00    +0.000 C 
ATOM      8  C   UNL     1       3.774   7.091  17.591  0.00  0.00    +0.000 C 
ATOM      9  C   UNL     1       4.919   7.039  16.388  0.00  0.00    +0.000 C 
ATOM     10  C   UNL     1       6.354   6.407  17.021  0.00  0.00    +0.000 A 
ATOM     11  C   UNL     1       7.378   7.244  17.472  0.00  0.00    +0.000 A 
ATOM     12  C   UNL     1       8.087   6.870  18.642  0.00  0.00    +0.000 A 
ATOM     13  C   UNL     1       7.861   5.638  19.296  0.00  0.00    +0.000 A 
ATOM     14  C   UNL     1       6.926   4.726  18.835  0.00  0.00    +0.000 A 
ATOM     15  C   UNL     1       6.124   5.153  17.784  0.00  0.00    +0.000 A 
ENDROOT
BRANCH  13  16
ATOM     16  O   UNL     1       8.429   5.353  20.509  0.00  0.00    +0.000 OA
ATOM     17  H   UNL     1       8.951   6.116  20.804  0.00  0.00    +0.000 HD
ENDBRANCH  13  16
BRANCH   1  18
ATOM     18  C   UNL     1       2.033   7.595  19.259  0.00  0.00    +0.000 C 
BRANCH  18  19
ATOM     19  C   UNL     1       1.514   8.990  18.903  0.00  0.00    +0.000 C 
BRANCH  19  21
ATOM     20  N   UNL     1       0.241  10.923  19.800  0.00  0.00    +0.000 N 
ATOM     21  C   UNL     1       0.629   9.590  20.006  0.00  0.00    +0.000 C 
ATOM     22  O   UNL     1       0.225   8.891  20.929  0.00  0.00    +0.000 OA
BRANCH  20  23
ATOM     23  C   UNL     1      -0.705  11.499  20.702  0.00  0.00    +0.000 A 
ATOM     24  C   UNL     1      -0.457  11.534  22.078  0.00  0.00    +0.000 A 
ATOM     25  C   UNL     1      -1.369  12.144  22.939  0.00  0.00    +0.000 A 
ATOM     26  C   UNL     1      -2.538  12.729  22.446  0.00  0.00    +0.000 A 
ATOM     27  C   UNL     1      -2.803  12.693  21.072  0.00  0.00    +0.000 A 
ATOM     28  C   UNL     1      -1.873  12.093  20.204  0.00  0.00    +0.000 A 
ENDBRANCH  20  23
BRANCH  20  30
ATOM     29  C   UNL     1       1.906  12.789  19.479  0.00  0.00    +0.000 C 
ATOM     30  C   UNL     1       0.860  11.880  18.856  0.00  0.00    +0.000 C 
ENDBRANCH  20  30
ENDBRANCH  19  21
ENDBRANCH  18  19
ENDBRANCH   1  18
TORSDOF 6
ENDMDL
MODEL 3
REMARK VINA RESULT:      -8.4      1.489      2.106
REMARK  Name = 
REMARK  9 active torsions:
REMARK  status: ('A' for Active; 'I' for Inactive)
REMARK    1  A    between atoms: C_1  and  C_2
REMARK    2  A    between atoms: C_2  and  N_3
REMARK    3  A    between atoms: N_3  and  C_24
REMARK    4  A    between atoms: C_4  and  C_6
REMARK    5  A    between atoms: C_6  and  C_7
REMARK    6  A    between atoms: C_7  and  N_8
REMARK    7  A    between atoms: C_10  and  C_11
REMARK    8  A    between atoms: C_12  and  C_13
REMARK    9  A    between atoms: C_20  and  O_21
REMARK                            x       y       z     vdW  Elec       q    Type
REMARK                         _______ _______ _______ _____ _____    ______ ____
ROOT
ATOM      1  N   UNL     1       2.465   6.066  17.749  0.00  0.00    +0.000 NA
ATOM      2  C   UNL     1       2.555   4.633  18.376  0.00  0.00    +0.000 C 
ATOM      3  C   UNL     1       3.622   3.759  17.687  0.00  0.00    +0.000 C 
ATOM      4  C   UNL     1       3.757   2.331  18.175  0.00  0.00    +0.000 C 
ATOM      5  C   UNL     1       4.967   4.497  17.415  0.00  0.00    +0.000 C 
ATOM      6  C   UNL     1       5.231   3.966  15.933  0.00  0.00    +0.000 C 
ATOM      7  C   UNL     1       4.618   5.873  18.273  0.00  0.00    +0.000 C 
ATOM      8  C   UNL     1       3.820   6.661  17.350  0.00  0.00    +0.000 C 
ATOM      9  C   UNL     1       5.006   6.787  16.193  0.00  0.00    +0.000 C 
ATOM     10  C   UNL     1       6.481   6.299  16.861  0.00  0.00    +0.000 A 
ATOM     11  C   UNL     1       7.384   7.230  17.381  0.00  0.00    +0.000 A 
ATOM     12  C   UNL     1       8.090   6.895  18.565  0.00  0.00    +0.000 A 
ATOM     13  C   UNL     1       7.985   5.621  19.167  0.00  0.00    +0.000 A 
ATOM     14  C   UNL     1       7.179   4.626  18.637  0.00  0.00    +0.000 A 
ATOM     15  C   UNL     1       6.371   4.999  17.570  0.00  0.00    +0.000 A 
ENDROOT
BRANCH  13  16
ATOM     16  O   UNL     1       8.538   5.356  20.391  0.00  0.00    +0.000 OA
ATOM     17  H   UNL     1       9.374   5.840  20.475  0.00  0.00    +0.000 HD
ENDBRANCH  13  16
BRANCH   1  18
ATOM     18  C   UNL     1       1.974   6.895  18.963  0.00  0.00    +0.000 C 
BRANCH  18  19
ATOM     19  C   UNL     1       1.703   8.378  18.696  0.00  0.00    +0.000 C 
BRANCH  19  21
ATOM     20  N   UNL     1       0.334  10.129  19.800  0.00  0.00    +0.000 N 
ATOM     21  C   UNL     1       1.322   9.147  19.969  0.00  0.00    +0.000 C 
ATOM     22  O   UNL     1       1.791   8.825  21.056  0.00  0.00    +0.000 OA
BRANCH  20  23
ATOM     23  C   UNL     1      -0.183  10.778  20.963  0.00  0.00    +0.000 A 
ATOM     24  C   UNL     1      -0.243  12.173  21.041  0.00  0.00    +0.000 A 
ATOM     25  C   UNL     1      -0.795  12.789  22.164  0.00  0.00    +0.000 A 
ATOM     26  C   UNL     1      -1.297  12.030  23.222  0.00  0.00    +0.000 A 
ATOM     27  C   UNL     1      -1.235  10.633  23.161  0.00  0.00    +0.000 A 
ATOM     28  C   UNL     1      -0.695  10.014  22.020  0.00  0.00    +0.000 A 
ENDBRANCH  20  23
BRANCH  20  30
ATOM     29  C   UNL     1      -1.575  10.527  18.201  0.00  0.00    +0.000 C 
ATOM     30  C   UNL     1      -0.101  10.722  18.515  0.00  0.00    +0.000 C 
ENDBRANCH  20  30
ENDBRANCH  19  21
ENDBRANCH  18  19
ENDBRANCH   1  18
TORSDOF 6
ENDMDL
MODEL 4
REMARK VINA RESULT:      -8.3      1.119      1.775
REMARK  Name = 
REMARK  9 active torsions:
REMARK  status: ('A' for Active; 'I' for Inactive)
REMARK    1  A    between atoms: C_1  and  C_2
REMARK    2  A    between atoms: C_2  and  N_3
REMARK    3  A    between atoms: N_3  and  C_24
REMARK    4  A    between atoms: C_4  and  C_6
REMARK    5  A    between atoms: C_6  and  C_7
REMARK    6  A    between atoms: C_7  and  N_8
REMARK    7  A    between atoms: C_10  and  C_11
REMARK    8  A    between atoms: C_12  and  C_13
REMARK    9  A    between atoms: C_20  and  O_21
REMARK                            x       y       z     vdW  Elec       q    Type
REMARK                         _______ _______ _______ _____ _____    ______ ____
ROOT
ATOM      1  N   UNL     1       2.369   5.966  18.168  0.00  0.00    +0.000 NA
ATOM      2  C   UNL     1       2.560   4.477  18.614  0.00  0.00    +0.000 C 
ATOM      3  C   UNL     1       3.582   3.730  17.735  0.00  0.00    +0.000 C 
ATOM      4  C   UNL     1       3.804   2.262  18.039  0.00  0.00    +0.000 C 
ATOM      5  C   UNL     1       4.874   4.546  17.430  0.00  0.00    +0.000 C 
ATOM      6  C   UNL     1       5.013   4.198  15.879  0.00  0.00    +0.000 C 
ATOM      7  C   UNL     1       4.566   5.802  18.471  0.00  0.00    +0.000 C 
ATOM      8  C   UNL     1       3.663   6.656  17.721  0.00  0.00    +0.000 C 
ATOM      9  C   UNL     1       4.731   6.959  16.485  0.00  0.00    +0.000 C 
ATOM     10  C   UNL     1       6.276   6.459  16.956  0.00  0.00    +0.000 A 
ATOM     11  C   UNL     1       7.196   7.360  17.498  0.00  0.00    +0.000 A 
ATOM     12  C   UNL     1       8.019   6.922  18.567  0.00  0.00    +0.000 A 
ATOM     13  C   UNL     1       8.008   5.584  19.023  0.00  0.00    +0.000 A 
ATOM     14  C   UNL     1       7.186   4.625  18.456  0.00  0.00    +0.000 A 
ATOM     15  C   UNL     1       6.271   5.083  17.516  0.00  0.00    +0.000 A 
ENDROOT
BRANCH  13  16
ATOM     16  O   UNL     1       8.681   5.205  20.154  0.00  0.00    +0.000 OA
ATOM     17  H   UNL     1       8.116   5.358  20.928  0.00  0.00    +0.000 HD
ENDBRANCH  13  16
BRANCH   1  18
ATOM     18  C   UNL     1       1.970   6.634  19.509  0.00  0.00    +0.000 C 
BRANCH  18  19
ATOM     19  C   UNL     1       2.285   8.126  19.635  0.00  0.00    +0.000 C 
BRANCH  19  21
ATOM     20  N   UNL     1       0.816  10.042  19.058  0.00  0.00    +0.000 N 
ATOM     21  C   UNL     1       1.037   8.970  19.936  0.00  0.00    +0.000 C 
ATOM     22  O   UNL     1       0.258   8.634  20.822  0.00  0.00    +0.000 OA
BRANCH  20  23
ATOM     23  C   UNL     1      -0.405  10.776  19.180  0.00  0.00    +0.000 A 
ATOM     24  C   UNL     1      -1.406  10.670  18.210  0.00  0.00    +0.000 A 
ATOM     25  C   UNL     1      -2.610  11.355  18.368  0.00  0.00    +0.000 A 
ATOM     26  C   UNL     1      -2.838  12.152  19.491  0.00  0.00    +0.000 A 
ATOM     27  C   UNL     1      -1.840  12.275  20.466  0.00  0.00    +0.000 A 
ATOM     28  C   UNL     1      -0.634  11.568  20.312  0.00  0.00    +0.000 A 
ENDBRANCH  20  23
BRANCH  20  30
ATOM     29  C   UNL     1       2.115  12.100  18.399  0.00  0.00    +0.000 C 
ATOM     30  C   UNL     1       1.806  10.636  18.133  0.00  0.00    +0.000 C 
ENDBRANCH  20  30
ENDBRANCH  19  21
ENDBRANCH  18  19
ENDBRANCH   1  18
TORSDOF 6
ENDMDL
MODEL 5
REMARK VINA RESULT:      -8.3      0.508      1.034
REMARK  Name = 
REMARK  9 active torsions:
REMARK  status: ('A' for Active; 'I' for Inactive)
REMARK    1  A    between atoms: C_1  and  C_2
REMARK    2  A    between atoms: C_2  and  N_3
REMARK    3  A    between atoms: N_3  and  C_24
REMARK    4  A    between atoms: C_4  and  C_6
REMARK    5  A    between atoms: C_6  and  C_7
REMARK    6  A    between atoms: C_7  and  N_8
REMARK    7  A    between atoms: C_10  and  C_11
REMARK    8  A    between atoms: C_12  and  C_13
REMARK    9  A    between atoms: C_20  and  O_21
REMARK                            x       y       z     vdW  Elec       q    Type
REMARK                         _______ _______ _______ _____ _____    ______ ____
ROOT
ATOM      1  N   UNL     1       2.442   5.651  17.847  0.00  0.00    +0.000 NA
ATOM      2  C   UNL     1       2.685   4.175  18.313  0.00  0.00    +0.000 C 
ATOM      3  C   UNL     1       3.799   3.483  17.502  0.00  0.00    +0.000 C 
ATOM      4  C   UNL     1       4.081   2.030  17.829  0.00  0.00    +0.000 C 
ATOM      5  C   UNL     1       5.060   4.368  17.272  0.00  0.00    +0.000 C 
ATOM      6  C   UNL     1       5.313   4.023  15.735  0.00  0.00    +0.000 C 
ATOM      7  C   UNL     1       4.622   5.607  18.284  0.00  0.00    +0.000 C 
ATOM      8  C   UNL     1       3.721   6.409  17.476  0.00  0.00    +0.000 C 
ATOM      9  C   UNL     1       4.844   6.767  16.305  0.00  0.00    +0.000 C 
ATOM     10  C   UNL     1       6.382   6.353  16.873  0.00  0.00    +0.000 A 
ATOM     11  C   UNL     1       7.217   7.304  17.463  0.00  0.00    +0.000 A 
ATOM     12  C   UNL     1       7.996   6.915  18.583  0.00  0.00    +0.000 A 
ATOM     13  C   UNL     1       8.030   5.580  19.047  0.00  0.00    +0.000 A 
ATOM     14  C   UNL     1       7.297   4.575  18.436  0.00  0.00    +0.000 A 
ATOM     15  C   UNL     1       6.418   4.981  17.440  0.00  0.00    +0.000 A 
ENDROOT
BRANCH  13  16
ATOM     16  O   UNL     1       8.652   5.241  20.218  0.00  0.00    +0.000 OA
ATOM     17  H   UNL     1       9.025   4.349  20.135  0.00  0.00    +0.000 HD
ENDBRANCH  13  16
BRANCH   1  18
ATOM     18  C   UNL     1       1.926   6.299  19.157  0.00  0.00    +0.000 C 
BRANCH  18  19
ATOM     19  C   UNL     1       2.474   7.692  19.478  0.00  0.00    +0.000 C 
BRANCH  19  21
ATOM     20  N   UNL     1       0.702   9.371  19.925  0.00  0.00    +0.000 N 
ATOM     21  C   UNL     1       1.564   8.818  18.966  0.00  0.00    +0.000 C 
ATOM     22  O   UNL     1       1.687   9.246  17.823  0.00  0.00    +0.000 OA
BRANCH  20  23
ATOM     23  C   UNL     1      -0.062  10.524  19.564  0.00  0.00    +0.000 A 
ATOM     24  C   UNL     1      -1.296  10.394  18.918  0.00  0.00    +0.000 A 
ATOM     25  C   UNL     1      -2.051  11.527  18.616  0.00  0.00    +0.000 A 
ATOM     26  C   UNL     1      -1.594  12.802  18.953  0.00  0.00    +0.000 A 
ATOM     27  C   UNL     1      -0.356  12.947  19.591  0.00  0.00    +0.000 A 
ATOM     28  C   UNL     1       0.395  11.802  19.910  0.00  0.00    +0.000 A 
ENDBRANCH  20  23
BRANCH  20  30
ATOM     29  C   UNL     1       1.193   9.236  22.394  0.00  0.00    +0.000 C 
ATOM     30  C   UNL     1       0.339   8.770  21.228  0.00  0.00    +0.000 C 
ENDBRANCH  20  30
ENDBRANCH  19  21
ENDBRANCH  18  19
ENDBRANCH   1  18
TORSDOF 6
ENDMDL
MODEL 6
REMARK VINA RESULT:      -8.3      1.717      2.324
REMARK  Name = 
REMARK  9 active torsions:
REMARK  status: ('A' for Active; 'I' for Inactive)
REMARK    1  A    between atoms: C_1  and  C_2
REMARK    2  A    between atoms: C_2  and  N_3
REMARK    3  A    between atoms: N_3  and  C_24
REMARK    4  A    between atoms: C_4  and  C_6
REMARK    5  A    between atoms: C_6  and  C_7
REMARK    6  A    between atoms: C_7  and  N_8
REMARK    7  A    between atoms: C_10  and  C_11
REMARK    8  A    between atoms: C_12  and  C_13
REMARK    9  A    between atoms: C_20  and  O_21
REMARK                            x       y       z     vdW  Elec       q    Type
REMARK                         _______ _______ _______ _____ _____    ______ ____
ROOT
ATOM      1  N   UNL     1       2.387   6.568  17.985  0.00  0.00    +0.000 NA
ATOM      2  C   UNL     1       2.347   5.157  18.664  0.00  0.00    +0.000 C 
ATOM      3  C   UNL     1       3.306   4.157  17.990  0.00  0.00    +0.000 C 
ATOM      4  C   UNL     1       3.309   2.740  18.531  0.00  0.00    +0.000 C 
ATOM      5  C   UNL     1       4.712   4.744  17.666  0.00  0.00    +0.000 C 
ATOM      6  C   UNL     1       4.890   4.136  16.202  0.00  0.00    +0.000 C 
ATOM      7  C   UNL     1       4.520   6.179  18.477  0.00  0.00    +0.000 C 
ATOM      8  C   UNL     1       3.785   7.009  17.539  0.00  0.00    +0.000 C 
ATOM      9  C   UNL     1       4.953   6.973  16.357  0.00  0.00    +0.000 C 
ATOM     10  C   UNL     1       6.386   6.364  17.017  0.00  0.00    +0.000 A 
ATOM     11  C   UNL     1       7.388   7.218  17.485  0.00  0.00    +0.000 A 
ATOM     12  C   UNL     1       8.082   6.858  18.669  0.00  0.00    +0.000 A 
ATOM     13  C   UNL     1       7.863   5.623  19.320  0.00  0.00    +0.000 A 
ATOM     14  C   UNL     1       6.952   4.695  18.844  0.00  0.00    +0.000 A 
ATOM     15  C   UNL     1       6.162   5.108  17.777  0.00  0.00    +0.000 A 
ENDROOT
BRANCH  13  16
ATOM     16  O   UNL     1       8.413   5.348  20.544  0.00  0.00    +0.000 OA
ATOM     17  H   UNL     1       9.292   5.755  20.597  0.00  0.00    +0.000 HD
ENDBRANCH  13  16
BRANCH   1  18
ATOM     18  C   UNL     1       2.007   7.487  19.174  0.00  0.00    +0.000 C 
BRANCH  18  19
ATOM     19  C   UNL     1       1.541   8.898  18.809  0.00  0.00    +0.000 C 
BRANCH  19  21
ATOM     20  N   UNL     1       0.134  10.677  19.818  0.00  0.00    +0.000 N 
ATOM     21  C   UNL     1       1.141   9.725  20.040  0.00  0.00    +0.000 C 
ATOM     22  O   UNL     1       1.615   9.470  21.142  0.00  0.00    +0.000 OA
BRANCH  20  23
ATOM     23  C   UNL     1      -0.398  11.375  20.946  0.00  0.00    +0.000 A 
ATOM     24  C   UNL     1      -1.076  10.690  21.960  0.00  0.00    +0.000 A 
ATOM     25  C   UNL     1      -1.547  11.380  23.077  0.00  0.00    +0.000 A 
ATOM     26  C   UNL     1      -1.349  12.756  23.204  0.00  0.00    +0.000 A 
ATOM     27  C   UNL     1      -0.680  13.455  22.192  0.00  0.00    +0.000 A 
ATOM     28  C   UNL     1      -0.191  12.754  21.075  0.00  0.00    +0.000 A 
ENDBRANCH  20  23
BRANCH  20  30
ATOM     29  C   UNL     1      -1.665  10.672  18.052  0.00  0.00    +0.000 C 
ATOM     30  C   UNL     1      -0.312  11.192  18.504  0.00  0.00    +0.000 C 
ENDBRANCH  20  30
ENDBRANCH  19  21
ENDBRANCH  18  19
ENDBRANCH   1  18
TORSDOF 6
ENDMDL
MODEL 7
REMARK VINA RESULT:      -8.2      1.702      2.363
REMARK  Name = 
REMARK  9 active torsions:
REMARK  status: ('A' for Active; 'I' for Inactive)
REMARK    1  A    between atoms: C_1  and  C_2
REMARK    2  A    between atoms: C_2  and  N_3
REMARK    3  A    between atoms: N_3  and  C_24
REMARK    4  A    between atoms: C_4  and  C_6
REMARK    5  A    between atoms: C_6  and  C_7
REMARK    6  A    between atoms: C_7  and  N_8
REMARK    7  A    between atoms: C_10  and  C_11
REMARK    8  A    between atoms: C_12  and  C_13
REMARK    9  A    between atoms: C_20  and  O_21
REMARK                            x       y       z     vdW  Elec       q    Type
REMARK                         _______ _______ _______ _____ _____    ______ ____
ROOT
ATOM      1  N   UNL     1       2.328   7.182  17.716  0.00  0.00    +0.000 NA
ATOM      2  C   UNL     1       2.046   5.979  18.679  0.00  0.00    +0.000 C 
ATOM      3  C   UNL     1       2.822   4.710  18.272  0.00  0.00    +0.000 C 
ATOM      4  C   UNL     1       2.581   3.464  19.102  0.00  0.00    +0.000 C 
ATOM      5  C   UNL     1       4.308   4.972  17.886  0.00  0.00    +0.000 C 
ATOM      6  C   UNL     1       4.383   4.040  16.593  0.00  0.00    +0.000 C 
ATOM      7  C   UNL     1       4.362   6.559  18.364  0.00  0.00    +0.000 C 
ATOM      8  C   UNL     1       3.783   7.277  17.243  0.00  0.00    +0.000 C 
ATOM      9  C   UNL     1       4.930   6.792  16.143  0.00  0.00    +0.000 C 
ATOM     10  C   UNL     1       6.236   6.111  16.973  0.00  0.00    +0.000 A 
ATOM     11  C   UNL     1       7.369   6.866  17.287  0.00  0.00    +0.000 A 
ATOM     12  C   UNL     1       7.988   6.661  18.547  0.00  0.00    +0.000 A 
ATOM     13  C   UNL     1       7.559   5.651  19.438  0.00  0.00    +0.000 A 
ATOM     14  C   UNL     1       6.504   4.807  19.134  0.00  0.00    +0.000 A 
ATOM     15  C   UNL     1       5.799   5.105  17.974  0.00  0.00    +0.000 A 
ENDROOT
BRANCH  13  16
ATOM     16  O   UNL     1       8.051   5.560  20.712  0.00  0.00    +0.000 OA
ATOM     17  H   UNL     1       8.433   4.679  20.845  0.00  0.00    +0.000 HD
ENDBRANCH  13  16
BRANCH   1  18
ATOM     18  C   UNL     1       2.108   8.386  18.666  0.00  0.00    +0.000 C 
BRANCH  18  19
ATOM     19  C   UNL     1       1.450   9.620  18.044  0.00  0.00    +0.000 C 
BRANCH  19  21
ATOM     20  N   UNL     1      -0.363  10.575  19.445  0.00  0.00    +0.000 N 
ATOM     21  C   UNL     1       0.995  10.641  19.097  0.00  0.00    +0.000 C 
ATOM     22  O   UNL     1       1.810  11.373  19.648  0.00  0.00    +0.000 OA
BRANCH  20  23
ATOM     23  C   UNL     1      -0.826  11.387  20.527  0.00  0.00    +0.000 A 
ATOM     24  C   UNL     1      -1.388  12.645  20.291  0.00  0.00    +0.000 A 
ATOM     25  C   UNL     1      -1.878  13.404  21.353  0.00  0.00    +0.000 A 
ATOM     26  C   UNL     1      -1.820  12.923  22.663  0.00  0.00    +0.000 A 
ATOM     27  C   UNL     1      -1.251  11.668  22.914  0.00  0.00    +0.000 A 
ATOM     28  C   UNL     1      -0.774  10.898  21.839  0.00  0.00    +0.000 A 
ENDBRANCH  20  23
BRANCH  20  30
ATOM     29  C   UNL     1      -1.910  10.661  17.456  0.00  0.00    +0.000 C 
ATOM     30  C   UNL     1      -1.432   9.897  18.679  0.00  0.00    +0.000 C 
ENDBRANCH  20  30
ENDBRANCH  19  21
ENDBRANCH  18  19
ENDBRANCH   1  18
TORSDOF 6
ENDMDL
MODEL 8
REMARK VINA RESULT:      -8.2      1.920      2.331
REMARK  Name = 
REMARK  9 active torsions:
REMARK  status: ('A' for Active; 'I' for Inactive)
REMARK    1  A    between atoms: C_1  and  C_2
REMARK    2  A    between atoms: C_2  and  N_3
REMARK    3  A    between atoms: N_3  and  C_24
REMARK    4  A    between atoms: C_4  and  C_6
REMARK    5  A    between atoms: C_6  and  C_7
REMARK    6  A    between atoms: C_7  and  N_8
REMARK    7  A    between atoms: C_10  and  C_11
REMARK    8  A    between atoms: C_12  and  C_13
REMARK    9  A    between atoms: C_20  and  O_21
REMARK                            x       y       z     vdW  Elec       q    Type
REMARK                         _______ _______ _______ _____ _____    ______ ____
ROOT
ATOM      1  N   UNL     1       2.321   7.202  18.050  0.00  0.00    +0.000 NA
ATOM      2  C   UNL     1       2.086   5.969  18.988  0.00  0.00    +0.000 C 
ATOM      3  C   UNL     1       2.836   4.714  18.500  0.00  0.00    +0.000 C 
ATOM      4  C   UNL     1       2.635   3.442  19.301  0.00  0.00    +0.000 C 
ATOM      5  C   UNL     1       4.301   4.986  18.045  0.00  0.00    +0.000 C 
ATOM      6  C   UNL     1       4.306   4.096  16.721  0.00  0.00    +0.000 C 
ATOM      7  C   UNL     1       4.384   6.557  18.571  0.00  0.00    +0.000 C 
ATOM      8  C   UNL     1       3.749   7.311  17.505  0.00  0.00    +0.000 C 
ATOM      9  C   UNL     1       4.835   6.860  16.331  0.00  0.00    +0.000 C 
ATOM     10  C   UNL     1       6.181   6.152  17.069  0.00  0.00    +0.000 A 
ATOM     11  C   UNL     1       7.331   6.896  17.348  0.00  0.00    +0.000 A 
ATOM     12  C   UNL     1       8.014   6.649  18.566  0.00  0.00    +0.000 A 
ATOM     13  C   UNL     1       7.631   5.611  19.445  0.00  0.00    +0.000 A 
ATOM     14  C   UNL     1       6.558   4.779  19.170  0.00  0.00    +0.000 A 
ATOM     15  C   UNL     1       5.794   5.114  18.059  0.00  0.00    +0.000 A 
ENDROOT
BRANCH  13  16
ATOM     16  O   UNL     1       8.188   5.480  20.689  0.00  0.00    +0.000 OA
ATOM     17  H   UNL     1       9.143   5.640  20.629  0.00  0.00    +0.000 HD
ENDBRANCH  13  16
BRANCH   1  18
ATOM     18  C   UNL     1       2.154   8.376  19.049  0.00  0.00    +0.000 C 
BRANCH  18  19
ATOM     19  C   UNL     1       1.401   8.055  20.342  0.00  0.00    +0.000 C 
BRANCH  19  21
ATOM     20  N   UNL     1       0.319  10.273  20.603  0.00  0.00    +0.000 N 
ATOM     21  C   UNL     1       1.139   9.302  21.199  0.00  0.00    +0.000 C 
ATOM     22  O   UNL     1       1.545   9.361  22.354  0.00  0.00    +0.000 OA
BRANCH  20  23
ATOM     23  C   UNL     1      -0.096  11.388  21.396  0.00  0.00    +0.000 A 
ATOM     24  C   UNL     1       0.435  12.663  21.175  0.00  0.00    +0.000 A 
ATOM     25  C   UNL     1      -0.016  13.749  21.924  0.00  0.00    +0.000 A 
ATOM     26  C   UNL     1      -1.001  13.585  22.901  0.00  0.00    +0.000 A 
ATOM     27  C   UNL     1      -1.533  12.312  23.139  0.00  0.00    +0.000 A 
ATOM     28  C   UNL     1      -1.090  11.222  22.369  0.00  0.00    +0.000 A 
ENDBRANCH  20  23
BRANCH  20  30
ATOM     29  C   UNL     1      -1.499  10.375  18.859  0.00  0.00    +0.000 C 
ATOM     30  C   UNL     1      -0.011  10.379  19.164  0.00  0.00    +0.000 C 
ENDBRANCH  20  30
ENDBRANCH  19  21
ENDBRANCH  18  19
ENDBRANCH   1  18
TORSDOF 6
ENDMDL
MODEL 9
REMARK VINA RESULT:      -8.1      1.378      2.063
REMARK  Name = 
REMARK  9 active torsions:
REMARK  status: ('A' for Active; 'I' for Inactive)
REMARK    1  A    between atoms: C_1  and  C_2
REMARK    2  A    between atoms: C_2  and  N_3
REMARK    3  A    between atoms: N_3  and  C_24
REMARK    4  A    between atoms: C_4  and  C_6
REMARK    5  A    between atoms: C_6  and  C_7
REMARK    6  A    between atoms: C_7  and  N_8
REMARK    7  A    between atoms: C_10  and  C_11
REMARK    8  A    between atoms: C_12  and  C_13
REMARK    9  A    between atoms: C_20  and  O_21
REMARK                            x       y       z     vdW  Elec       q    Type
REMARK                         _______ _______ _______ _____ _____    ______ ____
ROOT
ATOM      1  N   UNL     1       2.349   7.002  17.817  0.00  0.00    +0.000 NA
ATOM      2  C   UNL     1       2.141   5.704  18.668  0.00  0.00    +0.000 C 
ATOM      3  C   UNL     1       2.988   4.524  18.150  0.00  0.00    +0.000 C 
ATOM      4  C   UNL     1       2.823   3.197  18.865  0.00  0.00    +0.000 C 
ATOM      5  C   UNL     1       4.455   4.905  17.791  0.00  0.00    +0.000 C 
ATOM      6  C   UNL     1       4.579   4.098  16.420  0.00  0.00    +0.000 C 
ATOM      7  C   UNL     1       4.418   6.444  18.409  0.00  0.00    +0.000 C 
ATOM      8  C   UNL     1       3.794   7.224  17.356  0.00  0.00    +0.000 C 
ATOM      9  C   UNL     1       4.963   6.906  16.218  0.00  0.00    +0.000 C 
ATOM     10  C   UNL     1       6.309   6.232  16.986  0.00  0.00    +0.000 A 
ATOM     11  C   UNL     1       7.397   7.021  17.368  0.00  0.00    +0.000 A 
ATOM     12  C   UNL     1       8.032   6.740  18.605  0.00  0.00    +0.000 A 
ATOM     13  C   UNL     1       7.667   5.631  19.401  0.00  0.00    +0.000 A 
ATOM     14  C   UNL     1       6.661   4.758  19.022  0.00  0.00    +0.000 A 
ATOM     15  C   UNL     1       5.935   5.116  17.892  0.00  0.00    +0.000 A 
ENDROOT
BRANCH  13  16
ATOM     16  O   UNL     1       8.168   5.456  20.663  0.00  0.00    +0.000 OA
ATOM     17  H   UNL     1       8.545   6.294  20.976  0.00  0.00    +0.000 HD
ENDBRANCH  13  16
BRANCH   1  18
ATOM     18  C   UNL     1       2.063   8.102  18.871  0.00  0.00    +0.000 C 
BRANCH  18  19
ATOM     19  C   UNL     1       0.951   9.094  18.521  0.00  0.00    +0.000 C 
BRANCH  19  21
ATOM     20  N   UNL     1       0.733  11.426  19.343  0.00  0.00    +0.000 N 
ATOM     21  C   UNL     1       1.440  10.549  18.505  0.00  0.00    +0.000 C 
ATOM     22  O   UNL     1       2.445  10.862  17.875  0.00  0.00    +0.000 OA
BRANCH  20  23
ATOM     23  C   UNL     1       1.226  12.758  19.500  0.00  0.00    +0.000 A 
ATOM     24  C   UNL     1       0.769  13.794  18.678  0.00  0.00    +0.000 A 
ATOM     25  C   UNL     1       1.224  15.097  18.876  0.00  0.00    +0.000 A 
ATOM     26  C   UNL     1       2.135  15.390  19.892  0.00  0.00    +0.000 A 
ATOM     27  C   UNL     1       2.608  14.361  20.716  0.00  0.00    +0.000 A 
ATOM     28  C   UNL     1       2.134  13.051  20.526  0.00  0.00    +0.000 A 
ENDBRANCH  20  23
BRANCH  20  30
ATOM     29  C   UNL     1      -0.565  10.757  21.398  0.00  0.00    +0.000 C 
ATOM     30  C   UNL     1      -0.599  11.184  19.941  0.00  0.00    +0.000 C 
ENDBRANCH  20  30
ENDBRANCH  19  21
ENDBRANCH  18  19
ENDBRANCH   1  18
TORSDOF 6
ENDMDL
