MODEL 1
REMARK VINA RESULT:      -9.0      0.000      0.000
REMARK  Name = 
REMARK  6 active torsions:
REMARK  status: ('A' for Active; 'I' for Inactive)
REMARK    1  A    between atoms: C_1  and  N_2
REMARK    2  A    between atoms: N_5  and  C_6
REMARK    3  A    between atoms: C_6  and  C_7
REMARK    4  A    between atoms: C_10  and  N_11
REMARK    5  A    between atoms: C_15  and  C_16
REMARK    6  A    between atoms: C_19  and  C_20
REMARK                            x       y       z     vdW  Elec       q    Type
REMARK                         _______ _______ _______ _____ _____    ______ ____
ROOT
ATOM      1  N   UNL     1       6.910   5.136  18.649  0.00  0.00    +0.000 N 
ATOM      2  C   UNL     1       5.554   4.848  18.811  0.00  0.00    +0.000 A 
ATOM      3  N   UNL     1       5.171   3.572  18.907  0.00  0.00    +0.000 NA
ATOM      4  C   UNL     1       3.838   3.344  19.028  0.00  0.00    +0.000 A 
ATOM      5  C   UNL     1       2.846   4.316  19.113  0.00  0.00    +0.000 A 
ATOM      6  C   UNL     1       3.369   5.608  19.075  0.00  0.00    +0.000 A 
ATOM      7  N   UNL     1       4.683   5.856  18.907  0.00  0.00    +0.000 NA
ATOM      8  H   UNL     1       7.484   4.388  19.006  0.00  0.00    +0.000 HD
ENDROOT
BRANCH   6   9
ATOM      9  C   UNL     1       2.567   6.857  19.189  0.00  0.00    +0.000 A 
ATOM     10  C   UNL     1       2.377   7.696  18.070  0.00  0.00    +0.000 A 
ATOM     11  C   UNL     1       1.613   8.863  18.146  0.00  0.00    +0.000 A 
ATOM     12  C   UNL     1       1.005   9.203  19.347  0.00  0.00    +0.000 A 
ATOM     13  F   UNL     1       0.244  10.303  19.397  0.00  0.00    +0.000 F 
ATOM     14  C   UNL     1       1.193   8.416  20.474  0.00  0.00    +0.000 A 
ATOM     15 CL   UNL     1       0.426   8.804  21.965  0.00  0.00    +0.000 Cl
ATOM     16  C   UNL     1       2.000   7.279  20.403  0.00  0.00    +0.000 A 
ENDBRANCH   6   9
BRANCH   1  20
ATOM     17  C   UNL     1       8.449   9.051  18.134  0.00  0.00    +0.000 A 
ATOM     18  C   UNL     1       8.890   8.244  19.192  0.00  0.00    +0.000 A 
ATOM     19  C   UNL     1       8.421   6.927  19.335  0.00  0.00    +0.000 A 
ATOM     20  C   UNL     1       7.504   6.389  18.427  0.00  0.00    +0.000 A 
ATOM     21  C   UNL     1       7.141   7.183  17.329  0.00  0.00    +0.000 A 
ATOM     22  C   UNL     1       7.584   8.495  17.189  0.00  0.00    +0.000 A 
BRANCH  17  23
ATOM     23  C   UNL     1       8.869  10.499  17.993  0.00  0.00    +0.000 C 
BRANCH  23  28
ATOM     24  C   UNL     1       9.914  15.188  18.101  0.00  0.00    +0.000 C 
ATOM     25  N   UNL     1      10.240  13.891  18.683  0.00  0.00    +0.000 NA
ATOM     26  C   UNL     1      10.788  12.974  17.668  0.00  0.00    +0.000 C 
ATOM     27  C   UNL     1      11.072  11.564  18.238  0.00  0.00    +0.000 C 
ATOM     28  N   UNL     1       9.928  10.919  18.922  0.00  0.00    +0.000 NA
ATOM     29  C   UNL     1       9.396  11.883  19.915  0.00  0.00    +0.000 C 
ATOM     30  C   UNL     1       9.071  13.288  19.346  0.00  0.00    +0.000 C 
ENDBRANCH  23  28
ENDBRANCH  17  23
ENDBRANCH   1  20
BRANCH   5  31
ATOM     31  C   UNL     1       1.359   4.013  19.184  0.00  0.00    +0.000 C 
ATOM     32  C   UNL     1       0.751   2.637  19.263  0.00  0.00    +0.000 C 
ATOM     33  C   UNL     1       0.785   3.498  20.492  0.00  0.00    +0.000 C 
ENDBRANCH   5  31
TORSDOF 5
ENDMDL
MODEL 2
REMARK VINA RESULT:      -9.0      0.922      1.250
REMARK  Name = 
REMARK  6 active torsions:
REMARK  status: ('A' for Active; 'I' for Inactive)
REMARK    1  A    between atoms: C_1  and  N_2
REMARK    2  A    between atoms: N_5  and  C_6
REMARK    3  A    between atoms: C_6  and  C_7
REMARK    4  A    between atoms: C_10  and  N_11
REMARK    5  A    between atoms: C_15  and  C_16
REMARK    6  A    between atoms: C_19  and  C_20
REMARK                            x       y       z     vdW  Elec       q    Type
REMARK                         _______ _______ _______ _____ _____    ______ ____
ROOT
ATOM      1  N   UNL     1       6.811   4.913  18.466  0.00  0.00    +0.000 N 
ATOM      2  C   UNL     1       5.470   4.612  18.713  0.00  0.00    +0.000 A 
ATOM      3  N   UNL     1       5.087   3.332  18.729  0.00  0.00    +0.000 NA
ATOM      4  C   UNL     1       3.767   3.094  18.939  0.00  0.00    +0.000 A 
ATOM      5  C   UNL     1       2.792   4.054  19.188  0.00  0.00    +0.000 A 
ATOM      6  C   UNL     1       3.319   5.346  19.220  0.00  0.00    +0.000 A 
ATOM      7  N   UNL     1       4.617   5.607  18.967  0.00  0.00    +0.000 NA
ATOM      8  H   UNL     1       7.407   4.137  18.707  0.00  0.00    +0.000 HD
ENDROOT
BRANCH   6   9
ATOM      9  C   UNL     1       2.538   6.579  19.507  0.00  0.00    +0.000 A 
ATOM     10  C   UNL     1       1.878   6.742  20.744  0.00  0.00    +0.000 A 
ATOM     11  C   UNL     1       1.155   7.899  21.047  0.00  0.00    +0.000 A 
ATOM     12  C   UNL     1       1.097   8.929  20.117  0.00  0.00    +0.000 A 
ATOM     13  F   UNL     1       0.433  10.047  20.433  0.00  0.00    +0.000 F 
ATOM     14  C   UNL     1       1.711   8.791  18.880  0.00  0.00    +0.000 A 
ATOM     15 CL   UNL     1       1.674  10.066  17.725  0.00  0.00    +0.000 Cl
ATOM     16  C   UNL     1       2.388   7.611  18.566  0.00  0.00    +0.000 A 
ENDBRANCH   6   9
BRANCH   1  20
ATOM     17  C   UNL     1       8.312   8.863  18.141  0.00  0.00    +0.000 A 
ATOM     18  C   UNL     1       8.757   8.011  19.162  0.00  0.00    +0.000 A 
ATOM     19  C   UNL     1       8.301   6.684  19.241  0.00  0.00    +0.000 A 
ATOM     20  C   UNL     1       7.393   6.181  18.305  0.00  0.00    +0.000 A 
ATOM     21  C   UNL     1       7.026   7.021  17.244  0.00  0.00    +0.000 A 
ATOM     22  C   UNL     1       7.457   8.344  17.168  0.00  0.00    +0.000 A 
BRANCH  17  23
ATOM     23  C   UNL     1       8.718  10.319  18.070  0.00  0.00    +0.000 C 
BRANCH  23  28
ATOM     24  C   UNL     1       9.690  15.000  18.565  0.00  0.00    +0.000 C 
ATOM     25  N   UNL     1      10.109  13.658  18.956  0.00  0.00    +0.000 NA
ATOM     26  C   UNL     1      10.539  12.872  17.786  0.00  0.00    +0.000 C 
ATOM     27  C   UNL     1      10.917  11.418  18.158  0.00  0.00    +0.000 C 
ATOM     28  N   UNL     1       9.880  10.670  18.902  0.00  0.00    +0.000 NA
ATOM     29  C   UNL     1       9.460  11.505  20.053  0.00  0.00    +0.000 C 
ATOM     30  C   UNL     1       9.043  12.952  19.687  0.00  0.00    +0.000 C 
ENDBRANCH  23  28
ENDBRANCH  17  23
ENDBRANCH   1  20
BRANCH   5  31
ATOM     31  C   UNL     1       1.314   3.747  19.355  0.00  0.00    +0.000 C 
ATOM     32  C   UNL     1       0.704   2.369  19.360  0.00  0.00    +0.000 C 
ATOM     33  C   UNL     1       0.846   3.116  20.655  0.00  0.00    +0.000 C 
ENDBRANCH   5  31
TORSDOF 5
ENDMDL
MODEL 3
REMARK VINA RESULT:      -8.3      1.180      1.634
REMARK  Name = 
REMARK  6 active torsions:
REMARK  status: ('A' for Active; 'I' for Inactive)
REMARK    1  A    between atoms: C_1  and  N_2
REMARK    2  A    between atoms: N_5  and  C_6
REMARK    3  A    between atoms: C_6  and  C_7
REMARK    4  A    between atoms: C_10  and  N_11
REMARK    5  A    between atoms: C_15  and  C_16
REMARK    6  A    between atoms: C_19  and  C_20
REMARK                            x       y       z     vdW  Elec       q    Type
REMARK                         _______ _______ _______ _____ _____    ______ ____
ROOT
ATOM      1  N   UNL     1       6.843   5.151  17.781  0.00  0.00    +0.000 N 
ATOM      2  C   UNL     1       5.496   4.819  17.939  0.00  0.00    +0.000 A 
ATOM      3  N   UNL     1       5.092   3.587  17.616  0.00  0.00    +0.000 NA
ATOM      4  C   UNL     1       3.767   3.325  17.756  0.00  0.00    +0.000 A 
ATOM      5  C   UNL     1       2.807   4.202  18.250  0.00  0.00    +0.000 A 
ATOM      6  C   UNL     1       3.355   5.430  18.622  0.00  0.00    +0.000 A 
ATOM      7  N   UNL     1       4.658   5.727  18.447  0.00  0.00    +0.000 NA
ATOM      8  H   UNL     1       7.425   4.328  17.809  0.00  0.00    +0.000 HD
ENDROOT
BRANCH   6   9
ATOM      9  C   UNL     1       2.594   6.557  19.225  0.00  0.00    +0.000 A 
ATOM     10  C   UNL     1       2.075   6.457  20.534  0.00  0.00    +0.000 A 
ATOM     11  C   UNL     1       1.375   7.509  21.130  0.00  0.00    +0.000 A 
ATOM     12  C   UNL     1       1.196   8.694  20.429  0.00  0.00    +0.000 A 
ATOM     13  F   UNL     1       0.556   9.707  21.026  0.00  0.00    +0.000 F 
ATOM     14  C   UNL     1       1.669   8.816  19.130  0.00  0.00    +0.000 A 
ATOM     15 CL   UNL     1       1.483  10.286  18.254  0.00  0.00    +0.000 Cl
ATOM     16  C   UNL     1       2.323   7.743  18.523  0.00  0.00    +0.000 A 
ENDBRANCH   6   9
BRANCH   1  20
ATOM     17  C   UNL     1       8.406   9.024  18.502  0.00  0.00    +0.000 A 
ATOM     18  C   UNL     1       8.800   7.936  19.294  0.00  0.00    +0.000 A 
ATOM     19  C   UNL     1       8.324   6.641  19.024  0.00  0.00    +0.000 A 
ATOM     20  C   UNL     1       7.447   6.406  17.961  0.00  0.00    +0.000 A 
ATOM     21  C   UNL     1       7.133   7.491  17.130  0.00  0.00    +0.000 A 
ATOM     22  C   UNL     1       7.583   8.781  17.400  0.00  0.00    +0.000 A 
BRANCH  17  23
ATOM     23  C   UNL     1       8.833  10.443  18.809  0.00  0.00    +0.000 C 
BRANCH  23  28
ATOM     24  C   UNL     1      10.312  14.945  19.611  0.00  0.00    +0.000 C 
ATOM     25  N   UNL     1      10.086  13.942  18.576  0.00  0.00    +0.000 NA
ATOM     26  C   UNL     1       8.662  13.571  18.495  0.00  0.00    +0.000 C 
ATOM     27  C   UNL     1       8.401  12.452  17.459  0.00  0.00    +0.000 C 
ATOM     28  N   UNL     1       9.221  11.232  17.630  0.00  0.00    +0.000 NA
ATOM     29  C   UNL     1      10.639  11.653  17.730  0.00  0.00    +0.000 C 
ATOM     30  C   UNL     1      10.918  12.746  18.793  0.00  0.00    +0.000 C 
ENDBRANCH  23  28
ENDBRANCH  17  23
ENDBRANCH   1  20
BRANCH   5  31
ATOM     31  C   UNL     1       1.323   3.887  18.329  0.00  0.00    +0.000 C 
ATOM     32  C   UNL     1       0.727   2.506  18.414  0.00  0.00    +0.000 C 
ATOM     33  C   UNL     1       0.760   3.370  19.641  0.00  0.00    +0.000 C 
ENDBRANCH   5  31
TORSDOF 5
ENDMDL
MODEL 4
REMARK VINA RESULT:      -8.2      0.998      1.560
REMARK  Name = 
REMARK  6 active torsions:
REMARK  status: ('A' for Active; 'I' for Inactive)
REMARK    1  A    between atoms: C_1  and  N_2
REMARK    2  A    between atoms: N_5  and  C_6
REMARK    3  A    between atoms: C_6  and  C_7
REMARK    4  A    between atoms: C_10  and  N_11
REMARK    5  A    between atoms: C_15  and  C_16
REMARK    6  A    between atoms: C_19  and  C_20
REMARK                            x       y       z     vdW  Elec       q    Type
REMARK                         _______ _______ _______ _____ _____    ______ ____
ROOT
ATOM      1  N   UNL     1       6.763   5.433  18.050  0.00  0.00    +0.000 N 
ATOM      2  C   UNL     1       5.444   5.015  18.233  0.00  0.00    +0.000 A 
ATOM      3  N   UNL     1       5.130   3.740  17.986  0.00  0.00    +0.000 NA
ATOM      4  C   UNL     1       3.827   3.392  18.146  0.00  0.00    +0.000 A 
ATOM      5  C   UNL     1       2.806   4.226  18.590  0.00  0.00    +0.000 A 
ATOM      6  C   UNL     1       3.264   5.510  18.886  0.00  0.00    +0.000 A 
ATOM      7  N   UNL     1       4.542   5.889  18.689  0.00  0.00    +0.000 NA
ATOM      8  H   UNL     1       7.402   4.658  18.125  0.00  0.00    +0.000 HD
ENDROOT
BRANCH   6   9
ATOM      9  C   UNL     1       2.423   6.613  19.424  0.00  0.00    +0.000 A 
ATOM     10  C   UNL     1       1.800   6.496  20.685  0.00  0.00    +0.000 A 
ATOM     11  C   UNL     1       1.022   7.525  21.221  0.00  0.00    +0.000 A 
ATOM     12  C   UNL     1       0.869   8.706  20.507  0.00  0.00    +0.000 A 
ATOM     13  F   UNL     1       0.153   9.699  21.048  0.00  0.00    +0.000 F 
ATOM     14  C   UNL     1       1.444   8.845  19.252  0.00  0.00    +0.000 A 
ATOM     15 CL   UNL     1       1.289  10.311  18.363  0.00  0.00    +0.000 Cl
ATOM     16  C   UNL     1       2.178   7.793  18.701  0.00  0.00    +0.000 A 
ENDBRANCH   6   9
BRANCH   1  20
ATOM     17  C   UNL     1       8.543   9.278  18.151  0.00  0.00    +0.000 A 
ATOM     18  C   UNL     1       7.454   9.017  17.307  0.00  0.00    +0.000 A 
ATOM     19  C   UNL     1       6.828   7.759  17.310  0.00  0.00    +0.000 A 
ATOM     20  C   UNL     1       7.275   6.737  18.153  0.00  0.00    +0.000 A 
ATOM     21  C   UNL     1       8.309   7.044  19.049  0.00  0.00    +0.000 A 
ATOM     22  C   UNL     1       8.949   8.281  19.040  0.00  0.00    +0.000 A 
BRANCH  17  23
ATOM     23  C   UNL     1       9.292  10.593  18.119  0.00  0.00    +0.000 C 
BRANCH  23  28
ATOM     24  C   UNL     1      10.804  15.128  18.608  0.00  0.00    +0.000 C 
ATOM     25  N   UNL     1      10.738  13.827  19.265  0.00  0.00    +0.000 NA
ATOM     26  C   UNL     1      11.493  12.810  18.512  0.00  0.00    +0.000 C 
ATOM     27  C   UNL     1      11.377  11.402  19.142  0.00  0.00    +0.000 C 
ATOM     28  N   UNL     1       9.994  10.925  19.368  0.00  0.00    +0.000 NA
ATOM     29  C   UNL     1       9.267  11.985  20.106  0.00  0.00    +0.000 C 
ATOM     30  C   UNL     1       9.344  13.394  19.462  0.00  0.00    +0.000 C 
ENDBRANCH  23  28
ENDBRANCH  17  23
ENDBRANCH   1  20
BRANCH   5  31
ATOM     31  C   UNL     1       1.348   3.810  18.694  0.00  0.00    +0.000 C 
ATOM     32  C   UNL     1       0.843   2.391  18.688  0.00  0.00    +0.000 C 
ATOM     33  C   UNL     1       0.870   3.157  19.979  0.00  0.00    +0.000 C 
ENDBRANCH   5  31
TORSDOF 5
ENDMDL
MODEL 5
REMARK VINA RESULT:      -8.0      5.041      8.285
REMARK  Name = 
REMARK  6 active torsions:
REMARK  status: ('A' for Active; 'I' for Inactive)
REMARK    1  A    between atoms: C_1  and  N_2
REMARK    2  A    between atoms: N_5  and  C_6
REMARK    3  A    between atoms: C_6  and  C_7
REMARK    4  A    between atoms: C_10  and  N_11
REMARK    5  A    between atoms: C_15  and  C_16
REMARK    6  A    between atoms: C_19  and  C_20
REMARK                            x       y       z     vdW  Elec       q    Type
REMARK                         _______ _______ _______ _____ _____    ______ ____
ROOT
ATOM      1  N   UNL     1       1.431   9.170  21.221  0.00  0.00    +0.000 N 
ATOM      2  C   UNL     1       0.423  10.132  21.138  0.00  0.00    +0.000 A 
ATOM      3  N   UNL     1       0.304  11.030  22.120  0.00  0.00    +0.000 NA
ATOM      4  C   UNL     1      -0.715  11.922  22.009  0.00  0.00    +0.000 A 
ATOM      5  C   UNL     1      -1.608  12.016  20.947  0.00  0.00    +0.000 A 
ATOM      6  C   UNL     1      -1.343  11.078  19.950  0.00  0.00    +0.000 A 
ATOM      7  N   UNL     1      -0.368  10.153  20.062  0.00  0.00    +0.000 NA
ATOM      8  H   UNL     1       2.189   9.489  21.804  0.00  0.00    +0.000 HD
ENDROOT
BRANCH   6   9
ATOM      9  C   UNL     1      -2.093  10.956  18.671  0.00  0.00    +0.000 A 
ATOM     10  C   UNL     1      -1.597  10.160  17.617  0.00  0.00    +0.000 A 
ATOM     11  C   UNL     1      -2.292  10.013  16.414  0.00  0.00    +0.000 A 
ATOM     12  C   UNL     1      -3.515  10.651  16.251  0.00  0.00    +0.000 A 
ATOM     13  F   UNL     1      -4.189  10.472  15.108  0.00  0.00    +0.000 F 
ATOM     14  C   UNL     1      -4.019  11.463  17.256  0.00  0.00    +0.000 A 
ATOM     15 CL   UNL     1      -5.546  12.240  17.085  0.00  0.00    +0.000 Cl
ATOM     16  C   UNL     1      -3.295  11.645  18.435  0.00  0.00    +0.000 A 
ENDBRANCH   6   9
BRANCH   1  20
ATOM     17  C   UNL     1       2.439   5.924  18.690  0.00  0.00    +0.000 A 
ATOM     18  C   UNL     1       1.983   5.696  19.996  0.00  0.00    +0.000 A 
ATOM     19  C   UNL     1       1.598   6.768  20.820  0.00  0.00    +0.000 A 
ATOM     20  C   UNL     1       1.660   8.086  20.358  0.00  0.00    +0.000 A 
ATOM     21  C   UNL     1       2.037   8.286  19.022  0.00  0.00    +0.000 A 
ATOM     22  C   UNL     1       2.439   7.233  18.204  0.00  0.00    +0.000 A 
BRANCH  17  23
ATOM     23  C   UNL     1       2.937   4.804  17.802  0.00  0.00    +0.000 C 
BRANCH  23  28
ATOM     24  C   UNL     1       6.990   4.956  15.223  0.00  0.00    +0.000 C 
ATOM     25  N   UNL     1       6.387   4.441  16.448  0.00  0.00    +0.000 NA
ATOM     26  C   UNL     1       5.284   3.510  16.149  0.00  0.00    +0.000 C 
ATOM     27  C   UNL     1       4.574   3.006  17.428  0.00  0.00    +0.000 C 
ATOM     28  N   UNL     1       4.092   4.068  18.340  0.00  0.00    +0.000 NA
ATOM     29  C   UNL     1       5.223   4.991  18.594  0.00  0.00    +0.000 C 
ATOM     30  C   UNL     1       5.918   5.533  17.318  0.00  0.00    +0.000 C 
ENDBRANCH  23  28
ENDBRANCH  17  23
ENDBRANCH   1  20
BRANCH   5  31
ATOM     31  C   UNL     1      -2.773  12.990  20.895  0.00  0.00    +0.000 C 
ATOM     32  C   UNL     1      -3.167  13.938  21.997  0.00  0.00    +0.000 C 
ATOM     33  C   UNL     1      -2.473  14.474  20.779  0.00  0.00    +0.000 C 
ENDBRANCH   5  31
TORSDOF 5
ENDMDL
MODEL 6
REMARK VINA RESULT:      -7.8      0.902      1.261
REMARK  Name = 
REMARK  6 active torsions:
REMARK  status: ('A' for Active; 'I' for Inactive)
REMARK    1  A    between atoms: C_1  and  N_2
REMARK    2  A    between atoms: N_5  and  C_6
REMARK    3  A    between atoms: C_6  and  C_7
REMARK    4  A    between atoms: C_10  and  N_11
REMARK    5  A    between atoms: C_15  and  C_16
REMARK    6  A    between atoms: C_19  and  C_20
REMARK                            x       y       z     vdW  Elec       q    Type
REMARK                         _______ _______ _______ _____ _____    ______ ____
ROOT
ATOM      1  N   UNL     1       7.106   5.954  18.154  0.00  0.00    +0.000 N 
ATOM      2  C   UNL     1       5.777   5.527  18.195  0.00  0.00    +0.000 A 
ATOM      3  N   UNL     1       5.509   4.231  18.014  0.00  0.00    +0.000 NA
ATOM      4  C   UNL     1       4.199   3.872  18.028  0.00  0.00    +0.000 A 
ATOM      5  C   UNL     1       3.122   4.720  18.264  0.00  0.00    +0.000 A 
ATOM      6  C   UNL     1       3.526   6.032  18.512  0.00  0.00    +0.000 A 
ATOM      7  N   UNL     1       4.816   6.417  18.455  0.00  0.00    +0.000 NA
ATOM      8  H   UNL     1       7.736   5.199  18.376  0.00  0.00    +0.000 HD
ENDROOT
BRANCH   6   9
ATOM      9  C   UNL     1       2.612   7.158  18.841  0.00  0.00    +0.000 A 
ATOM     10  C   UNL     1       2.226   8.086  17.850  0.00  0.00    +0.000 A 
ATOM     11  C   UNL     1       1.354   9.142  18.128  0.00  0.00    +0.000 A 
ATOM     12  C   UNL     1       0.833   9.276  19.409  0.00  0.00    +0.000 A 
ATOM     13  F   UNL     1      -0.031  10.268  19.653  0.00  0.00    +0.000 F 
ATOM     14  C   UNL     1       1.213   8.398  20.414  0.00  0.00    +0.000 A 
ATOM     15 CL   UNL     1       0.558   8.530  22.000  0.00  0.00    +0.000 Cl
ATOM     16  C   UNL     1       2.124   7.377  20.140  0.00  0.00    +0.000 A 
ENDBRANCH   6   9
BRANCH   1  20
ATOM     17  C   UNL     1       8.814   9.832  18.155  0.00  0.00    +0.000 A 
ATOM     18  C   UNL     1       7.790   9.503  17.255  0.00  0.00    +0.000 A 
ATOM     19  C   UNL     1       7.185   8.235  17.288  0.00  0.00    +0.000 A 
ATOM     20  C   UNL     1       7.589   7.271  18.216  0.00  0.00    +0.000 A 
ATOM     21  C   UNL     1       8.554   7.649  19.162  0.00  0.00    +0.000 A 
ATOM     22  C   UNL     1       9.173   8.895  19.125  0.00  0.00    +0.000 A 
BRANCH  17  23
ATOM     23  C   UNL     1       9.543  11.158  18.098  0.00  0.00    +0.000 C 
BRANCH  23  28
ATOM     24  C   UNL     1      11.779  15.411  18.158  0.00  0.00    +0.000 C 
ATOM     25  N   UNL     1      11.497  14.213  18.942  0.00  0.00    +0.000 NA
ATOM     26  C   UNL     1      12.077  13.015  18.311  0.00  0.00    +0.000 C 
ATOM     27  C   UNL     1      11.729  11.717  19.078  0.00  0.00    +0.000 C 
ATOM     28  N   UNL     1      10.285  11.498  19.322  0.00  0.00    +0.000 NA
ATOM     29  C   UNL     1       9.739  12.733  19.933  0.00  0.00    +0.000 C 
ATOM     30  C   UNL     1      10.050  14.036  19.152  0.00  0.00    +0.000 C 
ENDBRANCH  23  28
ENDBRANCH  17  23
ENDBRANCH   1  20
BRANCH   5  31
ATOM     31  C   UNL     1       1.667   4.286  18.207  0.00  0.00    +0.000 C 
ATOM     32  C   UNL     1       1.171   2.871  18.354  0.00  0.00    +0.000 C 
ATOM     33  C   UNL     1       0.994   3.834  19.492  0.00  0.00    +0.000 C 
ENDBRANCH   5  31
TORSDOF 5
ENDMDL
MODEL 7
REMARK VINA RESULT:      -7.8      0.950      1.270
REMARK  Name = 
REMARK  6 active torsions:
REMARK  status: ('A' for Active; 'I' for Inactive)
REMARK    1  A    between atoms: C_1  and  N_2
REMARK    2  A    between atoms: N_5  and  C_6
REMARK    3  A    between atoms: C_6  and  C_7
REMARK    4  A    between atoms: C_10  and  N_11
REMARK    5  A    between atoms: C_15  and  C_16
REMARK    6  A    between atoms: C_19  and  C_20
REMARK                            x       y       z     vdW  Elec       q    Type
REMARK                         _______ _______ _______ _____ _____    ______ ____
ROOT
ATOM      1  N   UNL     1       7.199   5.694  18.025  0.00  0.00    +0.000 N 
ATOM      2  C   UNL     1       5.853   5.326  18.050  0.00  0.00    +0.000 A 
ATOM      3  N   UNL     1       5.526   4.051  17.819  0.00  0.00    +0.000 NA
ATOM      4  C   UNL     1       4.201   3.753  17.820  0.00  0.00    +0.000 A 
ATOM      5  C   UNL     1       3.163   4.639  18.087  0.00  0.00    +0.000 A 
ATOM      6  C   UNL     1       3.626   5.921  18.384  0.00  0.00    +0.000 A 
ATOM      7  N   UNL     1       4.933   6.250  18.342  0.00  0.00    +0.000 NA
ATOM      8  H   UNL     1       7.794   4.903  18.219  0.00  0.00    +0.000 HD
ENDROOT
BRANCH   6   9
ATOM      9  C   UNL     1       2.764   7.076  18.755  0.00  0.00    +0.000 A 
ATOM     10  C   UNL     1       2.433   8.063  17.802  0.00  0.00    +0.000 A 
ATOM     11  C   UNL     1       1.609   9.146  18.119  0.00  0.00    +0.000 A 
ATOM     12  C   UNL     1       1.083   9.250  19.401  0.00  0.00    +0.000 A 
ATOM     13  F   UNL     1       0.264  10.271  19.681  0.00  0.00    +0.000 F 
ATOM     14  C   UNL     1       1.410   8.312  20.369  0.00  0.00    +0.000 A 
ATOM     15 CL   UNL     1       0.747   8.407  21.955  0.00  0.00    +0.000 Cl
ATOM     16  C   UNL     1       2.275   7.261  20.058  0.00  0.00    +0.000 A 
ENDBRANCH   6   9
BRANCH   1  20
ATOM     17  C   UNL     1       8.573   9.670  18.534  0.00  0.00    +0.000 A 
ATOM     18  C   UNL     1       9.015   8.648  19.386  0.00  0.00    +0.000 A 
ATOM     19  C   UNL     1       8.602   7.319  19.187  0.00  0.00    +0.000 A 
ATOM     20  C   UNL     1       7.742   6.984  18.137  0.00  0.00    +0.000 A 
ATOM     21  C   UNL     1       7.380   8.006  17.247  0.00  0.00    +0.000 A 
ATOM     22  C   UNL     1       7.767   9.329  17.447  0.00  0.00    +0.000 A 
BRANCH  17  23
ATOM     23  C   UNL     1       8.930  11.123  18.764  0.00  0.00    +0.000 C 
BRANCH  23  28
ATOM     24  C   UNL     1      10.772  15.525  19.340  0.00  0.00    +0.000 C 
ATOM     25  N   UNL     1      10.374  14.530  18.349  0.00  0.00    +0.000 NA
ATOM     26  C   UNL     1       8.929  14.253  18.422  0.00  0.00    +0.000 C 
ATOM     27  C   UNL     1       8.490  13.145  17.435  0.00  0.00    +0.000 C 
ATOM     28  N   UNL     1       9.243  11.875  17.539  0.00  0.00    +0.000 NA
ATOM     29  C   UNL     1      10.688  12.202  17.485  0.00  0.00    +0.000 C 
ATOM     30  C   UNL     1      11.146  13.285  18.497  0.00  0.00    +0.000 C 
ENDBRANCH  23  28
ENDBRANCH  17  23
ENDBRANCH   1  20
BRANCH   5  31
ATOM     31  C   UNL     1       1.690   4.275  18.013  0.00  0.00    +0.000 C 
ATOM     32  C   UNL     1       1.126   2.886  18.156  0.00  0.00    +0.000 C 
ATOM     33  C   UNL     1       0.982   3.858  19.290  0.00  0.00    +0.000 C 
ENDBRANCH   5  31
TORSDOF 5
ENDMDL
MODEL 8
REMARK VINA RESULT:      -7.8      1.241      1.731
REMARK  Name = 
REMARK  6 active torsions:
REMARK  status: ('A' for Active; 'I' for Inactive)
REMARK    1  A    between atoms: C_1  and  N_2
REMARK    2  A    between atoms: N_5  and  C_6
REMARK    3  A    between atoms: C_6  and  C_7
REMARK    4  A    between atoms: C_10  and  N_11
REMARK    5  A    between atoms: C_15  and  C_16
REMARK    6  A    between atoms: C_19  and  C_20
REMARK                            x       y       z     vdW  Elec       q    Type
REMARK                         _______ _______ _______ _____ _____    ______ ____
ROOT
ATOM      1  N   UNL     1       7.521   6.292  18.161  0.00  0.00    +0.000 N 
ATOM      2  C   UNL     1       6.229   5.764  18.133  0.00  0.00    +0.000 A 
ATOM      3  N   UNL     1       6.070   4.453  17.934  0.00  0.00    +0.000 NA
ATOM      4  C   UNL     1       4.792   3.996  17.881  0.00  0.00    +0.000 A 
ATOM      5  C   UNL     1       3.643   4.757  18.065  0.00  0.00    +0.000 A 
ATOM      6  C   UNL     1       3.933   6.094  18.338  0.00  0.00    +0.000 A 
ATOM      7  N   UNL     1       5.191   6.577  18.347  0.00  0.00    +0.000 NA
ATOM      8  H   UNL     1       8.195   5.585  18.412  0.00  0.00    +0.000 HD
ENDROOT
BRANCH   6   9
ATOM      9  C   UNL     1       2.920   7.146  18.624  0.00  0.00    +0.000 A 
ATOM     10  C   UNL     1       2.501   8.037  17.613  0.00  0.00    +0.000 A 
ATOM     11  C   UNL     1       1.537   9.020  17.851  0.00  0.00    +0.000 A 
ATOM     12  C   UNL     1       0.958   9.117  19.110  0.00  0.00    +0.000 A 
ATOM     13  F   UNL     1       0.009  10.038  19.314  0.00  0.00    +0.000 F 
ATOM     14  C   UNL     1       1.367   8.276  20.134  0.00  0.00    +0.000 A 
ATOM     15 CL   UNL     1       0.643   8.361  21.693  0.00  0.00    +0.000 Cl
ATOM     16  C   UNL     1       2.367   7.329  19.902  0.00  0.00    +0.000 A 
ENDBRANCH   6   9
BRANCH   1  20
ATOM     17  C   UNL     1       8.927  10.288  18.262  0.00  0.00    +0.000 A 
ATOM     18  C   UNL     1       7.981   9.888  17.308  0.00  0.00    +0.000 A 
ATOM     19  C   UNL     1       7.473   8.578  17.305  0.00  0.00    +0.000 A 
ATOM     20  C   UNL     1       7.899   7.641  18.252  0.00  0.00    +0.000 A 
ATOM     21  C   UNL     1       8.781   8.085  19.248  0.00  0.00    +0.000 A 
ATOM     22  C   UNL     1       9.305   9.375  19.248  0.00  0.00    +0.000 A 
BRANCH  17  23
ATOM     23  C   UNL     1       9.556  11.666  18.247  0.00  0.00    +0.000 C 
BRANCH  23  28
ATOM     24  C   UNL     1      12.332  15.343  19.611  0.00  0.00    +0.000 C 
ATOM     25  N   UNL     1      12.293  14.127  18.806  0.00  0.00    +0.000 NA
ATOM     26  C   UNL     1      11.298  14.236  17.725  0.00  0.00    +0.000 C 
ATOM     27  C   UNL     1      11.177  12.932  16.900  0.00  0.00    +0.000 C 
ATOM     28  N   UNL     1      10.917  11.708  17.691  0.00  0.00    +0.000 NA
ATOM     29  C   UNL     1      11.923  11.652  18.778  0.00  0.00    +0.000 C 
ATOM     30  C   UNL     1      12.025  12.940  19.636  0.00  0.00    +0.000 C 
ENDBRANCH  23  28
ENDBRANCH  17  23
ENDBRANCH   1  20
BRANCH   5  31
ATOM     31  C   UNL     1       2.230   4.215  17.934  0.00  0.00    +0.000 C 
ATOM     32  C   UNL     1       1.848   2.757  17.959  0.00  0.00    +0.000 C 
ATOM     33  C   UNL     1       1.568   3.611  19.161  0.00  0.00    +0.000 C 
ENDBRANCH   5  31
TORSDOF 5
ENDMDL
MODEL 9
REMARK VINA RESULT:      -7.7      1.542      2.186
REMARK  Name = 
REMARK  6 active torsions:
REMARK  status: ('A' for Active; 'I' for Inactive)
REMARK    1  A    between atoms: C_1  and  N_2
REMARK    2  A    between atoms: N_5  and  C_6
REMARK    3  A    between atoms: C_6  and  C_7
REMARK    4  A    between atoms: C_10  and  N_11
REMARK    5  A    between atoms: C_15  and  C_16
REMARK    6  A    between atoms: C_19  and  C_20
REMARK                            x       y       z     vdW  Elec       q    Type
REMARK                         _______ _______ _______ _____ _____    ______ ____
ROOT
ATOM      1  N   UNL     1       7.690   6.621  17.581  0.00  0.00    +0.000 N 
ATOM      2  C   UNL     1       6.456   5.970  17.572  0.00  0.00    +0.000 A 
ATOM      3  N   UNL     1       6.382   4.731  17.075  0.00  0.00    +0.000 NA
ATOM      4  C   UNL     1       5.152   4.155  17.057  0.00  0.00    +0.000 A 
ATOM      5  C   UNL     1       3.979   4.715  17.553  0.00  0.00    +0.000 A 
ATOM      6  C   UNL     1       4.190   5.975  18.111  0.00  0.00    +0.000 A 
ATOM      7  N   UNL     1       5.392   6.585  18.096  0.00  0.00    +0.000 NA
ATOM      8  H   UNL     1       8.450   5.958  17.571  0.00  0.00    +0.000 HD
ENDROOT
BRANCH   6   9
ATOM      9  C   UNL     1       3.142   6.807  18.762  0.00  0.00    +0.000 A 
ATOM     10  C   UNL     1       2.619   6.451  20.023  0.00  0.00    +0.000 A 
ATOM     11  C   UNL     1       1.649   7.225  20.665  0.00  0.00    +0.000 A 
ATOM     12  C   UNL     1       1.197   8.390  20.058  0.00  0.00    +0.000 A 
ATOM     13  F   UNL     1       0.295   9.143  20.700  0.00  0.00    +0.000 F 
ATOM     14  C   UNL     1       1.669   8.755  18.806  0.00  0.00    +0.000 A 
ATOM     15 CL   UNL     1       1.141  10.209  18.050  0.00  0.00    +0.000 Cl
ATOM     16  C   UNL     1       2.600   7.949  18.149  0.00  0.00    +0.000 A 
ENDBRANCH   6   9
BRANCH   1  20
ATOM     17  C   UNL     1       8.784  10.601  18.543  0.00  0.00    +0.000 A 
ATOM     18  C   UNL     1       7.894  10.339  17.492  0.00  0.00    +0.000 A 
ATOM     19  C   UNL     1       7.488   9.025  17.204  0.00  0.00    +0.000 A 
ATOM     20  C   UNL     1       7.962   7.947  17.958  0.00  0.00    +0.000 A 
ATOM     21  C   UNL     1       8.783   8.237  19.057  0.00  0.00    +0.000 A 
ATOM     22  C   UNL     1       9.207   9.534  19.338  0.00  0.00    +0.000 A 
BRANCH  17  23
ATOM     23  C   UNL     1       9.306  11.992  18.832  0.00  0.00    +0.000 C 
BRANCH  23  28
ATOM     24  C   UNL     1      11.395  15.867  16.905  0.00  0.00    +0.000 C 
ATOM     25  N   UNL     1      11.645  14.634  17.644  0.00  0.00    +0.000 NA
ATOM     26  C   UNL     1      11.269  13.451  16.850  0.00  0.00    +0.000 C 
ATOM     27  C   UNL     1      11.451  12.131  17.636  0.00  0.00    +0.000 C 
ATOM     28  N   UNL     1      10.769  12.082  18.949  0.00  0.00    +0.000 NA
ATOM     29  C   UNL     1      11.156  13.299  19.703  0.00  0.00    +0.000 C 
ATOM     30  C   UNL     1      10.943  14.631  18.939  0.00  0.00    +0.000 C 
ENDBRANCH  23  28
ENDBRANCH  17  23
ENDBRANCH   1  20
BRANCH   5  31
ATOM     31  C   UNL     1       2.612   4.059  17.454  0.00  0.00    +0.000 C 
ATOM     32  C   UNL     1       2.355   2.574  17.441  0.00  0.00    +0.000 C 
ATOM     33  C   UNL     1       2.051   3.363  18.682  0.00  0.00    +0.000 C 
ENDBRANCH   5  31
TORSDOF 5
ENDMDL
