MODEL 1
REMARK VINA RESULT:      -6.4      0.000      0.000
REMARK  Name = 
REMARK  7 active torsions:
REMARK  status: ('A' for Active; 'I' for Inactive)
REMARK    1  A    between atoms: C_1  and  C_2
REMARK    2  A    between atoms: C_2  and  C_3
REMARK    3  A    between atoms: C_2  and  C_10
REMARK    4  A    between atoms: C_10  and  C_11
REMARK    5  A    between atoms: C_10  and  C_14
REMARK    6  A    between atoms: C_11  and  O_13
REMARK    7  A    between atoms: C_14  and  O_16
REMARK                            x       y       z     vdW  Elec       q    Type
REMARK                         _______ _______ _______ _____ _____    ______ ____
ROOT
ATOM      1  C   UNL     1       1.825   5.480  20.560  0.00  0.00    +0.000 C 
ATOM      2  C   UNL     1       2.355   4.657  19.374  0.00  0.00    +0.000 C 
ENDROOT
BRANCH   2   3
ATOM      3  C   UNL     1       3.644   5.277  18.848  0.00  0.00    +0.000 A 
ATOM      4  C   UNL     1       4.902   4.912  19.350  0.00  0.00    +0.000 A 
ATOM      5  C   UNL     1       6.062   5.527  18.869  0.00  0.00    +0.000 A 
ATOM      6  C   UNL     1       5.970   6.500  17.876  0.00  0.00    +0.000 A 
ATOM      7 BR   UNL     1       7.540   7.347  17.240  0.00  0.00    +0.000 Br
ATOM      8  C   UNL     1       4.732   6.864  17.358  0.00  0.00    +0.000 A 
ATOM      9  C   UNL     1       3.573   6.255  17.840  0.00  0.00    +0.000 A 
ENDBRANCH   2   3
BRANCH   2  10
ATOM     10  C   UNL     1       2.517   3.161  19.731  0.00  0.00    +0.000 C 
BRANCH  10  11
ATOM     11  C   UNL     1       1.909   2.854  21.078  0.00  0.00    +0.000 C 
ATOM     12  O   UNL     1       2.592   2.687  22.080  0.00  0.00    +0.000 OA
BRANCH  11  13
ATOM     13  O   UNL     1       0.561   2.787  21.110  0.00  0.00    +0.000 OA
ATOM     14  H   UNL     1       0.191   1.888  21.252  0.00  0.00    +0.000 HD
ENDBRANCH  11  13
ENDBRANCH  10  11
BRANCH  10  15
ATOM     15  C   UNL     1       1.864   2.289  18.697  0.00  0.00    +0.000 C 
ATOM     16  O   UNL     1       0.672   2.380  18.430  0.00  0.00    +0.000 OA
BRANCH  15  17
ATOM     17  O   UNL     1       2.676   1.385  18.107  0.00  0.00    +0.000 OA
ATOM     18  H   UNL     1       3.559   1.711  17.843  0.00  0.00    +0.000 HD
ENDBRANCH  15  17
ENDBRANCH  10  15
ENDBRANCH   2  10
TORSDOF 6
ENDMDL
MODEL 2
REMARK VINA RESULT:      -6.4      4.347      6.200
REMARK  Name = 
REMARK  7 active torsions:
REMARK  status: ('A' for Active; 'I' for Inactive)
REMARK    1  A    between atoms: C_1  and  C_2
REMARK    2  A    between atoms: C_2  and  C_3
REMARK    3  A    between atoms: C_2  and  C_10
REMARK    4  A    between atoms: C_10  and  C_11
REMARK    5  A    between atoms: C_10  and  C_14
REMARK    6  A    between atoms: C_11  and  O_13
REMARK    7  A    between atoms: C_14  and  O_16
REMARK                            x       y       z     vdW  Elec       q    Type
REMARK                         _______ _______ _______ _____ _____    ______ ____
ROOT
ATOM      1  C   UNL     1       4.788   6.801  15.999  0.00  0.00    +0.000 C 
ATOM      2  C   UNL     1       5.157   6.534  17.467  0.00  0.00    +0.000 C 
ENDROOT
BRANCH   2   3
ATOM      3  C   UNL     1       4.104   5.640  18.112  0.00  0.00    +0.000 A 
ATOM      4  C   UNL     1       3.322   4.751  17.359  0.00  0.00    +0.000 A 
ATOM      5  C   UNL     1       2.341   3.971  17.978  0.00  0.00    +0.000 A 
ATOM      6  C   UNL     1       2.144   4.069  19.354  0.00  0.00    +0.000 A 
ATOM      7 BR   UNL     1       0.800   3.029  20.189  0.00  0.00    +0.000 Br
ATOM      8  C   UNL     1       2.918   4.936  20.117  0.00  0.00    +0.000 A 
ATOM      9  C   UNL     1       3.896   5.717  19.501  0.00  0.00    +0.000 A 
ENDBRANCH   2   3
BRANCH   2  10
ATOM     10  C   UNL     1       6.588   5.966  17.614  0.00  0.00    +0.000 C 
BRANCH  10  11
ATOM     11  C   UNL     1       7.002   5.209  16.375  0.00  0.00    +0.000 C 
ATOM     12  O   UNL     1       6.703   4.035  16.197  0.00  0.00    +0.000 OA
BRANCH  11  13
ATOM     13  O   UNL     1       7.713   5.912  15.469  0.00  0.00    +0.000 OA
ATOM     14  H   UNL     1       8.119   5.378  14.750  0.00  0.00    +0.000 HD
ENDBRANCH  11  13
ENDBRANCH  10  11
BRANCH  10  15
ATOM     15  C   UNL     1       7.579   7.067  17.859  0.00  0.00    +0.000 C 
ATOM     16  O   UNL     1       7.664   8.041  17.121  0.00  0.00    +0.000 OA
BRANCH  15  17
ATOM     17  O   UNL     1       8.384   6.892  18.929  0.00  0.00    +0.000 OA
ATOM     18  H   UNL     1       7.961   6.997  19.805  0.00  0.00    +0.000 HD
ENDBRANCH  15  17
ENDBRANCH  10  15
ENDBRANCH   2  10
TORSDOF 6
ENDMDL
MODEL 3
REMARK VINA RESULT:      -6.4      4.480      6.194
REMARK  Name = 
REMARK  7 active torsions:
REMARK  status: ('A' for Active; 'I' for Inactive)
REMARK    1  A    between atoms: C_1  and  C_2
REMARK    2  A    between atoms: C_2  and  C_3
REMARK    3  A    between atoms: C_2  and  C_10
REMARK    4  A    between atoms: C_10  and  C_11
REMARK    5  A    between atoms: C_10  and  C_14
REMARK    6  A    between atoms: C_11  and  O_13
REMARK    7  A    between atoms: C_14  and  O_16
REMARK                            x       y       z     vdW  Elec       q    Type
REMARK                         _______ _______ _______ _____ _____    ______ ____
ROOT
ATOM      1  C   UNL     1       4.861   6.550  15.845  0.00  0.00    +0.000 C 
ATOM      2  C   UNL     1       5.239   5.660  17.039  0.00  0.00    +0.000 C 
ENDROOT
BRANCH   2   3
ATOM      3  C   UNL     1       4.008   4.914  17.540  0.00  0.00    +0.000 A 
ATOM      4  C   UNL     1       3.127   5.479  18.475  0.00  0.00    +0.000 A 
ATOM      5  C   UNL     1       2.027   4.753  18.940  0.00  0.00    +0.000 A 
ATOM      6  C   UNL     1       1.796   3.463  18.464  0.00  0.00    +0.000 A 
ATOM      7 BR   UNL     1       0.317   2.472  19.110  0.00  0.00    +0.000 Br
ATOM      8  C   UNL     1       2.652   2.894  17.528  0.00  0.00    +0.000 A 
ATOM      9  C   UNL     1       3.753   3.616  17.066  0.00  0.00    +0.000 A 
ENDBRANCH   2   3
BRANCH   2  10
ATOM     10  C   UNL     1       6.415   4.712  16.709  0.00  0.00    +0.000 C 
BRANCH  10  11
ATOM     11  C   UNL     1       6.821   4.833  15.260  0.00  0.00    +0.000 C 
ATOM     12  O   UNL     1       6.302   4.161  14.378  0.00  0.00    +0.000 OA
BRANCH  11  13
ATOM     13  O   UNL     1       7.787   5.738  14.996  0.00  0.00    +0.000 OA
ATOM     14  H   UNL     1       8.419   5.481  14.289  0.00  0.00    +0.000 HD
ENDBRANCH  11  13
ENDBRANCH  10  11
BRANCH  10  15
ATOM     15  C   UNL     1       7.607   5.015  17.570  0.00  0.00    +0.000 C 
ATOM     16  O   UNL     1       7.797   6.127  18.049  0.00  0.00    +0.000 OA
BRANCH  15  17
ATOM     17  O   UNL     1       8.464   3.987  17.755  0.00  0.00    +0.000 OA
ATOM     18  H   UNL     1       8.090   3.091  17.635  0.00  0.00    +0.000 HD
ENDBRANCH  15  17
ENDBRANCH  10  15
ENDBRANCH   2  10
TORSDOF 6
ENDMDL
MODEL 4
REMARK VINA RESULT:      -6.4      4.244      5.947
REMARK  Name = 
REMARK  7 active torsions:
REMARK  status: ('A' for Active; 'I' for Inactive)
REMARK    1  A    between atoms: C_1  and  C_2
REMARK    2  A    between atoms: C_2  and  C_3
REMARK    3  A    between atoms: C_2  and  C_10
REMARK    4  A    between atoms: C_10  and  C_11
REMARK    5  A    between atoms: C_10  and  C_14
REMARK    6  A    between atoms: C_11  and  O_13
REMARK    7  A    between atoms: C_14  and  O_16
REMARK                            x       y       z     vdW  Elec       q    Type
REMARK                         _______ _______ _______ _____ _____    ______ ____
ROOT
ATOM      1  C   UNL     1       4.477   6.515  16.900  0.00  0.00    +0.000 C 
ATOM      2  C   UNL     1       5.305   5.721  17.922  0.00  0.00    +0.000 C 
ENDROOT
BRANCH   2   3
ATOM      3  C   UNL     1       4.378   4.961  18.864  0.00  0.00    +0.000 A 
ATOM      4  C   UNL     1       4.520   3.584  19.094  0.00  0.00    +0.000 A 
ATOM      5  C   UNL     1       3.629   2.912  19.937  0.00  0.00    +0.000 A 
ATOM      6  C   UNL     1       2.600   3.615  20.561  0.00  0.00    +0.000 A 
ATOM      7 BR   UNL     1       1.382   2.700  21.685  0.00  0.00    +0.000 Br
ATOM      8  C   UNL     1       2.454   4.982  20.353  0.00  0.00    +0.000 A 
ATOM      9  C   UNL     1       3.339   5.654  19.510  0.00  0.00    +0.000 A 
ENDBRANCH   2   3
BRANCH   2  10
ATOM     10  C   UNL     1       6.344   4.800  17.240  0.00  0.00    +0.000 C 
BRANCH  10  11
ATOM     11  C   UNL     1       6.513   5.157  15.783  0.00  0.00    +0.000 C 
ATOM     12  O   UNL     1       5.739   4.765  14.920  0.00  0.00    +0.000 OA
BRANCH  11  13
ATOM     13  O   UNL     1       7.568   5.948  15.494  0.00  0.00    +0.000 OA
ATOM     14  H   UNL     1       7.551   6.357  14.600  0.00  0.00    +0.000 HD
ENDBRANCH  11  13
ENDBRANCH  10  11
BRANCH  10  15
ATOM     15  C   UNL     1       7.679   4.901  17.920  0.00  0.00    +0.000 C 
ATOM     16  O   UNL     1       8.533   4.029  17.806  0.00  0.00    +0.000 OA
BRANCH  15  17
ATOM     17  O   UNL     1       7.858   6.001  18.682  0.00  0.00    +0.000 OA
ATOM     18  H   UNL     1       8.770   6.158  18.999  0.00  0.00    +0.000 HD
ENDBRANCH  15  17
ENDBRANCH  10  15
ENDBRANCH   2  10
TORSDOF 6
ENDMDL
MODEL 5
REMARK VINA RESULT:      -6.3      3.886      5.296
REMARK  Name = 
REMARK  7 active torsions:
REMARK  status: ('A' for Active; 'I' for Inactive)
REMARK    1  A    between atoms: C_1  and  C_2
REMARK    2  A    between atoms: C_2  and  C_3
REMARK    3  A    between atoms: C_2  and  C_10
REMARK    4  A    between atoms: C_10  and  C_11
REMARK    5  A    between atoms: C_10  and  C_14
REMARK    6  A    between atoms: C_11  and  O_13
REMARK    7  A    between atoms: C_14  and  O_16
REMARK                            x       y       z     vdW  Elec       q    Type
REMARK                         _______ _______ _______ _____ _____    ______ ____
ROOT
ATOM      1  C   UNL     1       4.605   3.319  17.551  0.00  0.00    +0.000 C 
ATOM      2  C   UNL     1       4.648   4.755  17.006  0.00  0.00    +0.000 C 
ENDROOT
BRANCH   2   3
ATOM      3  C   UNL     1       3.788   5.665  17.875  0.00  0.00    +0.000 A 
ATOM      4  C   UNL     1       3.564   7.011  17.546  0.00  0.00    +0.000 A 
ATOM      5  C   UNL     1       2.798   7.827  18.384  0.00  0.00    +0.000 A 
ATOM      6  C   UNL     1       2.243   7.298  19.548  0.00  0.00    +0.000 A 
ATOM      7 BR   UNL     1       1.225   8.409  20.694  0.00  0.00    +0.000 Br
ATOM      8  C   UNL     1       2.445   5.964  19.882  0.00  0.00    +0.000 A 
ATOM      9  C   UNL     1       3.211   5.149  19.049  0.00  0.00    +0.000 A 
ENDBRANCH   2   3
BRANCH   2  10
ATOM     10  C   UNL     1       6.096   5.276  16.852  0.00  0.00    +0.000 C 
BRANCH  10  11
ATOM     11  C   UNL     1       6.982   4.755  17.958  0.00  0.00    +0.000 C 
ATOM     12  O   UNL     1       6.735   4.952  19.140  0.00  0.00    +0.000 OA
BRANCH  11  13
ATOM     13  O   UNL     1       8.059   4.046  17.560  0.00  0.00    +0.000 OA
ATOM     14  H   UNL     1       7.922   3.492  16.759  0.00  0.00    +0.000 HD
ENDBRANCH  11  13
ENDBRANCH  10  11
BRANCH  10  15
ATOM     15  C   UNL     1       6.679   4.860  15.532  0.00  0.00    +0.000 C 
ATOM     16  O   UNL     1       6.300   3.855  14.943  0.00  0.00    +0.000 OA
BRANCH  15  17
ATOM     17  O   UNL     1       7.663   5.655  15.059  0.00  0.00    +0.000 OA
ATOM     18  H   UNL     1       7.381   6.371  14.455  0.00  0.00    +0.000 HD
ENDBRANCH  15  17
ENDBRANCH  10  15
ENDBRANCH   2  10
TORSDOF 6
ENDMDL
MODEL 6
REMARK VINA RESULT:      -6.3      4.234      6.084
REMARK  Name = 
REMARK  7 active torsions:
REMARK  status: ('A' for Active; 'I' for Inactive)
REMARK    1  A    between atoms: C_1  and  C_2
REMARK    2  A    between atoms: C_2  and  C_3
REMARK    3  A    between atoms: C_2  and  C_10
REMARK    4  A    between atoms: C_10  and  C_11
REMARK    5  A    between atoms: C_10  and  C_14
REMARK    6  A    between atoms: C_11  and  O_13
REMARK    7  A    between atoms: C_14  and  O_16
REMARK                            x       y       z     vdW  Elec       q    Type
REMARK                         _______ _______ _______ _____ _____    ______ ____
ROOT
ATOM      1  C   UNL     1       4.626   6.219  16.655  0.00  0.00    +0.000 C 
ATOM      2  C   UNL     1       5.286   5.901  18.007  0.00  0.00    +0.000 C 
ENDROOT
BRANCH   2   3
ATOM      3  C   UNL     1       4.315   5.122  18.887  0.00  0.00    +0.000 A 
ATOM      4  C   UNL     1       3.238   5.745  19.536  0.00  0.00    +0.000 A 
ATOM      5  C   UNL     1       2.388   5.006  20.364  0.00  0.00    +0.000 A 
ATOM      6  C   UNL     1       2.604   3.641  20.539  0.00  0.00    +0.000 A 
ATOM      7 BR   UNL     1       1.466   2.646  21.679  0.00  0.00    +0.000 Br
ATOM      8  C   UNL     1       3.659   3.006  19.894  0.00  0.00    +0.000 A 
ATOM      9  C   UNL     1       4.511   3.742  19.069  0.00  0.00    +0.000 A 
ENDBRANCH   2   3
BRANCH   2  10
ATOM     10  C   UNL     1       6.643   5.180  17.836  0.00  0.00    +0.000 C 
BRANCH  10  11
ATOM     11  C   UNL     1       7.093   5.202  16.395  0.00  0.00    +0.000 C 
ATOM     12  O   UNL     1       7.651   6.172  15.900  0.00  0.00    +0.000 OA
BRANCH  11  13
ATOM     13  O   UNL     1       6.852   4.076  15.690  0.00  0.00    +0.000 OA
ATOM     14  H   UNL     1       6.328   3.392  16.162  0.00  0.00    +0.000 HD
ENDBRANCH  11  13
ENDBRANCH  10  11
BRANCH  10  15
ATOM     15  C   UNL     1       7.703   5.824  18.682  0.00  0.00    +0.000 C 
ATOM     16  O   UNL     1       8.284   5.213  19.571  0.00  0.00    +0.000 OA
BRANCH  15  17
ATOM     17  O   UNL     1       7.948   7.124  18.411  0.00  0.00    +0.000 OA
ATOM     18  H   UNL     1       8.889   7.371  18.311  0.00  0.00    +0.000 HD
ENDBRANCH  15  17
ENDBRANCH  10  15
ENDBRANCH   2  10
TORSDOF 6
ENDMDL
MODEL 7
REMARK VINA RESULT:      -6.3      4.316      6.109
REMARK  Name = 
REMARK  7 active torsions:
REMARK  status: ('A' for Active; 'I' for Inactive)
REMARK    1  A    between atoms: C_1  and  C_2
REMARK    2  A    between atoms: C_2  and  C_3
REMARK    3  A    between atoms: C_2  and  C_10
REMARK    4  A    between atoms: C_10  and  C_11
REMARK    5  A    between atoms: C_10  and  C_14
REMARK    6  A    between atoms: C_11  and  O_13
REMARK    7  A    between atoms: C_14  and  O_16
REMARK                            x       y       z     vdW  Elec       q    Type
REMARK                         _______ _______ _______ _____ _____    ______ ____
ROOT
ATOM      1  C   UNL     1       4.843   6.715  15.916  0.00  0.00    +0.000 C 
ATOM      2  C   UNL     1       5.154   6.578  17.415  0.00  0.00    +0.000 C 
ENDROOT
BRANCH   2   3
ATOM      3  C   UNL     1       4.076   5.742  18.094  0.00  0.00    +0.000 A 
ATOM      4  C   UNL     1       3.744   5.915  19.447  0.00  0.00    +0.000 A 
ATOM      5  C   UNL     1       2.774   5.107  20.047  0.00  0.00    +0.000 A 
ATOM      6  C   UNL     1       2.123   4.130  19.295  0.00  0.00    +0.000 A 
ATOM      7 BR   UNL     1       0.825   3.021  20.114  0.00  0.00    +0.000 Br
ATOM      8  C   UNL     1       2.431   3.954  17.951  0.00  0.00    +0.000 A 
ATOM      9  C   UNL     1       3.401   4.757  17.351  0.00  0.00    +0.000 A 
ENDBRANCH   2   3
BRANCH   2  10
ATOM     10  C   UNL     1       6.578   6.027  17.665  0.00  0.00    +0.000 C 
BRANCH  10  11
ATOM     11  C   UNL     1       7.047   5.184  16.504  0.00  0.00    +0.000 C 
ATOM     12  O   UNL     1       7.677   5.656  15.567  0.00  0.00    +0.000 OA
BRANCH  11  13
ATOM     13  O   UNL     1       6.737   3.872  16.571  0.00  0.00    +0.000 OA
ATOM     14  H   UNL     1       6.094   3.560  15.896  0.00  0.00    +0.000 HD
ENDBRANCH  11  13
ENDBRANCH  10  11
BRANCH  10  15
ATOM     15  C   UNL     1       7.557   7.146  17.875  0.00  0.00    +0.000 C 
ATOM     16  O   UNL     1       7.581   8.132  17.148  0.00  0.00    +0.000 OA
BRANCH  15  17
ATOM     17  O   UNL     1       8.421   6.974  18.898  0.00  0.00    +0.000 OA
ATOM     18  H   UNL     1       9.210   7.553  18.894  0.00  0.00    +0.000 HD
ENDBRANCH  15  17
ENDBRANCH  10  15
ENDBRANCH   2  10
TORSDOF 6
ENDMDL
MODEL 8
REMARK VINA RESULT:      -6.3      0.589      1.530
REMARK  Name = 
REMARK  7 active torsions:
REMARK  status: ('A' for Active; 'I' for Inactive)
REMARK    1  A    between atoms: C_1  and  C_2
REMARK    2  A    between atoms: C_2  and  C_3
REMARK    3  A    between atoms: C_2  and  C_10
REMARK    4  A    between atoms: C_10  and  C_11
REMARK    5  A    between atoms: C_10  and  C_14
REMARK    6  A    between atoms: C_11  and  O_13
REMARK    7  A    between atoms: C_14  and  O_16
REMARK                            x       y       z     vdW  Elec       q    Type
REMARK                         _______ _______ _______ _____ _____    ______ ____
ROOT
ATOM      1  C   UNL     1       1.714   5.574  20.524  0.00  0.00    +0.000 C 
ATOM      2  C   UNL     1       2.316   4.705  19.409  0.00  0.00    +0.000 C 
ENDROOT
BRANCH   2   3
ATOM      3  C   UNL     1       3.588   5.354  18.874  0.00  0.00    +0.000 A 
ATOM      4  C   UNL     1       3.559   6.298  17.837  0.00  0.00    +0.000 A 
ATOM      5  C   UNL     1       4.748   6.847  17.347  0.00  0.00    +0.000 A 
ATOM      6  C   UNL     1       5.969   6.464  17.899  0.00  0.00    +0.000 A 
ATOM      7 BR   UNL     1       7.579   7.192  17.220  0.00  0.00    +0.000 Br
ATOM      8  C   UNL     1       6.013   5.539  18.936  0.00  0.00    +0.000 A 
ATOM      9  C   UNL     1       4.829   4.987  19.424  0.00  0.00    +0.000 A 
ENDBRANCH   2   3
BRANCH   2  10
ATOM     10  C   UNL     1       2.542   3.245  19.867  0.00  0.00    +0.000 C 
BRANCH  10  11
ATOM     11  C   UNL     1       1.428   2.781  20.773  0.00  0.00    +0.000 C 
ATOM     12  O   UNL     1       1.621   2.478  21.943  0.00  0.00    +0.000 OA
BRANCH  11  13
ATOM     13  O   UNL     1       0.200   2.732  20.213  0.00  0.00    +0.000 OA
ATOM     14  H   UNL     1      -0.364   1.983  20.509  0.00  0.00    +0.000 HD
ENDBRANCH  11  13
ENDBRANCH  10  11
BRANCH  10  15
ATOM     15  C   UNL     1       2.622   2.318  18.688  0.00  0.00    +0.000 C 
ATOM     16  O   UNL     1       3.451   1.418  18.624  0.00  0.00    +0.000 OA
BRANCH  15  17
ATOM     17  O   UNL     1       1.738   2.566  17.697  0.00  0.00    +0.000 OA
ATOM     18  H   UNL     1       1.279   1.785  17.328  0.00  0.00    +0.000 HD
ENDBRANCH  15  17
ENDBRANCH  10  15
ENDBRANCH   2  10
TORSDOF 6
ENDMDL
MODEL 9
REMARK VINA RESULT:      -6.3      3.951      5.294
REMARK  Name = 
REMARK  7 active torsions:
REMARK  status: ('A' for Active; 'I' for Inactive)
REMARK    1  A    between atoms: C_1  and  C_2
REMARK    2  A    between atoms: C_2  and  C_3
REMARK    3  A    between atoms: C_2  and  C_10
REMARK    4  A    between atoms: C_10  and  C_11
REMARK    5  A    between atoms: C_10  and  C_14
REMARK    6  A    between atoms: C_11  and  O_13
REMARK    7  A    between atoms: C_14  and  O_16
REMARK                            x       y       z     vdW  Elec       q    Type
REMARK                         _______ _______ _______ _____ _____    ______ ____
ROOT
ATOM      1  C   UNL     1       4.603   3.396  17.147  0.00  0.00    +0.000 C 
ATOM      2  C   UNL     1       4.682   4.872  16.726  0.00  0.00    +0.000 C 
ENDROOT
BRANCH   2   3
ATOM      3  C   UNL     1       3.874   5.731  17.692  0.00  0.00    +0.000 A 
ATOM      4  C   UNL     1       3.336   5.208  18.878  0.00  0.00    +0.000 A 
ATOM      5  C   UNL     1       2.569   6.015  19.723  0.00  0.00    +0.000 A 
ATOM      6  C   UNL     1       2.348   7.351  19.393  0.00  0.00    +0.000 A 
ATOM      7 BR   UNL     1       1.292   8.438  20.528  0.00  0.00    +0.000 Br
ATOM      8  C   UNL     1       2.885   7.888  18.229  0.00  0.00    +0.000 A 
ATOM      9  C   UNL     1       3.647   7.083  17.381  0.00  0.00    +0.000 A 
ENDBRANCH   2   3
BRANCH   2  10
ATOM     10  C   UNL     1       6.143   5.357  16.579  0.00  0.00    +0.000 C 
BRANCH  10  11
ATOM     11  C   UNL     1       7.016   4.796  17.676  0.00  0.00    +0.000 C 
ATOM     12  O   UNL     1       6.784   4.994  18.861  0.00  0.00    +0.000 OA
BRANCH  11  13
ATOM     13  O   UNL     1       8.063   4.050  17.266  0.00  0.00    +0.000 OA
ATOM     14  H   UNL     1       8.553   3.588  17.982  0.00  0.00    +0.000 HD
ENDBRANCH  11  13
ENDBRANCH  10  11
BRANCH  10  15
ATOM     15  C   UNL     1       6.714   4.948  15.252  0.00  0.00    +0.000 C 
ATOM     16  O   UNL     1       6.273   3.993  14.622  0.00  0.00    +0.000 OA
BRANCH  15  17
ATOM     17  O   UNL     1       7.759   5.686  14.820  0.00  0.00    +0.000 OA
ATOM     18  H   UNL     1       7.778   5.881  13.861  0.00  0.00    +0.000 HD
ENDBRANCH  15  17
ENDBRANCH  10  15
ENDBRANCH   2  10
TORSDOF 6
ENDMDL
