MODEL 1
REMARK VINA RESULT:      -8.5      0.000      0.000
REMARK  Name = 
REMARK  10 active torsions:
REMARK  status: ('A' for Active; 'I' for Inactive)
REMARK    1  A    between atoms: C_1  and  C_2
REMARK    2  A    between atoms: C_2  and  C_3
REMARK    3  A    between atoms: C_2  and  C_4
REMARK    4  A    between atoms: C_2  and  O_5
REMARK    5  A    between atoms: O_5  and  C_6
REMARK    6  A    between atoms: C_10  and  C_11
REMARK    7  A    between atoms: C_18  and  O_19
REMARK    8  A    between atoms: O_19  and  C_20
REMARK    9  A    between atoms: C_20  and  C_21
REMARK   10  A    between atoms: C_24  and  C_25
REMARK                            x       y       z     vdW  Elec       q    Type
REMARK                         _______ _______ _______ _____ _____    ______ ____
ROOT
ATOM      1  C   UNL     1       5.113   5.964  17.246  0.00  0.00    +0.000 A 
ATOM      2  C   UNL     1       5.651   5.108  16.280  0.00  0.00    +0.000 A 
ATOM      3  C   UNL     1       4.932   4.017  15.812  0.00  0.00    +0.000 A 
ATOM      4  C   UNL     1       3.705   3.710  16.392  0.00  0.00    +0.000 A 
ATOM      5  C   UNL     1       3.147   4.509  17.413  0.00  0.00    +0.000 A 
ATOM      6  C   UNL     1       3.805   5.705  17.776  0.00  0.00    +0.000 A 
ENDROOT
BRANCH   5   7
ATOM      7  C   UNL     1       2.041   3.822  18.150  0.00  0.00    +0.000 C 
ATOM      8  O   UNL     1       0.900   4.040  17.722  0.00  0.00    +0.000 OA
ATOM      9  N   UNL     1       2.225   3.033  19.270  0.00  0.00    +0.000 N 
ATOM     10  C   UNL     1       1.065   2.451  19.932  0.00  0.00    +0.000 C 
ATOM     11  C   UNL     1       1.270   2.840  21.384  0.00  0.00    +0.000 C 
ATOM     12  C   UNL     1       2.774   2.663  21.546  0.00  0.00    +0.000 C 
ATOM     13  C   UNL     1       3.351   3.080  20.190  0.00  0.00    +0.000 C 
ENDBRANCH   5   7
BRANCH   1  14
ATOM     14  O   UNL     1       5.879   6.970  17.791  0.00  0.00    +0.000 OA
BRANCH  14  16
ATOM     15  C   UNL     1       7.874   8.450  17.827  0.00  0.00    +0.000 C 
ATOM     16  C   UNL     1       7.323   7.025  17.683  0.00  0.00    +0.000 C 
ATOM     17  C   UNL     1       7.842   6.312  16.426  0.00  0.00    +0.000 C 
ATOM     18  C   UNL     1       7.873   6.207  18.879  0.00  0.00    +0.000 C 
ENDBRANCH  14  16
ENDBRANCH   1  14
BRANCH   6  19
ATOM     19  O   UNL     1       3.144   6.603  18.610  0.00  0.00    +0.000 OA
BRANCH  19  20
ATOM     20  C   UNL     1       2.633   7.714  17.852  0.00  0.00    +0.000 C 
BRANCH  20  21
ATOM     21  C   UNL     1       1.742   8.721  18.512  0.00  0.00    +0.000 A 
ATOM     22  C   UNL     1       1.626   8.843  19.888  0.00  0.00    +0.000 A 
ATOM     23  S   UNL     1       0.256   9.774  20.289  0.00  0.00    +0.000 S 
ATOM     24  C   UNL     1      -0.145   9.888  18.616  0.00  0.00    +0.000 A 
ATOM     25  N   UNL     1       0.751   9.367  17.798  0.00  0.00    +0.000 NA
BRANCH  24  26
ATOM     26  C   UNL     1      -1.468  10.366  18.180  0.00  0.00    +0.000 A 
ATOM     27  C   UNL     1      -2.056  10.008  16.958  0.00  0.00    +0.000 A 
ATOM     28  C   UNL     1      -3.277  10.564  16.566  0.00  0.00    +0.000 A 
ATOM     29  C   UNL     1      -3.920  11.484  17.394  0.00  0.00    +0.000 A 
ATOM     30 CL   UNL     1      -5.404  12.193  16.891  0.00  0.00    +0.000 Cl
ATOM     31  C   UNL     1      -3.365  11.839  18.616  0.00  0.00    +0.000 A 
ATOM     32  C   UNL     1      -2.145  11.280  19.010  0.00  0.00    +0.000 A 
ENDBRANCH  24  26
ENDBRANCH  20  21
ENDBRANCH  19  20
ENDBRANCH   6  19
TORSDOF 7
ENDMDL
MODEL 2
REMARK VINA RESULT:      -8.2      0.351      1.197
REMARK  Name = 
REMARK  10 active torsions:
REMARK  status: ('A' for Active; 'I' for Inactive)
REMARK    1  A    between atoms: C_1  and  C_2
REMARK    2  A    between atoms: C_2  and  C_3
REMARK    3  A    between atoms: C_2  and  C_4
REMARK    4  A    between atoms: C_2  and  O_5
REMARK    5  A    between atoms: O_5  and  C_6
REMARK    6  A    between atoms: C_10  and  C_11
REMARK    7  A    between atoms: C_18  and  O_19
REMARK    8  A    between atoms: O_19  and  C_20
REMARK    9  A    between atoms: C_20  and  C_21
REMARK   10  A    between atoms: C_24  and  C_25
REMARK                            x       y       z     vdW  Elec       q    Type
REMARK                         _______ _______ _______ _____ _____    ______ ____
ROOT
ATOM      1  C   UNL     1       4.990   6.022  17.168  0.00  0.00    +0.000 A 
ATOM      2  C   UNL     1       5.395   5.091  16.208  0.00  0.00    +0.000 A 
ATOM      3  C   UNL     1       4.609   3.988  15.905  0.00  0.00    +0.000 A 
ATOM      4  C   UNL     1       3.454   3.751  16.645  0.00  0.00    +0.000 A 
ATOM      5  C   UNL     1       3.033   4.631  17.665  0.00  0.00    +0.000 A 
ATOM      6  C   UNL     1       3.750   5.832  17.865  0.00  0.00    +0.000 A 
ENDROOT
BRANCH   5   7
ATOM      7  C   UNL     1       2.012   4.022  18.573  0.00  0.00    +0.000 C 
ATOM      8  O   UNL     1       0.865   4.477  18.465  0.00  0.00    +0.000 OA
ATOM      9  N   UNL     1       2.290   3.056  19.522  0.00  0.00    +0.000 N 
ATOM     10  C   UNL     1       1.220   2.570  20.382  0.00  0.00    +0.000 C 
ATOM     11  C   UNL     1       1.812   2.703  21.773  0.00  0.00    +0.000 C 
ATOM     12  C   UNL     1       3.254   2.271  21.540  0.00  0.00    +0.000 C 
ATOM     13  C   UNL     1       3.581   2.790  20.137  0.00  0.00    +0.000 C 
ENDBRANCH   5   7
BRANCH   1  14
ATOM     14  O   UNL     1       5.831   7.045  17.549  0.00  0.00    +0.000 OA
BRANCH  14  16
ATOM     15  C   UNL     1       7.509   5.947  19.015  0.00  0.00    +0.000 C 
ATOM     16  C   UNL     1       7.245   6.861  17.811  0.00  0.00    +0.000 C 
ATOM     17  C   UNL     1       7.999   8.195  17.902  0.00  0.00    +0.000 C 
ATOM     18  C   UNL     1       7.822   6.144  16.565  0.00  0.00    +0.000 C 
ENDBRANCH  14  16
ENDBRANCH   1  14
BRANCH   6  19
ATOM     19  O   UNL     1       3.207   6.800  18.706  0.00  0.00    +0.000 OA
BRANCH  19  20
ATOM     20  C   UNL     1       2.460   7.768  17.945  0.00  0.00    +0.000 C 
BRANCH  20  21
ATOM     21  C   UNL     1       1.612   8.779  18.653  0.00  0.00    +0.000 A 
ATOM     22  C   UNL     1       1.470   8.816  20.032  0.00  0.00    +0.000 A 
ATOM     23  S   UNL     1       0.147   9.798  20.467  0.00  0.00    +0.000 S 
ATOM     24  C   UNL     1      -0.206  10.047  18.798  0.00  0.00    +0.000 A 
ATOM     25  N   UNL     1       0.678   9.529  17.965  0.00  0.00    +0.000 NA
BRANCH  24  26
ATOM     26  C   UNL     1      -1.488  10.630  18.368  0.00  0.00    +0.000 A 
ATOM     27  C   UNL     1      -2.227  11.534  19.146  0.00  0.00    +0.000 A 
ATOM     28  C   UNL     1      -3.478  11.986  18.717  0.00  0.00    +0.000 A 
ATOM     29  C   UNL     1      -4.002  11.536  17.505  0.00  0.00    +0.000 A 
ATOM     30 CL   UNL     1      -5.557  12.066  16.998  0.00  0.00    +0.000 Cl
ATOM     31  C   UNL     1      -3.279  10.655  16.710  0.00  0.00    +0.000 A 
ATOM     32  C   UNL     1      -2.025  10.206  17.138  0.00  0.00    +0.000 A 
ENDBRANCH  24  26
ENDBRANCH  20  21
ENDBRANCH  19  20
ENDBRANCH   6  19
TORSDOF 7
ENDMDL
MODEL 3
REMARK VINA RESULT:      -8.1      4.296      9.582
REMARK  Name = 
REMARK  10 active torsions:
REMARK  status: ('A' for Active; 'I' for Inactive)
REMARK    1  A    between atoms: C_1  and  C_2
REMARK    2  A    between atoms: C_2  and  C_3
REMARK    3  A    between atoms: C_2  and  C_4
REMARK    4  A    between atoms: C_2  and  O_5
REMARK    5  A    between atoms: O_5  and  C_6
REMARK    6  A    between atoms: C_10  and  C_11
REMARK    7  A    between atoms: C_18  and  O_19
REMARK    8  A    between atoms: O_19  and  C_20
REMARK    9  A    between atoms: C_20  and  C_21
REMARK   10  A    between atoms: C_24  and  C_25
REMARK                            x       y       z     vdW  Elec       q    Type
REMARK                         _______ _______ _______ _____ _____    ______ ____
ROOT
ATOM      1  C   UNL     1      -0.935  11.982  18.548  0.00  0.00    +0.000 A 
ATOM      2  C   UNL     1      -0.638  13.269  18.090  0.00  0.00    +0.000 A 
ATOM      3  C   UNL     1      -0.346  14.294  18.979  0.00  0.00    +0.000 A 
ATOM      4  C   UNL     1      -0.457  14.062  20.346  0.00  0.00    +0.000 A 
ATOM      5  C   UNL     1      -0.812  12.795  20.857  0.00  0.00    +0.000 A 
ATOM      6  C   UNL     1      -0.954  11.715  19.957  0.00  0.00    +0.000 A 
ENDROOT
BRANCH   5   7
ATOM      7  C   UNL     1      -1.239  12.844  22.290  0.00  0.00    +0.000 C 
ATOM      8  O   UNL     1      -0.401  12.447  23.110  0.00  0.00    +0.000 OA
ATOM      9  N   UNL     1      -2.493  13.245  22.715  0.00  0.00    +0.000 N 
ATOM     10  C   UNL     1      -2.811  13.209  24.136  0.00  0.00    +0.000 C 
ATOM     11  C   UNL     1      -4.124  12.449  24.172  0.00  0.00    +0.000 C 
ATOM     12  C   UNL     1      -4.839  13.004  22.947  0.00  0.00    +0.000 C 
ATOM     13  C   UNL     1      -3.718  13.240  21.931  0.00  0.00    +0.000 C 
ENDBRANCH   5   7
BRANCH   1  14
ATOM     14  O   UNL     1      -1.341  11.004  17.667  0.00  0.00    +0.000 OA
BRANCH  14  16
ATOM     15  C   UNL     1      -2.795  10.990  15.653  0.00  0.00    +0.000 C 
ATOM     16  C   UNL     1      -2.701  10.881  17.180  0.00  0.00    +0.000 C 
ATOM     17  C   UNL     1      -3.668  11.830  17.904  0.00  0.00    +0.000 C 
ATOM     18  C   UNL     1      -3.164   9.452  17.559  0.00  0.00    +0.000 C 
ENDBRANCH  14  16
ENDBRANCH   1  14
BRANCH   6  19
ATOM     19  O   UNL     1      -1.076  10.428  20.474  0.00  0.00    +0.000 OA
BRANCH  19  20
ATOM     20  C   UNL     1       0.188   9.971  20.991  0.00  0.00    +0.000 C 
BRANCH  20  21
ATOM     21  C   UNL     1       1.152   9.266  20.087  0.00  0.00    +0.000 A 
ATOM     22  C   UNL     1       1.416   9.680  18.791  0.00  0.00    +0.000 A 
ATOM     23  S   UNL     1       2.221   8.451  17.926  0.00  0.00    +0.000 S 
ATOM     24  C   UNL     1       2.095   7.416  19.299  0.00  0.00    +0.000 A 
ATOM     25  N   UNL     1       1.593   7.989  20.377  0.00  0.00    +0.000 NA
BRANCH  24  26
ATOM     26  C   UNL     1       2.363   5.971  19.192  0.00  0.00    +0.000 A 
ATOM     27  C   UNL     1       2.200   5.073  20.257  0.00  0.00    +0.000 A 
ATOM     28  C   UNL     1       2.552   3.728  20.114  0.00  0.00    +0.000 A 
ATOM     29  C   UNL     1       3.072   3.270  18.903  0.00  0.00    +0.000 A 
ATOM     30 CL   UNL     1       3.538   1.623  18.742  0.00  0.00    +0.000 Cl
ATOM     31  C   UNL     1       3.225   4.139  17.829  0.00  0.00    +0.000 A 
ATOM     32  C   UNL     1       2.868   5.484  17.972  0.00  0.00    +0.000 A 
ENDBRANCH  24  26
ENDBRANCH  20  21
ENDBRANCH  19  20
ENDBRANCH   6  19
TORSDOF 7
ENDMDL
MODEL 4
REMARK VINA RESULT:      -8.0      4.936     10.252
REMARK  Name = 
REMARK  10 active torsions:
REMARK  status: ('A' for Active; 'I' for Inactive)
REMARK    1  A    between atoms: C_1  and  C_2
REMARK    2  A    between atoms: C_2  and  C_3
REMARK    3  A    between atoms: C_2  and  C_4
REMARK    4  A    between atoms: C_2  and  O_5
REMARK    5  A    between atoms: O_5  and  C_6
REMARK    6  A    between atoms: C_10  and  C_11
REMARK    7  A    between atoms: C_18  and  O_19
REMARK    8  A    between atoms: O_19  and  C_20
REMARK    9  A    between atoms: C_20  and  C_21
REMARK   10  A    between atoms: C_24  and  C_25
REMARK                            x       y       z     vdW  Elec       q    Type
REMARK                         _______ _______ _______ _____ _____    ______ ____
ROOT
ATOM      1  C   UNL     1      -4.856  13.012  21.296  0.00  0.00    +0.000 A 
ATOM      2  C   UNL     1      -6.142  12.525  21.548  0.00  0.00    +0.000 A 
ATOM      3  C   UNL     1      -6.782  11.695  20.640  0.00  0.00    +0.000 A 
ATOM      4  C   UNL     1      -6.178  11.431  19.414  0.00  0.00    +0.000 A 
ATOM      5  C   UNL     1      -4.906  11.947  19.088  0.00  0.00    +0.000 A 
ATOM      6  C   UNL     1      -4.189  12.662  20.075  0.00  0.00    +0.000 A 
ENDROOT
BRANCH   5   7
ATOM      7  C   UNL     1      -4.604  11.872  17.625  0.00  0.00    +0.000 C 
ATOM      8  O   UNL     1      -5.469  12.350  16.878  0.00  0.00    +0.000 OA
ATOM      9  N   UNL     1      -3.479  11.271  17.091  0.00  0.00    +0.000 N 
ATOM     10  C   UNL     1      -3.315  11.219  15.645  0.00  0.00    +0.000 C 
ATOM     11  C   UNL     1      -3.013   9.754  15.388  0.00  0.00    +0.000 C 
ATOM     12  C   UNL     1      -2.107   9.412  16.564  0.00  0.00    +0.000 C 
ATOM     13  C   UNL     1      -2.660  10.247  17.722  0.00  0.00    +0.000 C 
ENDBRANCH   5   7
BRANCH   1  14
ATOM     14  O   UNL     1      -4.278  13.931  22.144  0.00  0.00    +0.000 OA
BRANCH  14  16
ATOM     15  C   UNL     1      -3.768  12.258  23.909  0.00  0.00    +0.000 C 
ATOM     16  C   UNL     1      -4.116  13.714  23.568  0.00  0.00    +0.000 C 
ATOM     17  C   UNL     1      -5.306  14.245  24.379  0.00  0.00    +0.000 C 
ATOM     18  C   UNL     1      -2.904  14.579  23.997  0.00  0.00    +0.000 C 
ENDBRANCH  14  16
ENDBRANCH   1  14
BRANCH   6  19
ATOM     19  O   UNL     1      -2.853  12.970  19.836  0.00  0.00    +0.000 OA
BRANCH  19  20
ATOM     20  C   UNL     1      -1.993  12.169  20.667  0.00  0.00    +0.000 C 
BRANCH  20  21
ATOM     21  C   UNL     1      -0.601  11.852  20.215  0.00  0.00    +0.000 A 
ATOM     22  C   UNL     1       0.103  12.644  19.322  0.00  0.00    +0.000 A 
ATOM     23  S   UNL     1       1.457  11.802  18.718  0.00  0.00    +0.000 S 
ATOM     24  C   UNL     1       0.977  10.409  19.614  0.00  0.00    +0.000 A 
ATOM     25  N   UNL     1      -0.060  10.596  20.410  0.00  0.00    +0.000 NA
BRANCH  24  26
ATOM     26  C   UNL     1       1.578   9.090  19.353  0.00  0.00    +0.000 A 
ATOM     27  C   UNL     1       2.092   8.707  18.105  0.00  0.00    +0.000 A 
ATOM     28  C   UNL     1       2.573   7.410  17.901  0.00  0.00    +0.000 A 
ATOM     29  C   UNL     1       2.541   6.484  18.944  0.00  0.00    +0.000 A 
ATOM     30 CL   UNL     1       3.099   4.880  18.678  0.00  0.00    +0.000 Cl
ATOM     31  C   UNL     1       2.053   6.848  20.193  0.00  0.00    +0.000 A 
ATOM     32  C   UNL     1       1.577   8.147  20.398  0.00  0.00    +0.000 A 
ENDBRANCH  24  26
ENDBRANCH  20  21
ENDBRANCH  19  20
ENDBRANCH   6  19
TORSDOF 7
ENDMDL
MODEL 5
REMARK VINA RESULT:      -7.5      4.969     10.729
REMARK  Name = 
REMARK  10 active torsions:
REMARK  status: ('A' for Active; 'I' for Inactive)
REMARK    1  A    between atoms: C_1  and  C_2
REMARK    2  A    between atoms: C_2  and  C_3
REMARK    3  A    between atoms: C_2  and  C_4
REMARK    4  A    between atoms: C_2  and  O_5
REMARK    5  A    between atoms: O_5  and  C_6
REMARK    6  A    between atoms: C_10  and  C_11
REMARK    7  A    between atoms: C_18  and  O_19
REMARK    8  A    between atoms: O_19  and  C_20
REMARK    9  A    between atoms: C_20  and  C_21
REMARK   10  A    between atoms: C_24  and  C_25
REMARK                            x       y       z     vdW  Elec       q    Type
REMARK                         _______ _______ _______ _____ _____    ______ ____
ROOT
ATOM      1  C   UNL     1      -4.712  11.165  18.833  0.00  0.00    +0.000 A 
ATOM      2  C   UNL     1      -5.938  10.609  18.457  0.00  0.00    +0.000 A 
ATOM      3  C   UNL     1      -7.131  11.092  18.977  0.00  0.00    +0.000 A 
ATOM      4  C   UNL     1      -7.096  12.069  19.967  0.00  0.00    +0.000 A 
ATOM      5  C   UNL     1      -5.880  12.620  20.424  0.00  0.00    +0.000 A 
ATOM      6  C   UNL     1      -4.679  12.240  19.782  0.00  0.00    +0.000 A 
ENDROOT
BRANCH   5   7
ATOM      7  C   UNL     1      -6.023  13.355  21.719  0.00  0.00    +0.000 C 
ATOM      8  O   UNL     1      -6.199  12.644  22.718  0.00  0.00    +0.000 OA
ATOM      9  N   UNL     1      -6.021  14.732  21.837  0.00  0.00    +0.000 N 
ATOM     10  C   UNL     1      -6.214  15.337  23.148  0.00  0.00    +0.000 C 
ATOM     11  C   UNL     1      -7.321  16.344  22.900  0.00  0.00    +0.000 C 
ATOM     12  C   UNL     1      -6.940  16.895  21.532  0.00  0.00    +0.000 C 
ATOM     13  C   UNL     1      -6.343  15.693  20.795  0.00  0.00    +0.000 C 
ENDBRANCH   5   7
BRANCH   1  14
ATOM     14  O   UNL     1      -3.530  10.601  18.407  0.00  0.00    +0.000 OA
BRANCH  14  16
ATOM     15  C   UNL     1      -1.695  11.989  17.469  0.00  0.00    +0.000 C 
ATOM     16  C   UNL     1      -2.841  11.006  17.197  0.00  0.00    +0.000 C 
ATOM     17  C   UNL     1      -3.809  11.506  16.114  0.00  0.00    +0.000 C 
ATOM     18  C   UNL     1      -2.203   9.718  16.617  0.00  0.00    +0.000 C 
ENDBRANCH  14  16
ENDBRANCH   1  14
BRANCH   6  19
ATOM     19  O   UNL     1      -3.516  12.948  20.073  0.00  0.00    +0.000 OA
BRANCH  19  20
ATOM     20  C   UNL     1      -2.859  12.388  21.225  0.00  0.00    +0.000 C 
BRANCH  20  21
ATOM     21  C   UNL     1      -1.398  12.066  21.168  0.00  0.00    +0.000 A 
ATOM     22  C   UNL     1      -0.413  13.033  21.044  0.00  0.00    +0.000 A 
ATOM     23  S   UNL     1       1.071  12.320  20.603  0.00  0.00    +0.000 S 
ATOM     24  C   UNL     1       0.296  10.782  20.521  0.00  0.00    +0.000 A 
ATOM     25  N   UNL     1      -0.964  10.778  20.916  0.00  0.00    +0.000 NA
BRANCH  24  26
ATOM     26  C   UNL     1       0.955   9.628  19.887  0.00  0.00    +0.000 A 
ATOM     27  C   UNL     1       1.338   8.474  20.587  0.00  0.00    +0.000 A 
ATOM     28  C   UNL     1       2.037   7.449  19.942  0.00  0.00    +0.000 A 
ATOM     29  C   UNL     1       2.360   7.572  18.591  0.00  0.00    +0.000 A 
ATOM     30 CL   UNL     1       3.251   6.325  17.810  0.00  0.00    +0.000 Cl
ATOM     31  C   UNL     1       1.975   8.697  17.874  0.00  0.00    +0.000 A 
ATOM     32  C   UNL     1       1.272   9.721  18.519  0.00  0.00    +0.000 A 
ENDBRANCH  24  26
ENDBRANCH  20  21
ENDBRANCH  19  20
ENDBRANCH   6  19
TORSDOF 7
ENDMDL
MODEL 6
REMARK VINA RESULT:      -7.5      3.401      6.341
REMARK  Name = 
REMARK  10 active torsions:
REMARK  status: ('A' for Active; 'I' for Inactive)
REMARK    1  A    between atoms: C_1  and  C_2
REMARK    2  A    between atoms: C_2  and  C_3
REMARK    3  A    between atoms: C_2  and  C_4
REMARK    4  A    between atoms: C_2  and  O_5
REMARK    5  A    between atoms: O_5  and  C_6
REMARK    6  A    between atoms: C_10  and  C_11
REMARK    7  A    between atoms: C_18  and  O_19
REMARK    8  A    between atoms: O_19  and  C_20
REMARK    9  A    between atoms: C_20  and  C_21
REMARK   10  A    between atoms: C_24  and  C_25
REMARK                            x       y       z     vdW  Elec       q    Type
REMARK                         _______ _______ _______ _____ _____    ______ ____
ROOT
ATOM      1  C   UNL     1       2.461   6.943  19.424  0.00  0.00    +0.000 A 
ATOM      2  C   UNL     1       3.341   6.967  18.339  0.00  0.00    +0.000 A 
ATOM      3  C   UNL     1       3.354   8.034  17.453  0.00  0.00    +0.000 A 
ATOM      4  C   UNL     1       2.404   9.042  17.586  0.00  0.00    +0.000 A 
ATOM      5  C   UNL     1       1.455   9.033  18.631  0.00  0.00    +0.000 A 
ATOM      6  C   UNL     1       1.544   8.029  19.621  0.00  0.00    +0.000 A 
ENDROOT
BRANCH   5   7
ATOM      7  C   UNL     1       0.313   9.968  18.387  0.00  0.00    +0.000 C 
ATOM      8  O   UNL     1      -0.630   9.500  17.735  0.00  0.00    +0.000 OA
ATOM      9  N   UNL     1       0.288  11.289  18.795  0.00  0.00    +0.000 N 
ATOM     10  C   UNL     1      -0.862  12.118  18.461  0.00  0.00    +0.000 C 
ATOM     11  C   UNL     1      -0.228  13.348  17.839  0.00  0.00    +0.000 C 
ATOM     12  C   UNL     1       0.994  13.551  18.726  0.00  0.00    +0.000 C 
ATOM     13  C   UNL     1       1.439  12.130  19.084  0.00  0.00    +0.000 C 
ENDBRANCH   5   7
BRANCH   1  14
ATOM     14  O   UNL     1       2.371   5.827  20.227  0.00  0.00    +0.000 OA
BRANCH  14  16
ATOM     15  C   UNL     1       3.441   3.616  19.855  0.00  0.00    +0.000 C 
ATOM     16  C   UNL     1       2.184   4.485  19.711  0.00  0.00    +0.000 C 
ATOM     17  C   UNL     1       1.620   4.481  18.284  0.00  0.00    +0.000 C 
ATOM     18  C   UNL     1       1.086   3.837  20.592  0.00  0.00    +0.000 C 
ENDBRANCH  14  16
ENDBRANCH   1  14
BRANCH   6  19
ATOM     19  O   UNL     1       0.762   8.152  20.766  0.00  0.00    +0.000 OA
BRANCH  19  20
ATOM     20  C   UNL     1       1.313   9.146  21.650  0.00  0.00    +0.000 C 
BRANCH  20  21
ATOM     21  C   UNL     1       0.410  10.148  22.300  0.00  0.00    +0.000 A 
ATOM     22  C   UNL     1      -0.767   9.801  22.945  0.00  0.00    +0.000 A 
ATOM     23  S   UNL     1      -1.733  11.181  23.202  0.00  0.00    +0.000 S 
ATOM     24  C   UNL     1      -0.569  12.141  22.368  0.00  0.00    +0.000 A 
ATOM     25  N   UNL     1       0.531  11.496  22.024  0.00  0.00    +0.000 NA
BRANCH  24  26
ATOM     26  C   UNL     1      -0.883  13.512  21.930  0.00  0.00    +0.000 A 
ATOM     27  C   UNL     1      -2.099  13.874  21.332  0.00  0.00    +0.000 A 
ATOM     28  C   UNL     1      -2.302  15.174  20.862  0.00  0.00    +0.000 A 
ATOM     29  C   UNL     1      -1.287  16.124  20.985  0.00  0.00    +0.000 A 
ATOM     30 CL   UNL     1      -1.527  17.713  20.373  0.00  0.00    +0.000 Cl
ATOM     31  C   UNL     1      -0.082  15.792  21.590  0.00  0.00    +0.000 A 
ATOM     32  C   UNL     1       0.119  14.491  22.064  0.00  0.00    +0.000 A 
ENDBRANCH  24  26
ENDBRANCH  20  21
ENDBRANCH  19  20
ENDBRANCH   6  19
TORSDOF 7
ENDMDL
MODEL 7
REMARK VINA RESULT:      -7.5      4.073      7.951
REMARK  Name = 
REMARK  10 active torsions:
REMARK  status: ('A' for Active; 'I' for Inactive)
REMARK    1  A    between atoms: C_1  and  C_2
REMARK    2  A    between atoms: C_2  and  C_3
REMARK    3  A    between atoms: C_2  and  C_4
REMARK    4  A    between atoms: C_2  and  O_5
REMARK    5  A    between atoms: O_5  and  C_6
REMARK    6  A    between atoms: C_10  and  C_11
REMARK    7  A    between atoms: C_18  and  O_19
REMARK    8  A    between atoms: O_19  and  C_20
REMARK    9  A    between atoms: C_20  and  C_21
REMARK   10  A    between atoms: C_24  and  C_25
REMARK                            x       y       z     vdW  Elec       q    Type
REMARK                         _______ _______ _______ _____ _____    ______ ____
ROOT
ATOM      1  C   UNL     1       1.681   8.600  19.470  0.00  0.00    +0.000 A 
ATOM      2  C   UNL     1       1.290   8.315  20.781  0.00  0.00    +0.000 A 
ATOM      3  C   UNL     1       1.405   7.032  21.297  0.00  0.00    +0.000 A 
ATOM      4  C   UNL     1       1.815   5.996  20.464  0.00  0.00    +0.000 A 
ATOM      5  C   UNL     1       2.164   6.223  19.116  0.00  0.00    +0.000 A 
ATOM      6  C   UNL     1       2.196   7.552  18.636  0.00  0.00    +0.000 A 
ENDROOT
BRANCH   5   7
ATOM      7  C   UNL     1       2.207   4.966  18.306  0.00  0.00    +0.000 C 
ATOM      8  O   UNL     1       1.248   4.790  17.544  0.00  0.00    +0.000 OA
ATOM      9  N   UNL     1       3.200   4.009  18.407  0.00  0.00    +0.000 N 
ATOM     10  C   UNL     1       3.112   2.800  17.598  0.00  0.00    +0.000 C 
ATOM     11  C   UNL     1       3.307   1.693  18.616  0.00  0.00    +0.000 C 
ATOM     12  C   UNL     1       4.387   2.282  19.514  0.00  0.00    +0.000 C 
ATOM     13  C   UNL     1       4.074   3.780  19.547  0.00  0.00    +0.000 C 
ENDBRANCH   5   7
BRANCH   1  14
ATOM     14  O   UNL     1       1.450   9.845  18.927  0.00  0.00    +0.000 OA
BRANCH  14  16
ATOM     15  C   UNL     1      -0.341  10.572  20.488  0.00  0.00    +0.000 C 
ATOM     16  C   UNL     1       0.188  10.549  19.048  0.00  0.00    +0.000 C 
ATOM     17  C   UNL     1      -0.857  10.050  18.039  0.00  0.00    +0.000 C 
ATOM     18  C   UNL     1       0.477  12.018  18.650  0.00  0.00    +0.000 C 
ENDBRANCH  14  16
ENDBRANCH   1  14
BRANCH   6  19
ATOM     19  O   UNL     1       2.758   7.796  17.386  0.00  0.00    +0.000 OA
BRANCH  19  20
ATOM     20  C   UNL     1       4.187   7.929  17.492  0.00  0.00    +0.000 C 
BRANCH  20  21
ATOM     21  C   UNL     1       5.070   6.760  17.179  0.00  0.00    +0.000 A 
ATOM     22  C   UNL     1       6.279   6.532  17.817  0.00  0.00    +0.000 A 
ATOM     23  S   UNL     1       7.198   5.382  16.956  0.00  0.00    +0.000 S 
ATOM     24  C   UNL     1       5.971   5.321  15.747  0.00  0.00    +0.000 A 
ATOM     25  N   UNL     1       4.887   6.022  16.025  0.00  0.00    +0.000 NA
BRANCH  24  26
ATOM     26  C   UNL     1       6.217   4.681  14.443  0.00  0.00    +0.000 A 
ATOM     27  C   UNL     1       5.374   3.707  13.887  0.00  0.00    +0.000 A 
ATOM     28  C   UNL     1       5.708   3.078  12.685  0.00  0.00    +0.000 A 
ATOM     29  C   UNL     1       6.891   3.417  12.028  0.00  0.00    +0.000 A 
ATOM     30 CL   UNL     1       7.317   2.615  10.568  0.00  0.00    +0.000 Cl
ATOM     31  C   UNL     1       7.731   4.393  12.551  0.00  0.00    +0.000 A 
ATOM     32  C   UNL     1       7.394   5.025  13.752  0.00  0.00    +0.000 A 
ENDBRANCH  24  26
ENDBRANCH  20  21
ENDBRANCH  19  20
ENDBRANCH   6  19
TORSDOF 7
ENDMDL
MODEL 8
REMARK VINA RESULT:      -7.4      4.747     10.244
REMARK  Name = 
REMARK  10 active torsions:
REMARK  status: ('A' for Active; 'I' for Inactive)
REMARK    1  A    between atoms: C_1  and  C_2
REMARK    2  A    between atoms: C_2  and  C_3
REMARK    3  A    between atoms: C_2  and  C_4
REMARK    4  A    between atoms: C_2  and  O_5
REMARK    5  A    between atoms: O_5  and  C_6
REMARK    6  A    between atoms: C_10  and  C_11
REMARK    7  A    between atoms: C_18  and  O_19
REMARK    8  A    between atoms: O_19  and  C_20
REMARK    9  A    between atoms: C_20  and  C_21
REMARK   10  A    between atoms: C_24  and  C_25
REMARK                            x       y       z     vdW  Elec       q    Type
REMARK                         _______ _______ _______ _____ _____    ______ ____
ROOT
ATOM      1  C   UNL     1      -3.590  12.151  18.786  0.00  0.00    +0.000 A 
ATOM      2  C   UNL     1      -4.959  12.114  18.507  0.00  0.00    +0.000 A 
ATOM      3  C   UNL     1      -5.888  12.587  19.423  0.00  0.00    +0.000 A 
ATOM      4  C   UNL     1      -5.456  13.004  20.678  0.00  0.00    +0.000 A 
ATOM      5  C   UNL     1      -4.089  13.005  21.030  0.00  0.00    +0.000 A 
ATOM      6  C   UNL     1      -3.134  12.672  20.043  0.00  0.00    +0.000 A 
ENDROOT
BRANCH   5   7
ATOM      7  C   UNL     1      -3.868  13.120  22.505  0.00  0.00    +0.000 C 
ATOM      8  O   UNL     1      -4.374  12.222  23.191  0.00  0.00    +0.000 OA
ATOM      9  N   UNL     1      -3.199  14.167  23.112  0.00  0.00    +0.000 N 
ATOM     10  C   UNL     1      -3.084  14.194  24.564  0.00  0.00    +0.000 C 
ATOM     11  C   UNL     1      -3.562  15.590  24.918  0.00  0.00    +0.000 C 
ATOM     12  C   UNL     1      -2.951  16.421  23.798  0.00  0.00    +0.000 C 
ATOM     13  C   UNL     1      -3.007  15.504  22.573  0.00  0.00    +0.000 C 
ENDBRANCH   5   7
BRANCH   1  14
ATOM     14  O   UNL     1      -2.685  11.570  17.926  0.00  0.00    +0.000 OA
BRANCH  14  16
ATOM     15  C   UNL     1      -3.583  10.626  15.811  0.00  0.00    +0.000 C 
ATOM     16  C   UNL     1      -2.955  10.353  17.184  0.00  0.00    +0.000 C 
ATOM     17  C   UNL     1      -3.750   9.331  18.008  0.00  0.00    +0.000 C 
ATOM     18  C   UNL     1      -1.576   9.695  16.926  0.00  0.00    +0.000 C 
ENDBRANCH  14  16
ENDBRANCH   1  14
BRANCH   6  19
ATOM     19  O   UNL     1      -1.787  12.894  20.318  0.00  0.00    +0.000 OA
BRANCH  19  20
ATOM     20  C   UNL     1      -1.156  11.678  20.762  0.00  0.00    +0.000 C 
BRANCH  20  21
ATOM     21  C   UNL     1       0.102  11.207  20.100  0.00  0.00    +0.000 A 
ATOM     22  C   UNL     1       0.644  11.819  18.981  0.00  0.00    +0.000 A 
ATOM     23  S   UNL     1       1.813  10.810  18.258  0.00  0.00    +0.000 S 
ATOM     24  C   UNL     1       1.467   9.589  19.426  0.00  0.00    +0.000 A 
ATOM     25  N   UNL     1       0.621   9.955  20.371  0.00  0.00    +0.000 NA
BRANCH  24  26
ATOM     26  C   UNL     1       1.950   8.209  19.252  0.00  0.00    +0.000 A 
ATOM     27  C   UNL     1       1.802   7.209  20.225  0.00  0.00    +0.000 A 
ATOM     28  C   UNL     1       2.357   5.941  20.032  0.00  0.00    +0.000 A 
ATOM     29  C   UNL     1       3.067   5.663  18.864  0.00  0.00    +0.000 A 
ATOM     30 CL   UNL     1       3.779   4.113  18.646  0.00  0.00    +0.000 Cl
ATOM     31  C   UNL     1       3.210   6.632  17.879  0.00  0.00    +0.000 A 
ATOM     32  C   UNL     1       2.650   7.900  18.071  0.00  0.00    +0.000 A 
ENDBRANCH  24  26
ENDBRANCH  20  21
ENDBRANCH  19  20
ENDBRANCH   6  19
TORSDOF 7
ENDMDL
MODEL 9
REMARK VINA RESULT:      -7.4      7.410     10.837
REMARK  Name = 
REMARK  10 active torsions:
REMARK  status: ('A' for Active; 'I' for Inactive)
REMARK    1  A    between atoms: C_1  and  C_2
REMARK    2  A    between atoms: C_2  and  C_3
REMARK    3  A    between atoms: C_2  and  C_4
REMARK    4  A    between atoms: C_2  and  O_5
REMARK    5  A    between atoms: O_5  and  C_6
REMARK    6  A    between atoms: C_10  and  C_11
REMARK    7  A    between atoms: C_18  and  O_19
REMARK    8  A    between atoms: O_19  and  C_20
REMARK    9  A    between atoms: C_20  and  C_21
REMARK   10  A    between atoms: C_24  and  C_25
REMARK                            x       y       z     vdW  Elec       q    Type
REMARK                         _______ _______ _______ _____ _____    ______ ____
ROOT
ATOM      1  C   UNL     1      -5.991  12.857  21.203  0.00  0.00    +0.000 A 
ATOM      2  C   UNL     1      -7.112  12.027  21.290  0.00  0.00    +0.000 A 
ATOM      3  C   UNL     1      -7.341  11.034  20.349  0.00  0.00    +0.000 A 
ATOM      4  C   UNL     1      -6.500  10.936  19.244  0.00  0.00    +0.000 A 
ATOM      5  C   UNL     1      -5.389  11.789  19.080  0.00  0.00    +0.000 A 
ATOM      6  C   UNL     1      -5.067  12.694  20.117  0.00  0.00    +0.000 A 
ENDROOT
BRANCH   5   7
ATOM      7  C   UNL     1      -4.849  11.781  17.685  0.00  0.00    +0.000 C 
ATOM      8  O   UNL     1      -5.635  12.166  16.808  0.00  0.00    +0.000 OA
ATOM      9  N   UNL     1      -3.588  11.331  17.340  0.00  0.00    +0.000 N 
ATOM     10  C   UNL     1      -3.188  11.329  15.939  0.00  0.00    +0.000 C 
ATOM     11  C   UNL     1      -2.672   9.917  15.734  0.00  0.00    +0.000 C 
ATOM     12  C   UNL     1      -1.932   9.663  17.041  0.00  0.00    +0.000 C 
ATOM     13  C   UNL     1      -2.761  10.402  18.094  0.00  0.00    +0.000 C 
ENDBRANCH   5   7
BRANCH   1  14
ATOM     14  O   UNL     1      -5.836  13.916  22.071  0.00  0.00    +0.000 OA
BRANCH  14  16
ATOM     15  C   UNL     1      -4.931  12.677  24.024  0.00  0.00    +0.000 C 
ATOM     16  C   UNL     1      -5.869  13.779  23.514  0.00  0.00    +0.000 C 
ATOM     17  C   UNL     1      -7.299  13.640  24.055  0.00  0.00    +0.000 C 
ATOM     18  C   UNL     1      -5.340  15.120  24.082  0.00  0.00    +0.000 C 
ENDBRANCH  14  16
ENDBRANCH   1  14
BRANCH   6  19
ATOM     19  O   UNL     1      -3.850  13.367  20.061  0.00  0.00    +0.000 OA
BRANCH  19  20
ATOM     20  C   UNL     1      -2.951  12.870  21.069  0.00  0.00    +0.000 C 
BRANCH  20  21
ATOM     21  C   UNL     1      -1.586  12.392  20.680  0.00  0.00    +0.000 A 
ATOM     22  C   UNL     1      -0.970  11.299  21.269  0.00  0.00    +0.000 A 
ATOM     23  S   UNL     1       0.694  11.281  20.897  0.00  0.00    +0.000 S 
ATOM     24  C   UNL     1       0.510  12.770  20.047  0.00  0.00    +0.000 A 
ATOM     25  N   UNL     1      -0.737  13.194  19.942  0.00  0.00    +0.000 NA
BRANCH  24  26
ATOM     26  C   UNL     1       1.680  13.568  19.644  0.00  0.00    +0.000 A 
ATOM     27  C   UNL     1       1.914  13.989  18.327  0.00  0.00    +0.000 A 
ATOM     28  C   UNL     1       3.088  14.672  17.995  0.00  0.00    +0.000 A 
ATOM     29  C   UNL     1       4.039  14.939  18.981  0.00  0.00    +0.000 A 
ATOM     30 CL   UNL     1       5.497  15.747  18.562  0.00  0.00    +0.000 Cl
ATOM     31  C   UNL     1       3.819  14.548  20.295  0.00  0.00    +0.000 A 
ATOM     32  C   UNL     1       2.642  13.868  20.627  0.00  0.00    +0.000 A 
ENDBRANCH  24  26
ENDBRANCH  20  21
ENDBRANCH  19  20
ENDBRANCH   6  19
TORSDOF 7
ENDMDL
