MODEL 1
REMARK VINA RESULT:      -7.8      0.000      0.000
REMARK  Name = 
REMARK  13 active torsions:
REMARK  status: ('A' for Active; 'I' for Inactive)
REMARK    1  A    between atoms: C_1  and  C_2
REMARK    2  A    between atoms: C_2  and  C_3
REMARK    3  A    between atoms: C_2  and  C_4
REMARK    4  A    between atoms: C_8  and  C_9
REMARK    5  A    between atoms: C_9  and  C_10
REMARK    6  A    between atoms: C_9  and  C_11
REMARK    7  A    between atoms: C_12  and  N_13
REMARK    8  A    between atoms: N_13  and  N_14
REMARK    9  A    between atoms: C_15  and  C_17
REMARK   10  A    between atoms: C_20  and  C_21
REMARK   11  A    between atoms: C_21  and  C_22
REMARK   12  A    between atoms: C_21  and  C_23
REMARK   13  A    between atoms: C_21  and  C_24
REMARK                            x       y       z     vdW  Elec       q    Type
REMARK                         _______ _______ _______ _____ _____    ______ ____
ROOT
ATOM      1  N   UNL     1       4.321   5.670  19.591  0.00  0.00    +0.000 N 
ATOM      2  H   UNL     1       3.878   4.994  20.221  0.00  0.00    +0.000 HD
ENDROOT
BRANCH   1   8
ATOM      3  C   UNL     1       3.946   4.065  17.671  0.00  0.00    +0.000 A 
ATOM      4  C   UNL     1       4.377   3.638  16.394  0.00  0.00    +0.000 A 
ATOM      5  C   UNL     1       5.553   4.103  15.828  0.00  0.00    +0.000 A 
ATOM      6  C   UNL     1       6.359   4.964  16.555  0.00  0.00    +0.000 A 
ATOM      7  C   UNL     1       5.984   5.427  17.835  0.00  0.00    +0.000 A 
ATOM      8  C   UNL     1       4.709   5.056  18.365  0.00  0.00    +0.000 A 
BRANCH   3  10
ATOM      9  C   UNL     1       1.423   4.158  17.697  0.00  0.00    +0.000 C 
ATOM     10  C   UNL     1       2.668   3.408  18.197  0.00  0.00    +0.000 C 
ATOM     11  C   UNL     1       2.554   1.916  17.836  0.00  0.00    +0.000 C 
ENDBRANCH   3  10
BRANCH   7  12
ATOM     12  C   UNL     1       6.995   6.372  18.495  0.00  0.00    +0.000 C 
ATOM     13  C   UNL     1       8.046   5.592  19.286  0.00  0.00    +0.000 C 
ATOM     14  C   UNL     1       7.647   7.435  17.608  0.00  0.00    +0.000 C 
ENDBRANCH   7  12
ENDBRANCH   1   8
BRANCH   1  15
ATOM     15  N   UNL     1       3.581   6.853  19.504  0.00  0.00    +0.000 N 
ATOM     16  C   UNL     1       2.309   6.894  20.065  0.00  0.00    +0.000 C 
ATOM     17  O   UNL     1       1.792   5.979  20.693  0.00  0.00    +0.000 OA
ATOM     18  H   UNL     1       4.079   7.696  19.247  0.00  0.00    +0.000 HD
BRANCH  16  19
ATOM     19  C   UNL     1       1.559   8.159  19.817  0.00  0.00    +0.000 A 
ATOM     20  C   UNL     1       1.623   8.769  18.564  0.00  0.00    +0.000 A 
ATOM     21  C   UNL     1       0.885   9.927  18.294  0.00  0.00    +0.000 A 
ATOM     22  C   UNL     1       0.054  10.509  19.263  0.00  0.00    +0.000 A 
ATOM     23  C   UNL     1      -0.004   9.873  20.522  0.00  0.00    +0.000 A 
ATOM     24  C   UNL     1       0.729   8.704  20.796  0.00  0.00    +0.000 A 
BRANCH  22  25
ATOM     25  C   UNL     1      -0.777  11.774  18.970  0.00  0.00    +0.000 C 
ATOM     26  C   UNL     1      -1.811  11.584  17.837  0.00  0.00    +0.000 C 
ATOM     27  C   UNL     1      -1.562  12.194  20.232  0.00  0.00    +0.000 C 
ATOM     28  C   UNL     1       0.148  12.930  18.544  0.00  0.00    +0.000 C 
ENDBRANCH  22  25
ENDBRANCH  16  19
ENDBRANCH   1  15
TORSDOF 6
ENDMDL
MODEL 2
REMARK VINA RESULT:      -7.8      0.634      1.274
REMARK  Name = 
REMARK  13 active torsions:
REMARK  status: ('A' for Active; 'I' for Inactive)
REMARK    1  A    between atoms: C_1  and  C_2
REMARK    2  A    between atoms: C_2  and  C_3
REMARK    3  A    between atoms: C_2  and  C_4
REMARK    4  A    between atoms: C_8  and  C_9
REMARK    5  A    between atoms: C_9  and  C_10
REMARK    6  A    between atoms: C_9  and  C_11
REMARK    7  A    between atoms: C_12  and  N_13
REMARK    8  A    between atoms: N_13  and  N_14
REMARK    9  A    between atoms: C_15  and  C_17
REMARK   10  A    between atoms: C_20  and  C_21
REMARK   11  A    between atoms: C_21  and  C_22
REMARK   12  A    between atoms: C_21  and  C_23
REMARK   13  A    between atoms: C_21  and  C_24
REMARK                            x       y       z     vdW  Elec       q    Type
REMARK                         _______ _______ _______ _____ _____    ______ ____
ROOT
ATOM      1  N   UNL     1       4.501   5.252  19.057  0.00  0.00    +0.000 N 
ATOM      2  H   UNL     1       3.952   4.491  19.467  0.00  0.00    +0.000 HD
ENDROOT
BRANCH   1   8
ATOM      3  C   UNL     1       4.540   3.868  16.939  0.00  0.00    +0.000 A 
ATOM      4  C   UNL     1       5.138   3.673  15.674  0.00  0.00    +0.000 A 
ATOM      5  C   UNL     1       6.273   4.368  15.288  0.00  0.00    +0.000 A 
ATOM      6  C   UNL     1       6.874   5.233  16.186  0.00  0.00    +0.000 A 
ATOM      7  C   UNL     1       6.325   5.473  17.465  0.00  0.00    +0.000 A 
ATOM      8  C   UNL     1       5.081   4.861  17.816  0.00  0.00    +0.000 A 
BRANCH   3  10
ATOM      9  C   UNL     1       3.610   2.108  18.492  0.00  0.00    +0.000 C 
ATOM     10  C   UNL     1       3.337   2.976  17.253  0.00  0.00    +0.000 C 
ATOM     11  C   UNL     1       2.027   3.761  17.449  0.00  0.00    +0.000 C 
ENDBRANCH   3  10
BRANCH   7  12
ATOM     12  C   UNL     1       7.120   6.459  18.328  0.00  0.00    +0.000 C 
ATOM     13  C   UNL     1       8.123   5.728  19.222  0.00  0.00    +0.000 C 
ATOM     14  C   UNL     1       7.775   7.645  17.617  0.00  0.00    +0.000 C 
ENDBRANCH   7  12
ENDBRANCH   1   8
BRANCH   1  15
ATOM     15  N   UNL     1       3.800   6.462  19.079  0.00  0.00    +0.000 N 
ATOM     16  C   UNL     1       2.612   6.538  19.797  0.00  0.00    +0.000 C 
ATOM     17  O   UNL     1       2.144   5.632  20.475  0.00  0.00    +0.000 OA
ATOM     18  H   UNL     1       4.293   7.290  18.771  0.00  0.00    +0.000 HD
BRANCH  16  19
ATOM     19  C   UNL     1       1.884   7.832  19.661  0.00  0.00    +0.000 A 
ATOM     20  C   UNL     1       1.838   8.476  18.424  0.00  0.00    +0.000 A 
ATOM     21  C   UNL     1       1.116   9.664  18.262  0.00  0.00    +0.000 A 
ATOM     22  C   UNL     1       0.410  10.243  19.328  0.00  0.00    +0.000 A 
ATOM     23  C   UNL     1       0.461   9.573  20.569  0.00  0.00    +0.000 A 
ATOM     24  C   UNL     1       1.178   8.375  20.736  0.00  0.00    +0.000 A 
BRANCH  22  25
ATOM     25  C   UNL     1      -0.403  11.542  19.155  0.00  0.00    +0.000 C 
ATOM     26  C   UNL     1      -1.101  12.009  20.453  0.00  0.00    +0.000 C 
ATOM     27  C   UNL     1       0.526  12.689  18.703  0.00  0.00    +0.000 C 
ATOM     28  C   UNL     1      -1.507  11.341  18.100  0.00  0.00    +0.000 C 
ENDBRANCH  22  25
ENDBRANCH  16  19
ENDBRANCH   1  15
TORSDOF 6
ENDMDL
MODEL 3
REMARK VINA RESULT:      -7.7      0.346      3.456
REMARK  Name = 
REMARK  13 active torsions:
REMARK  status: ('A' for Active; 'I' for Inactive)
REMARK    1  A    between atoms: C_1  and  C_2
REMARK    2  A    between atoms: C_2  and  C_3
REMARK    3  A    between atoms: C_2  and  C_4
REMARK    4  A    between atoms: C_8  and  C_9
REMARK    5  A    between atoms: C_9  and  C_10
REMARK    6  A    between atoms: C_9  and  C_11
REMARK    7  A    between atoms: C_12  and  N_13
REMARK    8  A    between atoms: N_13  and  N_14
REMARK    9  A    between atoms: C_15  and  C_17
REMARK   10  A    between atoms: C_20  and  C_21
REMARK   11  A    between atoms: C_21  and  C_22
REMARK   12  A    between atoms: C_21  and  C_23
REMARK   13  A    between atoms: C_21  and  C_24
REMARK                            x       y       z     vdW  Elec       q    Type
REMARK                         _______ _______ _______ _____ _____    ______ ____
ROOT
ATOM      1  N   UNL     1       4.277   5.409  19.700  0.00  0.00    +0.000 N 
ATOM      2  H   UNL     1       3.752   4.678  20.191  0.00  0.00    +0.000 HD
ENDROOT
BRANCH   1   8
ATOM      3  C   UNL     1       6.030   5.340  17.877  0.00  0.00    +0.000 A 
ATOM      4  C   UNL     1       6.485   4.689  16.708  0.00  0.00    +0.000 A 
ATOM      5  C   UNL     1       5.728   3.717  16.073  0.00  0.00    +0.000 A 
ATOM      6  C   UNL     1       4.467   3.416  16.560  0.00  0.00    +0.000 A 
ATOM      7  C   UNL     1       3.956   4.031  17.724  0.00  0.00    +0.000 A 
ATOM      8  C   UNL     1       4.787   4.933  18.458  0.00  0.00    +0.000 A 
BRANCH   3  10
ATOM      9  C   UNL     1       8.067   5.846  19.281  0.00  0.00    +0.000 C 
ATOM     10  C   UNL     1       6.940   6.442  18.423  0.00  0.00    +0.000 C 
ATOM     11  C   UNL     1       7.542   7.338  17.325  0.00  0.00    +0.000 C 
ENDBRANCH   3  10
BRANCH   7  12
ATOM     12  C   UNL     1       2.546   3.579  18.119  0.00  0.00    +0.000 C 
ATOM     13  C   UNL     1       1.480   4.479  17.490  0.00  0.00    +0.000 C 
ATOM     14  C   UNL     1       2.202   2.100  17.930  0.00  0.00    +0.000 C 
ENDBRANCH   7  12
ENDBRANCH   1   8
BRANCH   1  15
ATOM     15  N   UNL     1       3.576   6.619  19.680  0.00  0.00    +0.000 N 
ATOM     16  C   UNL     1       2.301   6.667  20.232  0.00  0.00    +0.000 C 
ATOM     17  O   UNL     1       1.748   5.733  20.799  0.00  0.00    +0.000 OA
ATOM     18  H   UNL     1       4.104   7.458  19.479  0.00  0.00    +0.000 HD
BRANCH  16  19
ATOM     19  C   UNL     1       1.595   7.969  20.055  0.00  0.00    +0.000 A 
ATOM     20  C   UNL     1       1.669   8.638  18.834  0.00  0.00    +0.000 A 
ATOM     21  C   UNL     1       0.971   9.833  18.630  0.00  0.00    +0.000 A 
ATOM     22  C   UNL     1       0.171  10.395  19.636  0.00  0.00    +0.000 A 
ATOM     23  C   UNL     1       0.101   9.699  20.862  0.00  0.00    +0.000 A 
ATOM     24  C   UNL     1       0.794   8.493  21.070  0.00  0.00    +0.000 A 
BRANCH  22  25
ATOM     25  C   UNL     1      -0.617  11.703  19.415  0.00  0.00    +0.000 C 
ATOM     26  C   UNL     1      -1.303  12.232  20.695  0.00  0.00    +0.000 C 
ATOM     27  C   UNL     1       0.334  12.814  18.919  0.00  0.00    +0.000 C 
ATOM     28  C   UNL     1      -1.726  11.484  18.369  0.00  0.00    +0.000 C 
ENDBRANCH  22  25
ENDBRANCH  16  19
ENDBRANCH   1  15
TORSDOF 6
ENDMDL
MODEL 4
REMARK VINA RESULT:      -7.7      0.664      1.552
REMARK  Name = 
REMARK  13 active torsions:
REMARK  status: ('A' for Active; 'I' for Inactive)
REMARK    1  A    between atoms: C_1  and  C_2
REMARK    2  A    between atoms: C_2  and  C_3
REMARK    3  A    between atoms: C_2  and  C_4
REMARK    4  A    between atoms: C_8  and  C_9
REMARK    5  A    between atoms: C_9  and  C_10
REMARK    6  A    between atoms: C_9  and  C_11
REMARK    7  A    between atoms: C_12  and  N_13
REMARK    8  A    between atoms: N_13  and  N_14
REMARK    9  A    between atoms: C_15  and  C_17
REMARK   10  A    between atoms: C_20  and  C_21
REMARK   11  A    between atoms: C_21  and  C_22
REMARK   12  A    between atoms: C_21  and  C_23
REMARK   13  A    between atoms: C_21  and  C_24
REMARK                            x       y       z     vdW  Elec       q    Type
REMARK                         _______ _______ _______ _____ _____    ______ ____
ROOT
ATOM      1  N   UNL     1       4.536   5.246  19.237  0.00  0.00    +0.000 N 
ATOM      2  H   UNL     1       4.001   4.493  19.683  0.00  0.00    +0.000 HD
ENDROOT
BRANCH   1   8
ATOM      3  C   UNL     1       4.567   3.799  17.162  0.00  0.00    +0.000 A 
ATOM      4  C   UNL     1       5.168   3.559  15.905  0.00  0.00    +0.000 A 
ATOM      5  C   UNL     1       6.314   4.228  15.505  0.00  0.00    +0.000 A 
ATOM      6  C   UNL     1       6.921   5.113  16.380  0.00  0.00    +0.000 A 
ATOM      7  C   UNL     1       6.369   5.397  17.649  0.00  0.00    +0.000 A 
ATOM      8  C   UNL     1       5.117   4.811  18.011  0.00  0.00    +0.000 A 
BRANCH   3  10
ATOM      9  C   UNL     1       3.559   2.190  18.826  0.00  0.00    +0.000 C 
ATOM     10  C   UNL     1       3.352   2.931  17.496  0.00  0.00    +0.000 C 
ATOM     11  C   UNL     1       2.031   3.721  17.543  0.00  0.00    +0.000 C 
ENDBRANCH   3  10
BRANCH   7  12
ATOM     12  C   UNL     1       7.172   6.398  18.486  0.00  0.00    +0.000 C 
ATOM     13  C   UNL     1       8.172   5.683  19.397  0.00  0.00    +0.000 C 
ATOM     14  C   UNL     1       7.835   7.562  17.746  0.00  0.00    +0.000 C 
ENDBRANCH   7  12
ENDBRANCH   1   8
BRANCH   1  15
ATOM     15  N   UNL     1       3.814   6.443  19.211  0.00  0.00    +0.000 N 
ATOM     16  C   UNL     1       2.589   6.505  19.866  0.00  0.00    +0.000 C 
ATOM     17  O   UNL     1       2.102   5.597  20.527  0.00  0.00    +0.000 OA
ATOM     18  H   UNL     1       4.308   7.277  18.920  0.00  0.00    +0.000 HD
BRANCH  16  19
ATOM     19  C   UNL     1       1.847   7.785  19.678  0.00  0.00    +0.000 A 
ATOM     20  C   UNL     1       1.187   8.370  20.759  0.00  0.00    +0.000 A 
ATOM     21  C   UNL     1       0.530   9.597  20.617  0.00  0.00    +0.000 A 
ATOM     22  C   UNL     1       0.516  10.283  19.394  0.00  0.00    +0.000 A 
ATOM     23  C   UNL     1       1.197   9.681  18.314  0.00  0.00    +0.000 A 
ATOM     24  C   UNL     1       1.866   8.452  18.453  0.00  0.00    +0.000 A 
BRANCH  22  25
ATOM     25  C   UNL     1      -0.190  11.645  19.232  0.00  0.00    +0.000 C 
ATOM     26  C   UNL     1       0.735  12.758  18.688  0.00  0.00    +0.000 C 
ATOM     27  C   UNL     1      -1.368  11.513  18.243  0.00  0.00    +0.000 C 
ATOM     28  C   UNL     1      -0.725  12.130  20.592  0.00  0.00    +0.000 C 
ENDBRANCH  22  25
ENDBRANCH  16  19
ENDBRANCH   1  15
TORSDOF 6
ENDMDL
MODEL 5
REMARK VINA RESULT:      -7.6      0.459      3.490
REMARK  Name = 
REMARK  13 active torsions:
REMARK  status: ('A' for Active; 'I' for Inactive)
REMARK    1  A    between atoms: C_1  and  C_2
REMARK    2  A    between atoms: C_2  and  C_3
REMARK    3  A    between atoms: C_2  and  C_4
REMARK    4  A    between atoms: C_8  and  C_9
REMARK    5  A    between atoms: C_9  and  C_10
REMARK    6  A    between atoms: C_9  and  C_11
REMARK    7  A    between atoms: C_12  and  N_13
REMARK    8  A    between atoms: N_13  and  N_14
REMARK    9  A    between atoms: C_15  and  C_17
REMARK   10  A    between atoms: C_20  and  C_21
REMARK   11  A    between atoms: C_21  and  C_22
REMARK   12  A    between atoms: C_21  and  C_23
REMARK   13  A    between atoms: C_21  and  C_24
REMARK                            x       y       z     vdW  Elec       q    Type
REMARK                         _______ _______ _______ _____ _____    ______ ____
ROOT
ATOM      1  N   UNL     1       4.267   5.410  19.704  0.00  0.00    +0.000 N 
ATOM      2  H   UNL     1       3.752   4.675  20.198  0.00  0.00    +0.000 HD
ENDROOT
BRANCH   1   8
ATOM      3  C   UNL     1       6.022   5.343  17.882  0.00  0.00    +0.000 A 
ATOM      4  C   UNL     1       6.477   4.694  16.712  0.00  0.00    +0.000 A 
ATOM      5  C   UNL     1       5.719   3.724  16.074  0.00  0.00    +0.000 A 
ATOM      6  C   UNL     1       4.458   3.424  16.559  0.00  0.00    +0.000 A 
ATOM      7  C   UNL     1       3.947   4.036  17.724  0.00  0.00    +0.000 A 
ATOM      8  C   UNL     1       4.778   4.936  18.460  0.00  0.00    +0.000 A 
BRANCH   3  10
ATOM      9  C   UNL     1       8.061   5.844  19.283  0.00  0.00    +0.000 C 
ATOM     10  C   UNL     1       6.932   6.444  18.431  0.00  0.00    +0.000 C 
ATOM     11  C   UNL     1       7.531   7.344  17.335  0.00  0.00    +0.000 C 
ENDBRANCH   3  10
BRANCH   7  12
ATOM     12  C   UNL     1       2.535   3.586  18.117  0.00  0.00    +0.000 C 
ATOM     13  C   UNL     1       1.471   4.479  17.478  0.00  0.00    +0.000 C 
ATOM     14  C   UNL     1       2.194   2.105  17.937  0.00  0.00    +0.000 C 
ENDBRANCH   7  12
ENDBRANCH   1   8
BRANCH   1  15
ATOM     15  N   UNL     1       3.554   6.613  19.683  0.00  0.00    +0.000 N 
ATOM     16  C   UNL     1       2.281   6.650  20.239  0.00  0.00    +0.000 C 
ATOM     17  O   UNL     1       1.738   5.712  20.809  0.00  0.00    +0.000 OA
ATOM     18  H   UNL     1       4.074   7.457  19.479  0.00  0.00    +0.000 HD
BRANCH  16  19
ATOM     19  C   UNL     1       1.561   7.944  20.061  0.00  0.00    +0.000 A 
ATOM     20  C   UNL     1       0.827   8.481  21.118  0.00  0.00    +0.000 A 
ATOM     21  C   UNL     1       0.189   9.720  20.989  0.00  0.00    +0.000 A 
ATOM     22  C   UNL     1       0.269  10.465  19.803  0.00  0.00    +0.000 A 
ATOM     23  C   UNL     1       1.023   9.910  18.748  0.00  0.00    +0.000 A 
ATOM     24  C   UNL     1       1.674   8.670  18.874  0.00  0.00    +0.000 A 
BRANCH  22  25
ATOM     25  C   UNL     1      -0.416  11.839  19.657  0.00  0.00    +0.000 C 
ATOM     26  C   UNL     1      -1.514  11.868  18.569  0.00  0.00    +0.000 C 
ATOM     27  C   UNL     1      -1.090  12.237  20.989  0.00  0.00    +0.000 C 
ATOM     28  C   UNL     1       0.622  12.912  19.277  0.00  0.00    +0.000 C 
ENDBRANCH  22  25
ENDBRANCH  16  19
ENDBRANCH   1  15
TORSDOF 6
ENDMDL
MODEL 6
REMARK VINA RESULT:      -7.6      0.777      3.302
REMARK  Name = 
REMARK  13 active torsions:
REMARK  status: ('A' for Active; 'I' for Inactive)
REMARK    1  A    between atoms: C_1  and  C_2
REMARK    2  A    between atoms: C_2  and  C_3
REMARK    3  A    between atoms: C_2  and  C_4
REMARK    4  A    between atoms: C_8  and  C_9
REMARK    5  A    between atoms: C_9  and  C_10
REMARK    6  A    between atoms: C_9  and  C_11
REMARK    7  A    between atoms: C_12  and  N_13
REMARK    8  A    between atoms: N_13  and  N_14
REMARK    9  A    between atoms: C_15  and  C_17
REMARK   10  A    between atoms: C_20  and  C_21
REMARK   11  A    between atoms: C_21  and  C_22
REMARK   12  A    between atoms: C_21  and  C_23
REMARK   13  A    between atoms: C_21  and  C_24
REMARK                            x       y       z     vdW  Elec       q    Type
REMARK                         _______ _______ _______ _____ _____    ______ ____
ROOT
ATOM      1  N   UNL     1       4.382   4.983  19.315  0.00  0.00    +0.000 N 
ATOM      2  H   UNL     1       3.790   4.193  19.589  0.00  0.00    +0.000 HD
ENDROOT
BRANCH   1   8
ATOM      3  C   UNL     1       6.260   5.334  17.656  0.00  0.00    +0.000 A 
ATOM      4  C   UNL     1       6.860   4.901  16.452  0.00  0.00    +0.000 A 
ATOM      5  C   UNL     1       6.252   3.968  15.627  0.00  0.00    +0.000 A 
ATOM      6  C   UNL     1       4.996   3.489  15.959  0.00  0.00    +0.000 A 
ATOM      7  C   UNL     1       4.344   3.882  17.149  0.00  0.00    +0.000 A 
ATOM      8  C   UNL     1       5.025   4.739  18.067  0.00  0.00    +0.000 A 
BRANCH   3  10
ATOM      9  C   UNL     1       8.104   5.808  19.314  0.00  0.00    +0.000 C 
ATOM     10  C   UNL     1       7.013   6.423  18.423  0.00  0.00    +0.000 C 
ATOM     11  C   UNL     1       7.632   7.497  17.510  0.00  0.00    +0.000 C 
ENDBRANCH   3  10
BRANCH   7  12
ATOM     12  C   UNL     1       2.960   3.255  17.356  0.00  0.00    +0.000 C 
ATOM     13  C   UNL     1       2.973   2.257  18.516  0.00  0.00    +0.000 C 
ATOM     14  C   UNL     1       1.766   4.205  17.460  0.00  0.00    +0.000 C 
ENDBRANCH   7  12
ENDBRANCH   1   8
BRANCH   1  15
ATOM     15  N   UNL     1       3.711   6.202  19.458  0.00  0.00    +0.000 N 
ATOM     16  C   UNL     1       2.514   6.232  20.166  0.00  0.00    +0.000 C 
ATOM     17  O   UNL     1       2.013   5.271  20.736  0.00  0.00    +0.000 OA
ATOM     18  H   UNL     1       4.229   7.045  19.248  0.00  0.00    +0.000 HD
BRANCH  16  19
ATOM     19  C   UNL     1       1.820   7.552  20.160  0.00  0.00    +0.000 A 
ATOM     20  C   UNL     1       1.859   8.352  19.018  0.00  0.00    +0.000 A 
ATOM     21  C   UNL     1       1.171   9.569  18.973  0.00  0.00    +0.000 A 
ATOM     22  C   UNL     1       0.416  10.024  20.065  0.00  0.00    +0.000 A 
ATOM     23  C   UNL     1       0.381   9.197  21.208  0.00  0.00    +0.000 A 
ATOM     24  C   UNL     1       1.064   7.969  21.256  0.00  0.00    +0.000 A 
BRANCH  22  25
ATOM     25  C   UNL     1      -0.361  11.356  20.019  0.00  0.00    +0.000 C 
ATOM     26  C   UNL     1      -1.590  11.321  19.083  0.00  0.00    +0.000 C 
ATOM     27  C   UNL     1      -0.877  11.713  21.430  0.00  0.00    +0.000 C 
ATOM     28  C   UNL     1       0.555  12.487  19.515  0.00  0.00    +0.000 C 
ENDBRANCH  22  25
ENDBRANCH  16  19
ENDBRANCH   1  15
TORSDOF 6
ENDMDL
MODEL 7
REMARK VINA RESULT:      -7.6      0.911      1.671
REMARK  Name = 
REMARK  13 active torsions:
REMARK  status: ('A' for Active; 'I' for Inactive)
REMARK    1  A    between atoms: C_1  and  C_2
REMARK    2  A    between atoms: C_2  and  C_3
REMARK    3  A    between atoms: C_2  and  C_4
REMARK    4  A    between atoms: C_8  and  C_9
REMARK    5  A    between atoms: C_9  and  C_10
REMARK    6  A    between atoms: C_9  and  C_11
REMARK    7  A    between atoms: C_12  and  N_13
REMARK    8  A    between atoms: N_13  and  N_14
REMARK    9  A    between atoms: C_15  and  C_17
REMARK   10  A    between atoms: C_20  and  C_21
REMARK   11  A    between atoms: C_21  and  C_22
REMARK   12  A    between atoms: C_21  and  C_23
REMARK   13  A    between atoms: C_21  and  C_24
REMARK                            x       y       z     vdW  Elec       q    Type
REMARK                         _______ _______ _______ _____ _____    ______ ____
ROOT
ATOM      1  N   UNL     1       5.022   5.122  18.929  0.00  0.00    +0.000 N 
ATOM      2  H   UNL     1       4.630   4.367  19.501  0.00  0.00    +0.000 HD
ENDROOT
BRANCH   1   8
ATOM      3  C   UNL     1       4.711   3.692  16.864  0.00  0.00    +0.000 A 
ATOM      4  C   UNL     1       5.162   3.405  15.555  0.00  0.00    +0.000 A 
ATOM      5  C   UNL     1       6.321   3.964  15.043  0.00  0.00    +0.000 A 
ATOM      6  C   UNL     1       7.093   4.781  15.852  0.00  0.00    +0.000 A 
ATOM      7  C   UNL     1       6.697   5.107  17.168  0.00  0.00    +0.000 A 
ATOM      8  C   UNL     1       5.436   4.641  17.653  0.00  0.00    +0.000 A 
BRANCH   3  10
ATOM      9  C   UNL     1       3.666   2.321  18.708  0.00  0.00    +0.000 C 
ATOM     10  C   UNL     1       3.457   2.942  17.318  0.00  0.00    +0.000 C 
ATOM     11  C   UNL     1       2.191   3.818  17.326  0.00  0.00    +0.000 C 
ENDBRANCH   3  10
BRANCH   7  12
ATOM     12  C   UNL     1       7.671   6.022  17.920  0.00  0.00    +0.000 C 
ATOM     13  C   UNL     1       7.393   7.495  17.616  0.00  0.00    +0.000 C 
ATOM     14  C   UNL     1       7.834   5.790  19.424  0.00  0.00    +0.000 C 
ENDBRANCH   7  12
ENDBRANCH   1   8
BRANCH   1  15
ATOM     15  N   UNL     1       4.207   6.258  18.948  0.00  0.00    +0.000 N 
ATOM     16  C   UNL     1       3.033   6.231  19.692  0.00  0.00    +0.000 C 
ATOM     17  O   UNL     1       2.670   5.296  20.395  0.00  0.00    +0.000 OA
ATOM     18  H   UNL     1       4.610   7.124  18.616  0.00  0.00    +0.000 HD
BRANCH  16  19
ATOM     19  C   UNL     1       2.179   7.446  19.552  0.00  0.00    +0.000 A 
ATOM     20  C   UNL     1       1.511   7.958  20.665  0.00  0.00    +0.000 A 
ATOM     21  C   UNL     1       0.749   9.126  20.566  0.00  0.00    +0.000 A 
ATOM     22  C   UNL     1       0.634   9.826  19.356  0.00  0.00    +0.000 A 
ATOM     23  C   UNL     1       1.324   9.299  18.244  0.00  0.00    +0.000 A 
ATOM     24  C   UNL     1       2.099   8.129  18.338  0.00  0.00    +0.000 A 
BRANCH  22  25
ATOM     25  C   UNL     1      -0.190  11.125  19.241  0.00  0.00    +0.000 C 
ATOM     26  C   UNL     1      -1.329  11.042  18.200  0.00  0.00    +0.000 C 
ATOM     27  C   UNL     1      -0.844  11.456  20.600  0.00  0.00    +0.000 C 
ATOM     28  C   UNL     1       0.719  12.295  18.820  0.00  0.00    +0.000 C 
ENDBRANCH  22  25
ENDBRANCH  16  19
ENDBRANCH   1  15
TORSDOF 6
ENDMDL
MODEL 8
REMARK VINA RESULT:      -7.6      0.754      1.330
REMARK  Name = 
REMARK  13 active torsions:
REMARK  status: ('A' for Active; 'I' for Inactive)
REMARK    1  A    between atoms: C_1  and  C_2
REMARK    2  A    between atoms: C_2  and  C_3
REMARK    3  A    between atoms: C_2  and  C_4
REMARK    4  A    between atoms: C_8  and  C_9
REMARK    5  A    between atoms: C_9  and  C_10
REMARK    6  A    between atoms: C_9  and  C_11
REMARK    7  A    between atoms: C_12  and  N_13
REMARK    8  A    between atoms: N_13  and  N_14
REMARK    9  A    between atoms: C_15  and  C_17
REMARK   10  A    between atoms: C_20  and  C_21
REMARK   11  A    between atoms: C_21  and  C_22
REMARK   12  A    between atoms: C_21  and  C_23
REMARK   13  A    between atoms: C_21  and  C_24
REMARK                            x       y       z     vdW  Elec       q    Type
REMARK                         _______ _______ _______ _____ _____    ______ ____
ROOT
ATOM      1  N   UNL     1       5.079   5.325  19.346  0.00  0.00    +0.000 N 
ATOM      2  H   UNL     1       4.756   4.631  20.027  0.00  0.00    +0.000 HD
ENDROOT
BRANCH   1   8
ATOM      3  C   UNL     1       4.507   3.775  17.430  0.00  0.00    +0.000 A 
ATOM      4  C   UNL     1       4.831   3.359  16.118  0.00  0.00    +0.000 A 
ATOM      5  C   UNL     1       5.982   3.789  15.479  0.00  0.00    +0.000 A 
ATOM      6  C   UNL     1       6.871   4.602  16.162  0.00  0.00    +0.000 A 
ATOM      7  C   UNL     1       6.605   5.054  17.474  0.00  0.00    +0.000 A 
ATOM      8  C   UNL     1       5.356   4.722  18.085  0.00  0.00    +0.000 A 
BRANCH   3  10
ATOM      9  C   UNL     1       1.987   3.677  17.316  0.00  0.00    +0.000 C 
ATOM     10  C   UNL     1       3.243   3.158  18.033  0.00  0.00    +0.000 C 
ATOM     11  C   UNL     1       3.249   1.618  18.020  0.00  0.00    +0.000 C 
ENDBRANCH   3  10
BRANCH   7  12
ATOM     12  C   UNL     1       7.696   5.945  18.077  0.00  0.00    +0.000 C 
ATOM     13  C   UNL     1       7.473   7.415  17.717  0.00  0.00    +0.000 C 
ATOM     14  C   UNL     1       7.992   5.781  19.570  0.00  0.00    +0.000 C 
ENDBRANCH   7  12
ENDBRANCH   1   8
BRANCH   1  15
ATOM     15  N   UNL     1       4.264   6.461  19.344  0.00  0.00    +0.000 N 
ATOM     16  C   UNL     1       2.973   6.363  19.852  0.00  0.00    +0.000 C 
ATOM     17  O   UNL     1       2.496   5.359  20.365  0.00  0.00    +0.000 OA
ATOM     18  H   UNL     1       4.712   7.355  19.191  0.00  0.00    +0.000 HD
BRANCH  16  19
ATOM     19  C   UNL     1       2.148   7.596  19.695  0.00  0.00    +0.000 A 
ATOM     20  C   UNL     1       2.065   8.223  18.452  0.00  0.00    +0.000 A 
ATOM     21  C   UNL     1       1.254   9.349  18.272  0.00  0.00    +0.000 A 
ATOM     22  C   UNL     1       0.495   9.881  19.324  0.00  0.00    +0.000 A 
ATOM     23  C   UNL     1       0.585   9.228  20.572  0.00  0.00    +0.000 A 
ATOM     24  C   UNL     1       1.391   8.091  20.758  0.00  0.00    +0.000 A 
BRANCH  22  25
ATOM     25  C   UNL     1      -0.415  11.111  19.131  0.00  0.00    +0.000 C 
ATOM     26  C   UNL     1       0.346  12.374  18.668  0.00  0.00    +0.000 C 
ATOM     27  C   UNL     1      -1.487  10.811  18.061  0.00  0.00    +0.000 C 
ATOM     28  C   UNL     1      -1.113  11.469  20.457  0.00  0.00    +0.000 C 
ENDBRANCH  22  25
ENDBRANCH  16  19
ENDBRANCH   1  15
TORSDOF 6
ENDMDL
MODEL 9
REMARK VINA RESULT:      -7.5      0.817      3.543
REMARK  Name = 
REMARK  13 active torsions:
REMARK  status: ('A' for Active; 'I' for Inactive)
REMARK    1  A    between atoms: C_1  and  C_2
REMARK    2  A    between atoms: C_2  and  C_3
REMARK    3  A    between atoms: C_2  and  C_4
REMARK    4  A    between atoms: C_8  and  C_9
REMARK    5  A    between atoms: C_9  and  C_10
REMARK    6  A    between atoms: C_9  and  C_11
REMARK    7  A    between atoms: C_12  and  N_13
REMARK    8  A    between atoms: N_13  and  N_14
REMARK    9  A    between atoms: C_15  and  C_17
REMARK   10  A    between atoms: C_20  and  C_21
REMARK   11  A    between atoms: C_21  and  C_22
REMARK   12  A    between atoms: C_21  and  C_23
REMARK   13  A    between atoms: C_21  and  C_24
REMARK                            x       y       z     vdW  Elec       q    Type
REMARK                         _______ _______ _______ _____ _____    ______ ____
ROOT
ATOM      1  N   UNL     1       4.313   4.962  19.327  0.00  0.00    +0.000 N 
ATOM      2  H   UNL     1       3.719   4.175  19.606  0.00  0.00    +0.000 HD
ENDROOT
BRANCH   1   8
ATOM      3  C   UNL     1       6.193   5.291  17.667  0.00  0.00    +0.000 A 
ATOM      4  C   UNL     1       6.788   4.851  16.462  0.00  0.00    +0.000 A 
ATOM      5  C   UNL     1       6.169   3.924  15.639  0.00  0.00    +0.000 A 
ATOM      6  C   UNL     1       4.909   3.458  15.973  0.00  0.00    +0.000 A 
ATOM      7  C   UNL     1       4.262   3.859  17.162  0.00  0.00    +0.000 A 
ATOM      8  C   UNL     1       4.953   4.710  18.079  0.00  0.00    +0.000 A 
BRANCH   3  10
ATOM      9  C   UNL     1       8.024   5.746  19.344  0.00  0.00    +0.000 C 
ATOM     10  C   UNL     1       6.958   6.373  18.432  0.00  0.00    +0.000 C 
ATOM     11  C   UNL     1       7.612   7.423  17.516  0.00  0.00    +0.000 C 
ENDBRANCH   3  10
BRANCH   7  12
ATOM     12  C   UNL     1       2.872   3.246  17.372  0.00  0.00    +0.000 C 
ATOM     13  C   UNL     1       2.877   2.245  18.528  0.00  0.00    +0.000 C 
ATOM     14  C   UNL     1       1.688   4.210  17.481  0.00  0.00    +0.000 C 
ENDBRANCH   7  12
ENDBRANCH   1   8
BRANCH   1  15
ATOM     15  N   UNL     1       3.647   6.184  19.467  0.00  0.00    +0.000 N 
ATOM     16  C   UNL     1       2.459   6.224  20.187  0.00  0.00    +0.000 C 
ATOM     17  O   UNL     1       1.962   5.270  20.772  0.00  0.00    +0.000 OA
ATOM     18  H   UNL     1       4.165   7.024  19.242  0.00  0.00    +0.000 HD
BRANCH  16  19
ATOM     19  C   UNL     1       1.769   7.546  20.177  0.00  0.00    +0.000 A 
ATOM     20  C   UNL     1       1.149   8.015  21.335  0.00  0.00    +0.000 A 
ATOM     21  C   UNL     1       0.542   9.276  21.361  0.00  0.00    +0.000 A 
ATOM     22  C   UNL     1       0.542  10.112  20.235  0.00  0.00    +0.000 A 
ATOM     23  C   UNL     1       1.182   9.625  19.075  0.00  0.00    +0.000 A 
ATOM     24  C   UNL     1       1.800   8.362  19.045  0.00  0.00    +0.000 A 
BRANCH  22  25
ATOM     25  C   UNL     1      -0.108  11.510  20.259  0.00  0.00    +0.000 C 
ATOM     26  C   UNL     1       0.814  12.628  19.722  0.00  0.00    +0.000 C 
ATOM     27  C   UNL     1      -1.381  11.515  19.385  0.00  0.00    +0.000 C 
ATOM     28  C   UNL     1      -0.486  11.895  21.702  0.00  0.00    +0.000 C 
ENDBRANCH  22  25
ENDBRANCH  16  19
ENDBRANCH   1  15
TORSDOF 6
ENDMDL
