MODEL 1
REMARK VINA RESULT:      -8.7      0.000      0.000
REMARK  Name = 
REMARK  5 active torsions:
REMARK  status: ('A' for Active; 'I' for Inactive)
REMARK    1  A    between atoms: C_2  and  C_3
REMARK    2  A    between atoms: C_4  and  C_5
REMARK    3  A    between atoms: C_9  and  N_10
REMARK    4  A    between atoms: N_17  and  C_18
REMARK    5  A    between atoms: C_18  and  C_19
REMARK                            x       y       z     vdW  Elec       q    Type
REMARK                         _______ _______ _______ _____ _____    ______ ____
ROOT
ATOM      1  O   UNL     1       2.200  10.385  17.399  0.00  0.00    +0.000 OA
ATOM      2  C   UNL     1       1.853   9.610  18.289  0.00  0.00    +0.000 C 
ATOM      3  N   UNL     1       1.181  10.017  19.427  0.00  0.00    +0.000 N 
ATOM      4  C   UNL     1       0.843   9.184  20.587  0.00  0.00    +0.000 C 
ATOM      5  C   UNL     1       1.035   9.942  21.921  0.00  0.00    +0.000 C 
ATOM      6  N   UNL     1       0.371  11.262  21.990  0.00  0.00    +0.000 NA
ATOM      7  C   UNL     1       0.798  12.054  20.809  0.00  0.00    +0.000 C 
ATOM      8  C   UNL     1       0.604  11.364  19.449  0.00  0.00    +0.000 C 
ENDROOT
BRANCH   2   9
ATOM      9  C   UNL     1       2.104   8.154  18.139  0.00  0.00    +0.000 C 
ATOM     10  C   UNL     1       3.323   7.716  17.771  0.00  0.00    +0.000 C 
BRANCH  10  11
ATOM     11  C   UNL     1       3.624   6.308  17.476  0.00  0.00    +0.000 A 
ATOM     12  C   UNL     1       2.752   5.306  17.926  0.00  0.00    +0.000 A 
ATOM     13  C   UNL     1       3.045   3.953  17.716  0.00  0.00    +0.000 A 
ATOM     14  C   UNL     1       4.218   3.585  17.056  0.00  0.00    +0.000 A 
ATOM     15  C   UNL     1       5.094   4.579  16.610  0.00  0.00    +0.000 A 
ATOM     16  C   UNL     1       4.808   5.933  16.827  0.00  0.00    +0.000 A 
BRANCH  15  17
ATOM     17  N   UNL     1       6.332   4.208  15.916  0.00  0.00    +0.000 N 
ATOM     18  O   UNL     1       7.405   4.468  16.477  0.00  0.00    +0.000 OA
ATOM     19  O   UNL     1       6.233   3.654  14.812  0.00  0.00    +0.000 OA
ENDBRANCH  15  17
ENDBRANCH  10  11
ENDBRANCH   2   9
BRANCH   6  20
ATOM     20  C   UNL     1      -1.090  11.095  22.142  0.00  0.00    +0.000 C 
BRANCH  20  21
ATOM     21  C   UNL     1      -1.772  12.284  22.782  0.00  0.00    +0.000 A 
ATOM     22  C   UNL     1      -3.112  12.202  23.234  0.00  0.00    +0.000 A 
ATOM     23  C   UNL     1      -3.640  13.177  24.087  0.00  0.00    +0.000 A 
ATOM     24  C   UNL     1      -2.787  14.178  24.494  0.00  0.00    +0.000 A 
ATOM     25  C   UNL     1      -1.515  14.308  23.979  0.00  0.00    +0.000 A 
ATOM     26  C   UNL     1      -0.996  13.415  23.078  0.00  0.00    +0.000 A 
ATOM     27  O   UNL     1      -0.805  15.291  24.603  0.00  0.00    +0.000 OA
ATOM     28  C   UNL     1      -1.631  15.432  25.775  0.00  0.00    +0.000 C 
ATOM     29  O   UNL     1      -2.999  15.051  25.519  0.00  0.00    +0.000 OA
ENDBRANCH  20  21
ENDBRANCH   6  20
TORSDOF 5
ENDMDL
MODEL 2
REMARK VINA RESULT:      -8.7      1.989      2.244
REMARK  Name = 
REMARK  5 active torsions:
REMARK  status: ('A' for Active; 'I' for Inactive)
REMARK    1  A    between atoms: C_2  and  C_3
REMARK    2  A    between atoms: C_4  and  C_5
REMARK    3  A    between atoms: C_9  and  N_10
REMARK    4  A    between atoms: N_17  and  C_18
REMARK    5  A    between atoms: C_18  and  C_19
REMARK                            x       y       z     vdW  Elec       q    Type
REMARK                         _______ _______ _______ _____ _____    ______ ____
ROOT
ATOM      1  O   UNL     1       2.127  10.085  17.434  0.00  0.00    +0.000 OA
ATOM      2  C   UNL     1       1.741   9.375  18.363  0.00  0.00    +0.000 C 
ATOM      3  N   UNL     1       1.075   9.872  19.468  0.00  0.00    +0.000 N 
ATOM      4  C   UNL     1       0.694   9.120  20.669  0.00  0.00    +0.000 C 
ATOM      5  C   UNL     1       0.903   9.945  21.961  0.00  0.00    +0.000 C 
ATOM      6  N   UNL     1       0.291  11.291  21.947  0.00  0.00    +0.000 NA
ATOM      7  C   UNL     1       0.759  11.998  20.728  0.00  0.00    +0.000 C 
ATOM      8  C   UNL     1       0.551  11.240  19.407  0.00  0.00    +0.000 C 
ENDROOT
BRANCH   2   9
ATOM      9  C   UNL     1       1.936   7.905  18.297  0.00  0.00    +0.000 C 
ATOM     10  C   UNL     1       3.143   7.399  17.979  0.00  0.00    +0.000 C 
BRANCH  10  11
ATOM     11  C   UNL     1       3.392   5.967  17.767  0.00  0.00    +0.000 A 
ATOM     12  C   UNL     1       4.486   5.564  16.987  0.00  0.00    +0.000 A 
ATOM     13  C   UNL     1       4.712   4.209  16.714  0.00  0.00    +0.000 A 
ATOM     14  C   UNL     1       3.843   3.240  17.215  0.00  0.00    +0.000 A 
ATOM     15  C   UNL     1       2.747   3.636  17.987  0.00  0.00    +0.000 A 
ATOM     16  C   UNL     1       2.512   4.991  18.255  0.00  0.00    +0.000 A 
BRANCH  15  17
ATOM     17  N   UNL     1       1.822   2.628  18.519  0.00  0.00    +0.000 N 
ATOM     18  O   UNL     1       0.622   2.741  18.233  0.00  0.00    +0.000 OA
ATOM     19  O   UNL     1       2.295   1.722  19.220  0.00  0.00    +0.000 OA
ENDBRANCH  15  17
ENDBRANCH  10  11
ENDBRANCH   2   9
BRANCH   6  20
ATOM     20  C   UNL     1      -1.177  11.190  22.091  0.00  0.00    +0.000 C 
BRANCH  20  21
ATOM     21  C   UNL     1      -1.802  12.384  22.777  0.00  0.00    +0.000 A 
ATOM     22  C   UNL     1      -3.119  12.323  23.295  0.00  0.00    +0.000 A 
ATOM     23  C   UNL     1      -3.584  13.299  24.183  0.00  0.00    +0.000 A 
ATOM     24  C   UNL     1      -2.692  14.278  24.557  0.00  0.00    +0.000 A 
ATOM     25  C   UNL     1      -1.445  14.389  23.980  0.00  0.00    +0.000 A 
ATOM     26  C   UNL     1      -0.989  13.496  23.045  0.00  0.00    +0.000 A 
ATOM     27  O   UNL     1      -0.685  15.351  24.577  0.00  0.00    +0.000 OA
ATOM     28  C   UNL     1      -1.448  15.496  25.791  0.00  0.00    +0.000 C 
ATOM     29  O   UNL     1      -2.835  15.144  25.600  0.00  0.00    +0.000 OA
ENDBRANCH  20  21
ENDBRANCH   6  20
TORSDOF 5
ENDMDL
MODEL 3
REMARK VINA RESULT:      -8.6      2.793      3.345
REMARK  Name = 
REMARK  5 active torsions:
REMARK  status: ('A' for Active; 'I' for Inactive)
REMARK    1  A    between atoms: C_2  and  C_3
REMARK    2  A    between atoms: C_4  and  C_5
REMARK    3  A    between atoms: C_9  and  N_10
REMARK    4  A    between atoms: N_17  and  C_18
REMARK    5  A    between atoms: C_18  and  C_19
REMARK                            x       y       z     vdW  Elec       q    Type
REMARK                         _______ _______ _______ _____ _____    ______ ____
ROOT
ATOM      1  O   UNL     1       2.243   9.054  17.355  0.00  0.00    +0.000 OA
ATOM      2  C   UNL     1       2.025   8.587  18.472  0.00  0.00    +0.000 C 
ATOM      3  N   UNL     1       1.369   9.285  19.470  0.00  0.00    +0.000 N 
ATOM      4  C   UNL     1       1.178   8.852  20.858  0.00  0.00    +0.000 C 
ATOM      5  C   UNL     1       1.352  10.019  21.859  0.00  0.00    +0.000 C 
ATOM      6  N   UNL     1       0.556  11.228  21.553  0.00  0.00    +0.000 NA
ATOM      7  C   UNL     1       0.838  11.622  20.150  0.00  0.00    +0.000 C 
ATOM      8  C   UNL     1       0.653  10.511  19.104  0.00  0.00    +0.000 C 
ENDROOT
BRANCH   2   9
ATOM      9  C   UNL     1       2.422   7.188  18.778  0.00  0.00    +0.000 C 
ATOM     10  C   UNL     1       1.802   6.163  18.164  0.00  0.00    +0.000 C 
BRANCH  10  11
ATOM     11  C   UNL     1       2.041   4.753  18.499  0.00  0.00    +0.000 A 
ATOM     12  C   UNL     1       2.182   3.812  17.468  0.00  0.00    +0.000 A 
ATOM     13  C   UNL     1       2.347   2.452  17.755  0.00  0.00    +0.000 A 
ATOM     14  C   UNL     1       2.367   2.014  19.079  0.00  0.00    +0.000 A 
ATOM     15  C   UNL     1       2.221   2.946  20.111  0.00  0.00    +0.000 A 
ATOM     16  C   UNL     1       2.047   4.307  19.827  0.00  0.00    +0.000 A 
BRANCH  15  17
ATOM     17  N   UNL     1       2.239   2.500  21.510  0.00  0.00    +0.000 N 
ATOM     18  O   UNL     1       3.316   2.097  21.970  0.00  0.00    +0.000 OA
ATOM     19  O   UNL     1       1.178   2.554  22.148  0.00  0.00    +0.000 OA
ENDBRANCH  15  17
ENDBRANCH  10  11
ENDBRANCH   2   9
BRANCH   6  20
ATOM     20  C   UNL     1      -0.870  10.996  21.868  0.00  0.00    +0.000 C 
BRANCH  20  21
ATOM     21  C   UNL     1      -1.473  12.057  22.762  0.00  0.00    +0.000 A 
ATOM     22  C   UNL     1      -0.853  13.322  22.915  0.00  0.00    +0.000 A 
ATOM     23  C   UNL     1      -1.549  14.394  23.484  0.00  0.00    +0.000 A 
ATOM     24  C   UNL     1      -2.860  14.170  23.836  0.00  0.00    +0.000 A 
ATOM     25  C   UNL     1      -3.430  12.917  23.774  0.00  0.00    +0.000 A 
ATOM     26  C   UNL     1      -2.748  11.826  23.298  0.00  0.00    +0.000 A 
ATOM     27  O   UNL     1      -4.763  12.943  24.056  0.00  0.00    +0.000 OA
ATOM     28  C   UNL     1      -4.985  14.356  23.887  0.00  0.00    +0.000 C 
ATOM     29  O   UNL     1      -3.788  15.123  24.138  0.00  0.00    +0.000 OA
ENDBRANCH  20  21
ENDBRANCH   6  20
TORSDOF 5
ENDMDL
MODEL 4
REMARK VINA RESULT:      -8.5      7.094      9.837
REMARK  Name = 
REMARK  5 active torsions:
REMARK  status: ('A' for Active; 'I' for Inactive)
REMARK    1  A    between atoms: C_2  and  C_3
REMARK    2  A    between atoms: C_4  and  C_5
REMARK    3  A    between atoms: C_9  and  N_10
REMARK    4  A    between atoms: N_17  and  C_18
REMARK    5  A    between atoms: C_18  and  C_19
REMARK                            x       y       z     vdW  Elec       q    Type
REMARK                         _______ _______ _______ _____ _____    ______ ____
ROOT
ATOM      1  O   UNL     1       8.566   6.698  19.108  0.00  0.00    +0.000 OA
ATOM      2  C   UNL     1       7.863   7.332  18.322  0.00  0.00    +0.000 C 
ATOM      3  N   UNL     1       6.601   6.920  17.934  0.00  0.00    +0.000 N 
ATOM      4  C   UNL     1       5.753   7.547  16.914  0.00  0.00    +0.000 C 
ATOM      5  C   UNL     1       5.015   6.498  16.049  0.00  0.00    +0.000 C 
ATOM      6  N   UNL     1       4.276   5.469  16.811  0.00  0.00    +0.000 NA
ATOM      7  C   UNL     1       5.213   4.857  17.787  0.00  0.00    +0.000 C 
ATOM      8  C   UNL     1       5.954   5.849  18.698  0.00  0.00    +0.000 C 
ENDROOT
BRANCH   2   9
ATOM      9  C   UNL     1       8.341   8.633  17.790  0.00  0.00    +0.000 C 
ATOM     10  C   UNL     1       8.967   9.504  18.603  0.00  0.00    +0.000 C 
BRANCH  10  11
ATOM     11  C   UNL     1       9.356  10.861  18.194  0.00  0.00    +0.000 A 
ATOM     12  C   UNL     1      10.697  11.130  17.882  0.00  0.00    +0.000 A 
ATOM     13  C   UNL     1      11.110  12.426  17.551  0.00  0.00    +0.000 A 
ATOM     14  C   UNL     1      10.187  13.471  17.533  0.00  0.00    +0.000 A 
ATOM     15  C   UNL     1       8.850  13.211  17.850  0.00  0.00    +0.000 A 
ATOM     16  C   UNL     1       8.435  11.917  18.190  0.00  0.00    +0.000 A 
BRANCH  15  17
ATOM     17  N   UNL     1       7.868  14.301  17.837  0.00  0.00    +0.000 N 
ATOM     18  O   UNL     1       8.255  15.427  18.179  0.00  0.00    +0.000 OA
ATOM     19  O   UNL     1       6.711  14.033  17.485  0.00  0.00    +0.000 OA
ENDBRANCH  15  17
ENDBRANCH  10  11
ENDBRANCH   2   9
BRANCH   6  20
ATOM     20  C   UNL     1       3.046   6.046  17.395  0.00  0.00    +0.000 C 
BRANCH  20  21
ATOM     21  C   UNL     1       2.269   5.074  18.254  0.00  0.00    +0.000 A 
ATOM     22  C   UNL     1       1.683   3.911  17.694  0.00  0.00    +0.000 A 
ATOM     23  C   UNL     1       1.235   2.870  18.515  0.00  0.00    +0.000 A 
ATOM     24  C   UNL     1       1.436   3.014  19.869  0.00  0.00    +0.000 A 
ATOM     25  C   UNL     1       1.919   4.182  20.417  0.00  0.00    +0.000 A 
ATOM     26  C   UNL     1       2.290   5.253  19.645  0.00  0.00    +0.000 A 
ATOM     27  O   UNL     1       2.148   4.067  21.756  0.00  0.00    +0.000 OA
ATOM     28  C   UNL     1       2.142   2.629  21.845  0.00  0.00    +0.000 C 
ATOM     29  O   UNL     1       1.339   2.029  20.807  0.00  0.00    +0.000 OA
ENDBRANCH  20  21
ENDBRANCH   6  20
TORSDOF 5
ENDMDL
MODEL 5
REMARK VINA RESULT:      -8.4      2.435      2.959
REMARK  Name = 
REMARK  5 active torsions:
REMARK  status: ('A' for Active; 'I' for Inactive)
REMARK    1  A    between atoms: C_2  and  C_3
REMARK    2  A    between atoms: C_4  and  C_5
REMARK    3  A    between atoms: C_9  and  N_10
REMARK    4  A    between atoms: N_17  and  C_18
REMARK    5  A    between atoms: C_18  and  C_19
REMARK                            x       y       z     vdW  Elec       q    Type
REMARK                         _______ _______ _______ _____ _____    ______ ____
ROOT
ATOM      1  O   UNL     1       2.176   9.696  17.472  0.00  0.00    +0.000 OA
ATOM      2  C   UNL     1       1.823   9.144  18.513  0.00  0.00    +0.000 C 
ATOM      3  N   UNL     1       1.121   9.791  19.513  0.00  0.00    +0.000 N 
ATOM      4  C   UNL     1       0.772   9.246  20.830  0.00  0.00    +0.000 C 
ATOM      5  C   UNL     1       0.924  10.298  21.953  0.00  0.00    +0.000 C 
ATOM      6  N   UNL     1       0.239  11.585  21.700  0.00  0.00    +0.000 NA
ATOM      7  C   UNL     1       0.678  12.087  20.374  0.00  0.00    +0.000 C 
ATOM      8  C   UNL     1       0.523  11.095  19.210  0.00  0.00    +0.000 C 
ENDROOT
BRANCH   2   9
ATOM      9  C   UNL     1       2.099   7.698  18.712  0.00  0.00    +0.000 C 
ATOM     10  C   UNL     1       2.780   7.008  17.777  0.00  0.00    +0.000 C 
BRANCH  10  11
ATOM     11  C   UNL     1       2.986   5.554  17.831  0.00  0.00    +0.000 A 
ATOM     12  C   UNL     1       4.087   4.988  17.172  0.00  0.00    +0.000 A 
ATOM     13  C   UNL     1       4.274   3.601  17.152  0.00  0.00    +0.000 A 
ATOM     14  C   UNL     1       3.358   2.761  17.786  0.00  0.00    +0.000 A 
ATOM     15  C   UNL     1       2.255   3.320  18.439  0.00  0.00    +0.000 A 
ATOM     16  C   UNL     1       2.060   4.707  18.454  0.00  0.00    +0.000 A 
BRANCH  15  17
ATOM     17  N   UNL     1       1.282   2.449  19.109  0.00  0.00    +0.000 N 
ATOM     18  O   UNL     1       0.277   2.111  18.468  0.00  0.00    +0.000 OA
ATOM     19  O   UNL     1       1.521   2.103  20.274  0.00  0.00    +0.000 OA
ENDBRANCH  15  17
ENDBRANCH  10  11
ENDBRANCH   2   9
BRANCH   6  20
ATOM     20  C   UNL     1      -1.222  11.429  21.862  0.00  0.00    +0.000 C 
BRANCH  20  21
ATOM     21  C   UNL     1      -1.829  12.402  22.849  0.00  0.00    +0.000 A 
ATOM     22  C   UNL     1      -1.087  13.508  23.334  0.00  0.00    +0.000 A 
ATOM     23  C   UNL     1      -1.728  14.563  23.994  0.00  0.00    +0.000 A 
ATOM     24  C   UNL     1      -3.098  14.492  24.101  0.00  0.00    +0.000 A 
ATOM     25  C   UNL     1      -3.804  13.373  23.714  0.00  0.00    +0.000 A 
ATOM     26  C   UNL     1      -3.196  12.287  23.139  0.00  0.00    +0.000 A 
ATOM     27  O   UNL     1      -5.152  13.561  23.799  0.00  0.00    +0.000 OA
ATOM     28  C   UNL     1      -5.158  15.000  23.878  0.00  0.00    +0.000 C 
ATOM     29  O   UNL     1      -3.934  15.513  24.445  0.00  0.00    +0.000 OA
ENDBRANCH  20  21
ENDBRANCH   6  20
TORSDOF 5
ENDMDL
MODEL 6
REMARK VINA RESULT:      -8.3      1.047      1.788
REMARK  Name = 
REMARK  5 active torsions:
REMARK  status: ('A' for Active; 'I' for Inactive)
REMARK    1  A    between atoms: C_2  and  C_3
REMARK    2  A    between atoms: C_4  and  C_5
REMARK    3  A    between atoms: C_9  and  N_10
REMARK    4  A    between atoms: N_17  and  C_18
REMARK    5  A    between atoms: C_18  and  C_19
REMARK                            x       y       z     vdW  Elec       q    Type
REMARK                         _______ _______ _______ _____ _____    ______ ____
ROOT
ATOM      1  O   UNL     1       1.703  10.131  17.277  0.00  0.00    +0.000 OA
ATOM      2  C   UNL     1       1.616   9.449  18.298  0.00  0.00    +0.000 C 
ATOM      3  N   UNL     1       1.038   9.907  19.468  0.00  0.00    +0.000 N 
ATOM      4  C   UNL     1       1.006   9.209  20.757  0.00  0.00    +0.000 C 
ATOM      5  C   UNL     1       1.236  10.173  21.945  0.00  0.00    +0.000 C 
ATOM      6  N   UNL     1       0.367  11.370  21.955  0.00  0.00    +0.000 NA
ATOM      7  C   UNL     1       0.491  12.039  20.635  0.00  0.00    +0.000 C 
ATOM      8  C   UNL     1       0.243  11.138  19.414  0.00  0.00    +0.000 C 
ENDROOT
BRANCH   2   9
ATOM      9  C   UNL     1       2.095   8.043  18.288  0.00  0.00    +0.000 C 
ATOM     10  C   UNL     1       3.332   7.757  17.842  0.00  0.00    +0.000 C 
BRANCH  10  11
ATOM     11  C   UNL     1       3.839   6.387  17.678  0.00  0.00    +0.000 A 
ATOM     12  C   UNL     1       2.955   5.305  17.798  0.00  0.00    +0.000 A 
ATOM     13  C   UNL     1       3.420   3.987  17.710  0.00  0.00    +0.000 A 
ATOM     14  C   UNL     1       4.776   3.735  17.507  0.00  0.00    +0.000 A 
ATOM     15  C   UNL     1       5.663   4.810  17.393  0.00  0.00    +0.000 A 
ATOM     16  C   UNL     1       5.204   6.129  17.489  0.00  0.00    +0.000 A 
BRANCH  15  17
ATOM     17  N   UNL     1       7.094   4.560  17.181  0.00  0.00    +0.000 N 
ATOM     18  O   UNL     1       7.506   4.538  16.013  0.00  0.00    +0.000 OA
ATOM     19  O   UNL     1       7.806   4.389  18.180  0.00  0.00    +0.000 OA
ENDBRANCH  15  17
ENDBRANCH  10  11
ENDBRANCH   2   9
BRANCH   6  20
ATOM     20  C   UNL     1      -1.010  11.003  22.348  0.00  0.00    +0.000 C 
BRANCH  20  21
ATOM     21  C   UNL     1      -1.730  12.089  23.116  0.00  0.00    +0.000 A 
ATOM     22  C   UNL     1      -1.134  13.358  23.319  0.00  0.00    +0.000 A 
ATOM     23  C   UNL     1      -1.900  14.446  23.751  0.00  0.00    +0.000 A 
ATOM     24  C   UNL     1      -3.249  14.231  23.919  0.00  0.00    +0.000 A 
ATOM     25  C   UNL     1      -3.809  12.976  23.812  0.00  0.00    +0.000 A 
ATOM     26  C   UNL     1      -3.070  11.873  23.471  0.00  0.00    +0.000 A 
ATOM     27  O   UNL     1      -5.169  13.010  23.901  0.00  0.00    +0.000 OA
ATOM     28  C   UNL     1      -5.359  14.418  23.660  0.00  0.00    +0.000 C 
ATOM     29  O   UNL     1      -4.207  15.192  24.057  0.00  0.00    +0.000 OA
ENDBRANCH  20  21
ENDBRANCH   6  20
TORSDOF 5
ENDMDL
MODEL 7
REMARK VINA RESULT:      -8.2      2.868      3.366
REMARK  Name = 
REMARK  5 active torsions:
REMARK  status: ('A' for Active; 'I' for Inactive)
REMARK    1  A    between atoms: C_2  and  C_3
REMARK    2  A    between atoms: C_4  and  C_5
REMARK    3  A    between atoms: C_9  and  N_10
REMARK    4  A    between atoms: N_17  and  C_18
REMARK    5  A    between atoms: C_18  and  C_19
REMARK                            x       y       z     vdW  Elec       q    Type
REMARK                         _______ _______ _______ _____ _____    ______ ____
ROOT
ATOM      1  O   UNL     1       2.346   9.140  17.262  0.00  0.00    +0.000 OA
ATOM      2  C   UNL     1       2.153   8.563  18.331  0.00  0.00    +0.000 C 
ATOM      3  N   UNL     1       1.462   9.134  19.385  0.00  0.00    +0.000 N 
ATOM      4  C   UNL     1       1.295   8.568  20.728  0.00  0.00    +0.000 C 
ATOM      5  C   UNL     1       1.408   9.647  21.830  0.00  0.00    +0.000 C 
ATOM      6  N   UNL     1       0.550  10.835  21.632  0.00  0.00    +0.000 NA
ATOM      7  C   UNL     1       0.811  11.369  20.271  0.00  0.00    +0.000 C 
ATOM      8  C   UNL     1       0.683  10.349  19.128  0.00  0.00    +0.000 C 
ENDROOT
BRANCH   2   9
ATOM      9  C   UNL     1       2.622   7.166  18.510  0.00  0.00    +0.000 C 
ATOM     10  C   UNL     1       1.803   6.138  18.220  0.00  0.00    +0.000 C 
BRANCH  10  11
ATOM     11  C   UNL     1       2.137   4.733  18.487  0.00  0.00    +0.000 A 
ATOM     12  C   UNL     1       2.237   3.831  17.418  0.00  0.00    +0.000 A 
ATOM     13  C   UNL     1       2.491   2.473  17.647  0.00  0.00    +0.000 A 
ATOM     14  C   UNL     1       2.644   1.999  18.950  0.00  0.00    +0.000 A 
ATOM     15  C   UNL     1       2.539   2.892  20.020  0.00  0.00    +0.000 A 
ATOM     16  C   UNL     1       2.276   4.250  19.796  0.00  0.00    +0.000 A 
BRANCH  15  17
ATOM     17  N   UNL     1       2.695   2.408  21.397  0.00  0.00    +0.000 N 
ATOM     18  O   UNL     1       1.717   2.500  22.152  0.00  0.00    +0.000 OA
ATOM     19  O   UNL     1       3.793   1.935  21.723  0.00  0.00    +0.000 OA
ENDBRANCH  15  17
ENDBRANCH  10  11
ENDBRANCH   2   9
BRANCH   6  20
ATOM     20  C   UNL     1      -0.862  10.502  21.918  0.00  0.00    +0.000 C 
BRANCH  20  21
ATOM     21  C   UNL     1      -1.728  11.714  22.179  0.00  0.00    +0.000 A 
ATOM     22  C   UNL     1      -2.051  12.620  21.137  0.00  0.00    +0.000 A 
ATOM     23  C   UNL     1      -3.081  13.553  21.296  0.00  0.00    +0.000 A 
ATOM     24  C   UNL     1      -3.783  13.513  22.479  0.00  0.00    +0.000 A 
ATOM     25  C   UNL     1      -3.407  12.697  23.524  0.00  0.00    +0.000 A 
ATOM     26  C   UNL     1      -2.350  11.829  23.431  0.00  0.00    +0.000 A 
ATOM     27  O   UNL     1      -4.304  12.729  24.551  0.00  0.00    +0.000 OA
ATOM     28  C   UNL     1      -5.414  13.311  23.839  0.00  0.00    +0.000 C 
ATOM     29  O   UNL     1      -4.976  14.123  22.730  0.00  0.00    +0.000 OA
ENDBRANCH  20  21
ENDBRANCH   6  20
TORSDOF 5
ENDMDL
MODEL 8
REMARK VINA RESULT:      -8.2      2.862      3.199
REMARK  Name = 
REMARK  5 active torsions:
REMARK  status: ('A' for Active; 'I' for Inactive)
REMARK    1  A    between atoms: C_2  and  C_3
REMARK    2  A    between atoms: C_4  and  C_5
REMARK    3  A    between atoms: C_9  and  N_10
REMARK    4  A    between atoms: N_17  and  C_18
REMARK    5  A    between atoms: C_18  and  C_19
REMARK                            x       y       z     vdW  Elec       q    Type
REMARK                         _______ _______ _______ _____ _____    ______ ____
ROOT
ATOM      1  O   UNL     1       2.672  10.068  17.483  0.00  0.00    +0.000 OA
ATOM      2  C   UNL     1       1.933   9.532  18.307  0.00  0.00    +0.000 C 
ATOM      3  N   UNL     1       1.010  10.232  19.064  0.00  0.00    +0.000 N 
ATOM      4  C   UNL     1       0.183   9.693  20.150  0.00  0.00    +0.000 C 
ATOM      5  C   UNL     1       0.063  10.682  21.333  0.00  0.00    +0.000 C 
ATOM      6  N   UNL     1      -0.354  12.052  20.962  0.00  0.00    +0.000 NA
ATOM      7  C   UNL     1       0.557  12.537  19.893  0.00  0.00    +0.000 C 
ATOM      8  C   UNL     1       0.694  11.609  18.675  0.00  0.00    +0.000 C 
ENDROOT
BRANCH   2   9
ATOM      9  C   UNL     1       1.968   8.058  18.481  0.00  0.00    +0.000 C 
ATOM     10  C   UNL     1       2.960   7.338  17.925  0.00  0.00    +0.000 C 
BRANCH  10  11
ATOM     11  C   UNL     1       3.003   5.869  17.938  0.00  0.00    +0.000 A 
ATOM     12  C   UNL     1       4.024   5.202  17.247  0.00  0.00    +0.000 A 
ATOM     13  C   UNL     1       4.055   3.803  17.188  0.00  0.00    +0.000 A 
ATOM     14  C   UNL     1       3.060   3.054  17.816  0.00  0.00    +0.000 A 
ATOM     15  C   UNL     1       2.035   3.714  18.501  0.00  0.00    +0.000 A 
ATOM     16  C   UNL     1       1.996   5.113  18.554  0.00  0.00    +0.000 A 
BRANCH  15  17
ATOM     17  N   UNL     1       0.980   2.940  19.165  0.00  0.00    +0.000 N 
ATOM     18  O   UNL     1       0.819   3.113  20.381  0.00  0.00    +0.000 OA
ATOM     19  O   UNL     1       0.312   2.160  18.472  0.00  0.00    +0.000 OA
ENDBRANCH  15  17
ENDBRANCH  10  11
ENDBRANCH   2   9
BRANCH   6  20
ATOM     20  C   UNL     1      -1.793  12.077  20.622  0.00  0.00    +0.000 C 
BRANCH  20  21
ATOM     21  C   UNL     1      -2.637  12.836  21.622  0.00  0.00    +0.000 A 
ATOM     22  C   UNL     1      -3.192  14.099  21.300  0.00  0.00    +0.000 A 
ATOM     23  C   UNL     1      -4.206  14.656  22.087  0.00  0.00    +0.000 A 
ATOM     24  C   UNL     1      -4.660  13.901  23.144  0.00  0.00    +0.000 A 
ATOM     25  C   UNL     1      -4.056  12.718  23.511  0.00  0.00    +0.000 A 
ATOM     26  C   UNL     1      -3.006  12.185  22.809  0.00  0.00    +0.000 A 
ATOM     27  O   UNL     1      -4.735  12.080  24.506  0.00  0.00    +0.000 OA
ATOM     28  C   UNL     1      -5.985  12.788  24.394  0.00  0.00    +0.000 C 
ATOM     29  O   UNL     1      -5.804  14.115  23.855  0.00  0.00    +0.000 OA
ENDBRANCH  20  21
ENDBRANCH   6  20
TORSDOF 5
ENDMDL
MODEL 9
REMARK VINA RESULT:      -8.2      2.745      3.065
REMARK  Name = 
REMARK  5 active torsions:
REMARK  status: ('A' for Active; 'I' for Inactive)
REMARK    1  A    between atoms: C_2  and  C_3
REMARK    2  A    between atoms: C_4  and  C_5
REMARK    3  A    between atoms: C_9  and  N_10
REMARK    4  A    between atoms: N_17  and  C_18
REMARK    5  A    between atoms: C_18  and  C_19
REMARK                            x       y       z     vdW  Elec       q    Type
REMARK                         _______ _______ _______ _____ _____    ______ ____
ROOT
ATOM      1  O   UNL     1       2.570   8.904  17.360  0.00  0.00    +0.000 OA
ATOM      2  C   UNL     1       2.081   8.550  18.432  0.00  0.00    +0.000 C 
ATOM      3  N   UNL     1       1.309   9.382  19.223  0.00  0.00    +0.000 N 
ATOM      4  C   UNL     1       0.795   9.083  20.564  0.00  0.00    +0.000 C 
ATOM      5  C   UNL     1       0.878  10.309  21.504  0.00  0.00    +0.000 C 
ATOM      6  N   UNL     1       0.289  11.552  20.963  0.00  0.00    +0.000 NA
ATOM      7  C   UNL     1       0.892  11.805  19.629  0.00  0.00    +0.000 C 
ATOM      8  C   UNL     1       0.812  10.632  18.638  0.00  0.00    +0.000 C 
ENDROOT
BRANCH   2   9
ATOM      9  C   UNL     1       2.262   7.153  18.901  0.00  0.00    +0.000 C 
ATOM     10  C   UNL     1       2.273   6.141  18.013  0.00  0.00    +0.000 C 
BRANCH  10  11
ATOM     11  C   UNL     1       2.319   4.724  18.398  0.00  0.00    +0.000 A 
ATOM     12  C   UNL     1       2.329   3.738  17.401  0.00  0.00    +0.000 A 
ATOM     13  C   UNL     1       2.307   2.379  17.737  0.00  0.00    +0.000 A 
ATOM     14  C   UNL     1       2.269   1.989  19.076  0.00  0.00    +0.000 A 
ATOM     15  C   UNL     1       2.252   2.968  20.074  0.00  0.00    +0.000 A 
ATOM     16  C   UNL     1       2.265   4.328  19.741  0.00  0.00    +0.000 A 
BRANCH  15  17
ATOM     17  N   UNL     1       2.210   2.573  21.487  0.00  0.00    +0.000 N 
ATOM     18  O   UNL     1       1.117   2.630  22.067  0.00  0.00    +0.000 OA
ATOM     19  O   UNL     1       3.268   2.206  22.016  0.00  0.00    +0.000 OA
ENDBRANCH  15  17
ENDBRANCH  10  11
ENDBRANCH   2   9
BRANCH   6  20
ATOM     20  C   UNL     1      -1.187  11.472  20.982  0.00  0.00    +0.000 C 
BRANCH  20  21
ATOM     21  C   UNL     1      -1.834  12.452  21.935  0.00  0.00    +0.000 A 
ATOM     22  C   UNL     1      -2.726  12.010  22.943  0.00  0.00    +0.000 A 
ATOM     23  C   UNL     1      -3.082  12.854  24.002  0.00  0.00    +0.000 A 
ATOM     24  C   UNL     1      -2.492  14.096  24.035  0.00  0.00    +0.000 A 
ATOM     25  C   UNL     1      -1.700  14.557  23.005  0.00  0.00    +0.000 A 
ATOM     26  C   UNL     1      -1.398  13.785  21.913  0.00  0.00    +0.000 A 
ATOM     27  O   UNL     1      -1.126  15.759  23.295  0.00  0.00    +0.000 OA
ATOM     28  C   UNL     1      -1.331  15.749  24.722  0.00  0.00    +0.000 C 
ATOM     29  O   UNL     1      -2.475  14.952  25.096  0.00  0.00    +0.000 OA
ENDBRANCH  20  21
ENDBRANCH   6  20
TORSDOF 5
ENDMDL
