MODEL 1
REMARK VINA RESULT:      -8.2      0.000      0.000
REMARK  Name = 
REMARK  1 active torsions:
REMARK  status: ('A' for Active; 'I' for Inactive)
REMARK    1  A    between atoms: C_2  and  C_3
REMARK                            x       y       z     vdW  Elec       q    Type
REMARK                         _______ _______ _______ _____ _____    ______ ____
ROOT
ATOM      1  C   UNL     1       2.457   6.395  19.828  0.00  0.00    +0.000 C 
ATOM      2  C   UNL     1       2.795   6.860  18.615  0.00  0.00    +0.000 C 
ATOM      3  O   UNL     1       2.405   8.108  18.154  0.00  0.00    +0.000 OA
ATOM      4  C   UNL     1       1.662   8.924  18.981  0.00  0.00    +0.000 A 
ATOM      5  C   UNL     1       1.338  10.178  18.471  0.00  0.00    +0.000 A 
ATOM      6  C   UNL     1       0.597  11.072  19.241  0.00  0.00    +0.000 A 
ATOM      7  C   UNL     1       0.170  10.724  20.531  0.00  0.00    +0.000 A 
ATOM      8  C   UNL     1      -0.568  11.637  21.304  0.00  0.00    +0.000 A 
ATOM      9  C   UNL     1      -0.998  11.307  22.589  0.00  0.00    +0.000 A 
ATOM     10  C   UNL     1      -0.700  10.059  23.117  0.00  0.00    +0.000 A 
ATOM     11  C   UNL     1       0.032   9.141  22.361  0.00  0.00    +0.000 A 
ATOM     12  C   UNL     1       0.488   9.448  21.059  0.00  0.00    +0.000 A 
ATOM     13  C   UNL     1       1.245   8.545  20.265  0.00  0.00    +0.000 A 
ATOM     14  C   UNL     1       1.612   7.175  20.772  0.00  0.00    +0.000 C 
ENDROOT
BRANCH   2  15
ATOM     15  C   UNL     1       3.631   6.083  17.675  0.00  0.00    +0.000 A 
ATOM     16  C   UNL     1       3.542   4.682  17.603  0.00  0.00    +0.000 A 
ATOM     17  C   UNL     1       4.342   3.952  16.721  0.00  0.00    +0.000 A 
ATOM     18  C   UNL     1       5.235   4.613  15.883  0.00  0.00    +0.000 A 
ATOM     19  C   UNL     1       5.325   6.003  15.925  0.00  0.00    +0.000 A 
ATOM     20  C   UNL     1       4.528   6.732  16.813  0.00  0.00    +0.000 A 
ENDBRANCH   2  15
TORSDOF 1
ENDMDL
MODEL 2
REMARK VINA RESULT:      -8.2      0.053      1.078
REMARK  Name = 
REMARK  1 active torsions:
REMARK  status: ('A' for Active; 'I' for Inactive)
REMARK    1  A    between atoms: C_2  and  C_3
REMARK                            x       y       z     vdW  Elec       q    Type
REMARK                         _______ _______ _______ _____ _____    ______ ____
ROOT
ATOM      1  C   UNL     1       2.508   6.383  19.794  0.00  0.00    +0.000 C 
ATOM      2  C   UNL     1       2.835   6.855  18.581  0.00  0.00    +0.000 C 
ATOM      3  O   UNL     1       2.432   8.102  18.126  0.00  0.00    +0.000 OA
ATOM      4  C   UNL     1       1.688   8.909  18.959  0.00  0.00    +0.000 A 
ATOM      5  C   UNL     1       1.351  10.161  18.456  0.00  0.00    +0.000 A 
ATOM      6  C   UNL     1       0.606  11.047  19.234  0.00  0.00    +0.000 A 
ATOM      7  C   UNL     1       0.190  10.691  20.525  0.00  0.00    +0.000 A 
ATOM      8  C   UNL     1      -0.552  11.595  21.305  0.00  0.00    +0.000 A 
ATOM      9  C   UNL     1      -0.971  11.257  22.591  0.00  0.00    +0.000 A 
ATOM     10  C   UNL     1      -0.660  10.010  23.113  0.00  0.00    +0.000 A 
ATOM     11  C   UNL     1       0.074   9.100  22.350  0.00  0.00    +0.000 A 
ATOM     12  C   UNL     1       0.521   9.416  21.046  0.00  0.00    +0.000 A 
ATOM     13  C   UNL     1       1.281   8.521  20.244  0.00  0.00    +0.000 A 
ATOM     14  C   UNL     1       1.662   7.153  20.745  0.00  0.00    +0.000 C 
ENDROOT
BRANCH   2  15
ATOM     15  C   UNL     1       3.672   6.088  17.633  0.00  0.00    +0.000 A 
ATOM     16  C   UNL     1       4.567   6.730  16.759  0.00  0.00    +0.000 A 
ATOM     17  C   UNL     1       5.347   6.001  15.859  0.00  0.00    +0.000 A 
ATOM     18  C   UNL     1       5.257   4.613  15.828  0.00  0.00    +0.000 A 
ATOM     19  C   UNL     1       4.391   3.954  16.699  0.00  0.00    +0.000 A 
ATOM     20  C   UNL     1       3.606   4.687  17.596  0.00  0.00    +0.000 A 
ENDBRANCH   2  15
TORSDOF 1
ENDMDL
MODEL 3
REMARK VINA RESULT:      -8.1      0.941      7.413
REMARK  Name = 
REMARK  1 active torsions:
REMARK  status: ('A' for Active; 'I' for Inactive)
REMARK    1  A    between atoms: C_2  and  C_3
REMARK                            x       y       z     vdW  Elec       q    Type
REMARK                         _______ _______ _______ _____ _____    ______ ____
ROOT
ATOM      1  C   UNL     1       1.923   9.162  18.765  0.00  0.00    +0.000 C 
ATOM      2  C   UNL     1       1.491   8.618  19.914  0.00  0.00    +0.000 C 
ATOM      3  O   UNL     1       1.814   7.326  20.301  0.00  0.00    +0.000 OA
ATOM      4  C   UNL     1       2.637   6.572  19.493  0.00  0.00    +0.000 A 
ATOM      5  C   UNL     1       2.953   5.300  19.961  0.00  0.00    +0.000 A 
ATOM      6  C   UNL     1       3.786   4.470  19.212  0.00  0.00    +0.000 A 
ATOM      7  C   UNL     1       4.314   4.902  17.987  0.00  0.00    +0.000 A 
ATOM      8  C   UNL     1       5.161   4.061  17.244  0.00  0.00    +0.000 A 
ATOM      9  C   UNL     1       5.696   4.477  16.025  0.00  0.00    +0.000 A 
ATOM     10  C   UNL     1       5.387   5.735  15.529  0.00  0.00    +0.000 A 
ATOM     11  C   UNL     1       4.545   6.581  16.254  0.00  0.00    +0.000 A 
ATOM     12  C   UNL     1       3.994   6.193  17.496  0.00  0.00    +0.000 A 
ATOM     13  C   UNL     1       3.144   7.030  18.269  0.00  0.00    +0.000 A 
ATOM     14  C   UNL     1       2.769   8.410  17.798  0.00  0.00    +0.000 C 
ENDROOT
BRANCH   2  15
ATOM     15  C   UNL     1       0.647   9.363  20.872  0.00  0.00    +0.000 A 
ATOM     16  C   UNL     1      -0.110  10.478  20.469  0.00  0.00    +0.000 A 
ATOM     17  C   UNL     1      -0.897  11.184  21.381  0.00  0.00    +0.000 A 
ATOM     18  C   UNL     1      -0.954  10.778  22.711  0.00  0.00    +0.000 A 
ATOM     19  C   UNL     1      -0.227   9.664  23.127  0.00  0.00    +0.000 A 
ATOM     20  C   UNL     1       0.565   8.962  22.214  0.00  0.00    +0.000 A 
ENDBRANCH   2  15
TORSDOF 1
ENDMDL
MODEL 4
REMARK VINA RESULT:      -8.1      4.227      6.336
REMARK  Name = 
REMARK  1 active torsions:
REMARK  status: ('A' for Active; 'I' for Inactive)
REMARK    1  A    between atoms: C_2  and  C_3
REMARK                            x       y       z     vdW  Elec       q    Type
REMARK                         _______ _______ _______ _____ _____    ______ ____
ROOT
ATOM      1  C   UNL     1       5.043   5.644  16.204  0.00  0.00    +0.000 C 
ATOM      2  C   UNL     1       5.349   4.498  15.576  0.00  0.00    +0.000 C 
ATOM      3  O   UNL     1       4.970   3.254  16.058  0.00  0.00    +0.000 OA
ATOM      4  C   UNL     1       4.221   3.184  17.213  0.00  0.00    +0.000 A 
ATOM      5  C   UNL     1       3.841   1.908  17.618  0.00  0.00    +0.000 A 
ATOM      6  C   UNL     1       3.075   1.743  18.771  0.00  0.00    +0.000 A 
ATOM      7  C   UNL     1       2.679   2.853  19.533  0.00  0.00    +0.000 A 
ATOM      8  C   UNL     1       1.898   2.677  20.688  0.00  0.00    +0.000 A 
ATOM      9  C   UNL     1       1.496   3.769  21.456  0.00  0.00    +0.000 A 
ATOM     10  C   UNL     1       1.872   5.052  21.082  0.00  0.00    +0.000 A 
ATOM     11  C   UNL     1       2.649   5.243  19.938  0.00  0.00    +0.000 A 
ATOM     12  C   UNL     1       3.066   4.157  19.135  0.00  0.00    +0.000 A 
ATOM     13  C   UNL     1       3.847   4.312  17.957  0.00  0.00    +0.000 A 
ATOM     14  C   UNL     1       4.288   5.672  17.485  0.00  0.00    +0.000 C 
ENDROOT
BRANCH   2  15
ATOM     15  C   UNL     1       6.104   4.470  14.305  0.00  0.00    +0.000 A 
ATOM     16  C   UNL     1       7.236   5.280  14.107  0.00  0.00    +0.000 A 
ATOM     17  C   UNL     1       7.939   5.257  12.900  0.00  0.00    +0.000 A 
ATOM     18  C   UNL     1       7.530   4.410  11.874  0.00  0.00    +0.000 A 
ATOM     19  C   UNL     1       6.423   3.585  12.056  0.00  0.00    +0.000 A 
ATOM     20  C   UNL     1       5.717   3.613  13.264  0.00  0.00    +0.000 A 
ENDBRANCH   2  15
TORSDOF 1
ENDMDL
MODEL 5
REMARK VINA RESULT:      -8.1      0.969      7.369
REMARK  Name = 
REMARK  1 active torsions:
REMARK  status: ('A' for Active; 'I' for Inactive)
REMARK    1  A    between atoms: C_2  and  C_3
REMARK                            x       y       z     vdW  Elec       q    Type
REMARK                         _______ _______ _______ _____ _____    ______ ____
ROOT
ATOM      1  C   UNL     1       1.917   9.078  18.775  0.00  0.00    +0.000 C 
ATOM      2  C   UNL     1       1.517   8.544  19.941  0.00  0.00    +0.000 C 
ATOM      3  O   UNL     1       1.875   7.266  20.342  0.00  0.00    +0.000 OA
ATOM      4  C   UNL     1       2.698   6.516  19.531  0.00  0.00    +0.000 A 
ATOM      5  C   UNL     1       3.050   5.258  20.012  0.00  0.00    +0.000 A 
ATOM      6  C   UNL     1       3.887   4.434  19.261  0.00  0.00    +0.000 A 
ATOM      7  C   UNL     1       4.383   4.858  18.020  0.00  0.00    +0.000 A 
ATOM      8  C   UNL     1       5.235   4.024  17.275  0.00  0.00    +0.000 A 
ATOM      9  C   UNL     1       5.738   4.431  16.040  0.00  0.00    +0.000 A 
ATOM     10  C   UNL     1       5.394   5.675  15.530  0.00  0.00    +0.000 A 
ATOM     11  C   UNL     1       4.548   6.514  16.257  0.00  0.00    +0.000 A 
ATOM     12  C   UNL     1       4.027   6.134  17.516  0.00  0.00    +0.000 A 
ATOM     13  C   UNL     1       3.174   6.965  18.291  0.00  0.00    +0.000 A 
ATOM     14  C   UNL     1       2.761   8.330  17.805  0.00  0.00    +0.000 C 
ENDROOT
BRANCH   2  15
ATOM     15  C   UNL     1       0.674   9.286  20.902  0.00  0.00    +0.000 A 
ATOM     16  C   UNL     1       0.561   8.880  22.244  0.00  0.00    +0.000 A 
ATOM     17  C   UNL     1      -0.245   9.579  23.145  0.00  0.00    +0.000 A 
ATOM     18  C   UNL     1      -0.941  10.707  22.724  0.00  0.00    +0.000 A 
ATOM     19  C   UNL     1      -0.828  11.139  21.404  0.00  0.00    +0.000 A 
ATOM     20  C   UNL     1      -0.025  10.434  20.501  0.00  0.00    +0.000 A 
ENDBRANCH   2  15
TORSDOF 1
ENDMDL
MODEL 6
REMARK VINA RESULT:      -8.1      4.262      6.281
REMARK  Name = 
REMARK  1 active torsions:
REMARK  status: ('A' for Active; 'I' for Inactive)
REMARK    1  A    between atoms: C_2  and  C_3
REMARK                            x       y       z     vdW  Elec       q    Type
REMARK                         _______ _______ _______ _____ _____    ______ ____
ROOT
ATOM      1  C   UNL     1       5.063   5.618  16.244  0.00  0.00    +0.000 C 
ATOM      2  C   UNL     1       5.354   4.474  15.603  0.00  0.00    +0.000 C 
ATOM      3  O   UNL     1       4.961   3.230  16.072  0.00  0.00    +0.000 OA
ATOM      4  C   UNL     1       4.214   3.156  17.227  0.00  0.00    +0.000 A 
ATOM      5  C   UNL     1       3.820   1.881  17.620  0.00  0.00    +0.000 A 
ATOM      6  C   UNL     1       3.054   1.712  18.772  0.00  0.00    +0.000 A 
ATOM      7  C   UNL     1       2.673   2.817  19.547  0.00  0.00    +0.000 A 
ATOM      8  C   UNL     1       1.893   2.638  20.702  0.00  0.00    +0.000 A 
ATOM      9  C   UNL     1       1.504   3.727  21.483  0.00  0.00    +0.000 A 
ATOM     10  C   UNL     1       1.895   5.009  21.122  0.00  0.00    +0.000 A 
ATOM     11  C   UNL     1       2.672   5.203  19.978  0.00  0.00    +0.000 A 
ATOM     12  C   UNL     1       3.075   4.121  19.162  0.00  0.00    +0.000 A 
ATOM     13  C   UNL     1       3.854   4.280  17.984  0.00  0.00    +0.000 A 
ATOM     14  C   UNL     1       4.311   5.640  17.527  0.00  0.00    +0.000 C 
ENDROOT
BRANCH   2  15
ATOM     15  C   UNL     1       6.106   4.451  14.330  0.00  0.00    +0.000 A 
ATOM     16  C   UNL     1       5.720   3.618  13.265  0.00  0.00    +0.000 A 
ATOM     17  C   UNL     1       6.441   3.592  12.069  0.00  0.00    +0.000 A 
ATOM     18  C   UNL     1       7.553   4.413  11.911  0.00  0.00    +0.000 A 
ATOM     19  C   UNL     1       7.942   5.261  12.946  0.00  0.00    +0.000 A 
ATOM     20  C   UNL     1       7.222   5.281  14.145  0.00  0.00    +0.000 A 
ENDBRANCH   2  15
TORSDOF 1
ENDMDL
MODEL 7
REMARK VINA RESULT:      -8.1      1.070      2.509
REMARK  Name = 
REMARK  1 active torsions:
REMARK  status: ('A' for Active; 'I' for Inactive)
REMARK    1  A    between atoms: C_2  and  C_3
REMARK                            x       y       z     vdW  Elec       q    Type
REMARK                         _______ _______ _______ _____ _____    ______ ____
ROOT
ATOM      1  C   UNL     1       1.704   8.819  17.797  0.00  0.00    +0.000 C 
ATOM      2  C   UNL     1       2.249   7.839  18.534  0.00  0.00    +0.000 C 
ATOM      3  O   UNL     1       2.067   7.740  19.905  0.00  0.00    +0.000 OA
ATOM      4  C   UNL     1       1.270   8.666  20.542  0.00  0.00    +0.000 A 
ATOM      5  C   UNL     1       1.098   8.486  21.911  0.00  0.00    +0.000 A 
ATOM      6  C   UNL     1       0.301   9.371  22.636  0.00  0.00    +0.000 A 
ATOM      7  C   UNL     1      -0.334  10.448  22.000  0.00  0.00    +0.000 A 
ATOM      8  C   UNL     1      -1.144  11.328  22.737  0.00  0.00    +0.000 A 
ATOM      9  C   UNL     1      -1.784  12.403  22.120  0.00  0.00    +0.000 A 
ATOM     10  C   UNL     1      -1.619  12.614  20.758  0.00  0.00    +0.000 A 
ATOM     11  C   UNL     1      -0.817  11.749  20.012  0.00  0.00    +0.000 A 
ATOM     12  C   UNL     1      -0.161  10.646  20.607  0.00  0.00    +0.000 A 
ATOM     13  C   UNL     1       0.653   9.737  19.879  0.00  0.00    +0.000 A 
ATOM     14  C   UNL     1       0.874   9.898  18.399  0.00  0.00    +0.000 C 
ENDROOT
BRANCH   2  15
ATOM     15  C   UNL     1       3.077   6.769  17.937  0.00  0.00    +0.000 A 
ATOM     16  C   UNL     1       4.266   7.062  17.246  0.00  0.00    +0.000 A 
ATOM     17  C   UNL     1       5.038   6.048  16.675  0.00  0.00    +0.000 A 
ATOM     18  C   UNL     1       4.643   4.720  16.799  0.00  0.00    +0.000 A 
ATOM     19  C   UNL     1       3.479   4.405  17.497  0.00  0.00    +0.000 A 
ATOM     20  C   UNL     1       2.703   5.423  18.063  0.00  0.00    +0.000 A 
ENDBRANCH   2  15
TORSDOF 1
ENDMDL
MODEL 8
REMARK VINA RESULT:      -8.0      1.071      2.249
REMARK  Name = 
REMARK  1 active torsions:
REMARK  status: ('A' for Active; 'I' for Inactive)
REMARK    1  A    between atoms: C_2  and  C_3
REMARK                            x       y       z     vdW  Elec       q    Type
REMARK                         _______ _______ _______ _____ _____    ______ ____
ROOT
ATOM      1  C   UNL     1       1.721   8.701  17.792  0.00  0.00    +0.000 C 
ATOM      2  C   UNL     1       2.285   7.746  18.548  0.00  0.00    +0.000 C 
ATOM      3  O   UNL     1       2.117   7.680  19.923  0.00  0.00    +0.000 OA
ATOM      4  C   UNL     1       1.316   8.613  20.544  0.00  0.00    +0.000 A 
ATOM      5  C   UNL     1       1.159   8.465  21.919  0.00  0.00    +0.000 A 
ATOM      6  C   UNL     1       0.358   9.359  22.628  0.00  0.00    +0.000 A 
ATOM      7  C   UNL     1      -0.296  10.412  21.972  0.00  0.00    +0.000 A 
ATOM      8  C   UNL     1      -1.109  11.301  22.695  0.00  0.00    +0.000 A 
ATOM      9  C   UNL     1      -1.767  12.352  22.056  0.00  0.00    +0.000 A 
ATOM     10  C   UNL     1      -1.618  12.531  20.688  0.00  0.00    +0.000 A 
ATOM     11  C   UNL     1      -0.812  11.656  19.957  0.00  0.00    +0.000 A 
ATOM     12  C   UNL     1      -0.139  10.577  20.573  0.00  0.00    +0.000 A 
ATOM     13  C   UNL     1       0.680   9.659  19.860  0.00  0.00    +0.000 A 
ATOM     14  C   UNL     1       0.885   9.785  18.374  0.00  0.00    +0.000 C 
ENDROOT
BRANCH   2  15
ATOM     15  C   UNL     1       3.120   6.671  17.970  0.00  0.00    +0.000 A 
ATOM     16  C   UNL     1       2.772   5.316  18.112  0.00  0.00    +0.000 A 
ATOM     17  C   UNL     1       3.571   4.305  17.573  0.00  0.00    +0.000 A 
ATOM     18  C   UNL     1       4.725   4.632  16.869  0.00  0.00    +0.000 A 
ATOM     19  C   UNL     1       5.078   5.969  16.699  0.00  0.00    +0.000 A 
ATOM     20  C   UNL     1       4.280   6.981  17.244  0.00  0.00    +0.000 A 
ENDBRANCH   2  15
TORSDOF 1
ENDMDL
MODEL 9
REMARK VINA RESULT:      -7.9      3.053      5.515
REMARK  Name = 
REMARK  1 active torsions:
REMARK  status: ('A' for Active; 'I' for Inactive)
REMARK    1  A    between atoms: C_2  and  C_3
REMARK                            x       y       z     vdW  Elec       q    Type
REMARK                         _______ _______ _______ _____ _____    ______ ____
ROOT
ATOM      1  C   UNL     1       5.227   6.276  15.837  0.00  0.00    +0.000 C 
ATOM      2  C   UNL     1       5.271   5.019  15.367  0.00  0.00    +0.000 C 
ATOM      3  O   UNL     1       4.597   3.968  15.971  0.00  0.00    +0.000 OA
ATOM      4  C   UNL     1       3.823   4.220  17.083  0.00  0.00    +0.000 A 
ATOM      5  C   UNL     1       3.143   3.129  17.615  0.00  0.00    +0.000 A 
ATOM      6  C   UNL     1       2.330   3.293  18.735  0.00  0.00    +0.000 A 
ATOM      7  C   UNL     1       2.187   4.552  19.338  0.00  0.00    +0.000 A 
ATOM      8  C   UNL     1       1.357   4.709  20.461  0.00  0.00    +0.000 A 
ATOM      9  C   UNL     1       1.202   5.954  21.071  0.00  0.00    +0.000 A 
ATOM     10  C   UNL     1       1.879   7.057  20.569  0.00  0.00    +0.000 A 
ATOM     11  C   UNL     1       2.709   6.916  19.455  0.00  0.00    +0.000 A 
ATOM     12  C   UNL     1       2.880   5.670  18.810  0.00  0.00    +0.000 A 
ATOM     13  C   UNL     1       3.705   5.490  17.667  0.00  0.00    +0.000 A 
ATOM     14  C   UNL     1       4.466   6.640  17.063  0.00  0.00    +0.000 C 
ENDROOT
BRANCH   2  15
ATOM     15  C   UNL     1       6.030   4.656  14.152  0.00  0.00    +0.000 A 
ATOM     16  C   UNL     1       7.247   5.284  13.833  0.00  0.00    +0.000 A 
ATOM     17  C   UNL     1       7.955   4.945  12.678  0.00  0.00    +0.000 A 
ATOM     18  C   UNL     1       7.465   3.958  11.828  0.00  0.00    +0.000 A 
ATOM     19  C   UNL     1       6.271   3.308  12.135  0.00  0.00    +0.000 A 
ATOM     20  C   UNL     1       5.561   3.654  13.289  0.00  0.00    +0.000 A 
ENDBRANCH   2  15
TORSDOF 1
ENDMDL
