MODEL 1
REMARK VINA RESULT:      -6.8      0.000      0.000
REMARK  Name = 
REMARK  2 active torsions:
REMARK  status: ('A' for Active; 'I' for Inactive)
REMARK    1  A    between atoms: C_1  and  C_2
REMARK    2  A    between atoms: C_5  and  C_6
REMARK                            x       y       z     vdW  Elec       q    Type
REMARK                         _______ _______ _______ _____ _____    ______ ____
ROOT
ATOM      1  C   UNL     1       2.844   5.473  17.898  0.00  0.00    +0.000 C 
ATOM      2  O   UNL     1       2.014   4.594  17.653  0.00  0.00    +0.000 OA
ATOM      3  N   UNL     1       4.204   5.300  17.598  0.00  0.00    +0.000 N 
ATOM      4  C   UNL     1       5.295   6.181  18.027  0.00  0.00    +0.000 C 
ATOM      5  C   UNL     1       6.580   5.442  18.346  0.00  0.00    +0.000 C 
ATOM      6  C   UNL     1       6.987   4.573  17.183  0.00  0.00    +0.000 C 
ATOM      7  O   UNL     1       8.154   4.222  17.035  0.00  0.00    +0.000 OA
ATOM      8  C   UNL     1       5.916   4.158  16.208  0.00  0.00    +0.000 C 
ATOM      9  C   UNL     1       4.584   4.055  16.927  0.00  0.00    +0.000 C 
ENDROOT
BRANCH   1  14
ATOM     10  C   UNL     1       0.834  10.379  20.272  0.00  0.00    +0.000 C 
ATOM     11  C   UNL     1       1.374   9.122  19.659  0.00  0.00    +0.000 A 
ATOM     12  C   UNL     1       1.653   9.040  18.290  0.00  0.00    +0.000 A 
ATOM     13  C   UNL     1       2.135   7.847  17.738  0.00  0.00    +0.000 A 
ATOM     14  C   UNL     1       2.349   6.722  18.547  0.00  0.00    +0.000 A 
ATOM     15  C   UNL     1       2.137   6.833  19.924  0.00  0.00    +0.000 A 
ATOM     16  C   UNL     1       1.611   8.008  20.470  0.00  0.00    +0.000 A 
ENDBRANCH   1  14
TORSDOF 1
ENDMDL
MODEL 2
REMARK VINA RESULT:      -6.8      3.072      5.168
REMARK  Name = 
REMARK  2 active torsions:
REMARK  status: ('A' for Active; 'I' for Inactive)
REMARK    1  A    between atoms: C_1  and  C_2
REMARK    2  A    between atoms: C_5  and  C_6
REMARK                            x       y       z     vdW  Elec       q    Type
REMARK                         _______ _______ _______ _____ _____    ______ ____
ROOT
ATOM      1  C   UNL     1       5.175   4.208  17.301  0.00  0.00    +0.000 C 
ATOM      2  O   UNL     1       5.345   3.570  16.259  0.00  0.00    +0.000 OA
ATOM      3  N   UNL     1       4.172   3.858  18.219  0.00  0.00    +0.000 N 
ATOM      4  C   UNL     1       3.751   4.657  19.373  0.00  0.00    +0.000 C 
ATOM      5  C   UNL     1       2.264   4.575  19.657  0.00  0.00    +0.000 C 
ATOM      6  C   UNL     1       1.835   3.135  19.786  0.00  0.00    +0.000 C 
ATOM      7  O   UNL     1       0.819   2.833  20.405  0.00  0.00    +0.000 OA
ATOM      8  C   UNL     1       2.698   2.084  19.138  0.00  0.00    +0.000 C 
ATOM      9  C   UNL     1       3.377   2.667  17.913  0.00  0.00    +0.000 C 
ENDROOT
BRANCH   1  14
ATOM     10  C   UNL     1       8.498   8.888  18.197  0.00  0.00    +0.000 C 
ATOM     11  C   UNL     1       7.651   7.676  17.946  0.00  0.00    +0.000 A 
ATOM     12  C   UNL     1       6.571   7.713  17.057  0.00  0.00    +0.000 A 
ATOM     13  C   UNL     1       5.782   6.575  16.857  0.00  0.00    +0.000 A 
ATOM     14  C   UNL     1       6.064   5.382  17.539  0.00  0.00    +0.000 A 
ATOM     15  C   UNL     1       7.188   5.332  18.369  0.00  0.00    +0.000 A 
ATOM     16  C   UNL     1       7.948   6.480  18.606  0.00  0.00    +0.000 A 
ENDBRANCH   1  14
TORSDOF 1
ENDMDL
MODEL 3
REMARK VINA RESULT:      -6.7      0.393      1.259
REMARK  Name = 
REMARK  2 active torsions:
REMARK  status: ('A' for Active; 'I' for Inactive)
REMARK    1  A    between atoms: C_1  and  C_2
REMARK    2  A    between atoms: C_5  and  C_6
REMARK                            x       y       z     vdW  Elec       q    Type
REMARK                         _______ _______ _______ _____ _____    ______ ____
ROOT
ATOM      1  C   UNL     1       2.896   5.300  17.909  0.00  0.00    +0.000 C 
ATOM      2  O   UNL     1       2.084   4.429  17.587  0.00  0.00    +0.000 OA
ATOM      3  N   UNL     1       4.262   5.173  17.614  0.00  0.00    +0.000 N 
ATOM      4  C   UNL     1       5.332   6.036  18.123  0.00  0.00    +0.000 C 
ATOM      5  C   UNL     1       6.626   5.296  18.401  0.00  0.00    +0.000 C 
ATOM      6  C   UNL     1       7.062   4.526  17.180  0.00  0.00    +0.000 C 
ATOM      7  O   UNL     1       8.237   4.207  17.020  0.00  0.00    +0.000 OA
ATOM      8  C   UNL     1       6.009   4.170  16.162  0.00  0.00    +0.000 C 
ATOM      9  C   UNL     1       4.671   3.990  16.854  0.00  0.00    +0.000 C 
ENDROOT
BRANCH   1  14
ATOM     10  C   UNL     1       0.932   9.860  20.925  0.00  0.00    +0.000 C 
ATOM     11  C   UNL     1       1.417   8.675  20.146  0.00  0.00    +0.000 A 
ATOM     12  C   UNL     1       1.583   7.423  20.748  0.00  0.00    +0.000 A 
ATOM     13  C   UNL     1       2.060   6.338  20.004  0.00  0.00    +0.000 A 
ATOM     14  C   UNL     1       2.372   6.487  18.646  0.00  0.00    +0.000 A 
ATOM     15  C   UNL     1       2.134   7.721  18.032  0.00  0.00    +0.000 A 
ATOM     16  C   UNL     1       1.704   8.818  18.784  0.00  0.00    +0.000 A 
ENDBRANCH   1  14
TORSDOF 1
ENDMDL
MODEL 4
REMARK VINA RESULT:      -6.7      3.002      5.301
REMARK  Name = 
REMARK  2 active torsions:
REMARK  status: ('A' for Active; 'I' for Inactive)
REMARK    1  A    between atoms: C_1  and  C_2
REMARK    2  A    between atoms: C_5  and  C_6
REMARK                            x       y       z     vdW  Elec       q    Type
REMARK                         _______ _______ _______ _____ _____    ______ ____
ROOT
ATOM      1  C   UNL     1       5.198   4.159  17.162  0.00  0.00    +0.000 C 
ATOM      2  O   UNL     1       5.504   3.477  16.181  0.00  0.00    +0.000 OA
ATOM      3  N   UNL     1       4.097   3.829  17.968  0.00  0.00    +0.000 N 
ATOM      4  C   UNL     1       3.525   4.672  19.023  0.00  0.00    +0.000 C 
ATOM      5  C   UNL     1       2.016   4.569  19.129  0.00  0.00    +0.000 C 
ATOM      6  C   UNL     1       1.599   3.127  19.277  0.00  0.00    +0.000 C 
ATOM      7  O   UNL     1       0.521   2.831  19.783  0.00  0.00    +0.000 OA
ATOM      8  C   UNL     1       2.553   2.067  18.790  0.00  0.00    +0.000 C 
ATOM      9  C   UNL     1       3.366   2.607  17.629  0.00  0.00    +0.000 C 
ENDROOT
BRANCH   1  14
ATOM     10  C   UNL     1       8.578   8.742  18.308  0.00  0.00    +0.000 C 
ATOM     11  C   UNL     1       7.694   7.563  18.032  0.00  0.00    +0.000 A 
ATOM     12  C   UNL     1       7.881   6.342  18.688  0.00  0.00    +0.000 A 
ATOM     13  C   UNL     1       7.056   5.249  18.396  0.00  0.00    +0.000 A 
ATOM     14  C   UNL     1       6.031   5.364  17.447  0.00  0.00    +0.000 A 
ATOM     15  C   UNL     1       5.804   6.607  16.848  0.00  0.00    +0.000 A 
ATOM     16  C   UNL     1       6.655   7.685  17.104  0.00  0.00    +0.000 A 
ENDBRANCH   1  14
TORSDOF 1
ENDMDL
MODEL 5
REMARK VINA RESULT:      -6.5      2.991      5.718
REMARK  Name = 
REMARK  2 active torsions:
REMARK  status: ('A' for Active; 'I' for Inactive)
REMARK    1  A    between atoms: C_1  and  C_2
REMARK    2  A    between atoms: C_5  and  C_6
REMARK                            x       y       z     vdW  Elec       q    Type
REMARK                         _______ _______ _______ _____ _____    ______ ____
ROOT
ATOM      1  C   UNL     1       3.220   5.737  18.352  0.00  0.00    +0.000 C 
ATOM      2  O   UNL     1       2.867   6.909  18.501  0.00  0.00    +0.000 OA
ATOM      3  N   UNL     1       2.774   4.722  19.215  0.00  0.00    +0.000 N 
ATOM      4  C   UNL     1       3.284   3.349  19.257  0.00  0.00    +0.000 C 
ATOM      5  C   UNL     1       3.327   2.762  20.654  0.00  0.00    +0.000 C 
ATOM      6  C   UNL     1       1.976   2.877  21.313  0.00  0.00    +0.000 C 
ATOM      7  O   UNL     1       1.657   2.132  22.235  0.00  0.00    +0.000 OA
ATOM      8  C   UNL     1       1.031   3.932  20.797  0.00  0.00    +0.000 C 
ATOM      9  C   UNL     1       1.824   5.108  20.260  0.00  0.00    +0.000 C 
ENDROOT
BRANCH   1  14
ATOM     10  C   UNL     1       6.969   4.725  14.033  0.00  0.00    +0.000 C 
ATOM     11  C   UNL     1       5.986   4.992  15.132  0.00  0.00    +0.000 A 
ATOM     12  C   UNL     1       5.707   6.294  15.561  0.00  0.00    +0.000 A 
ATOM     13  C   UNL     1       4.802   6.516  16.605  0.00  0.00    +0.000 A 
ATOM     14  C   UNL     1       4.158   5.440  17.231  0.00  0.00    +0.000 A 
ATOM     15  C   UNL     1       4.386   4.147  16.750  0.00  0.00    +0.000 A 
ATOM     16  C   UNL     1       5.325   3.920  15.740  0.00  0.00    +0.000 A 
ENDBRANCH   1  14
TORSDOF 1
ENDMDL
MODEL 6
REMARK VINA RESULT:      -6.4      2.922      5.755
REMARK  Name = 
REMARK  2 active torsions:
REMARK  status: ('A' for Active; 'I' for Inactive)
REMARK    1  A    between atoms: C_1  and  C_2
REMARK    2  A    between atoms: C_5  and  C_6
REMARK                            x       y       z     vdW  Elec       q    Type
REMARK                         _______ _______ _______ _____ _____    ______ ____
ROOT
ATOM      1  C   UNL     1       3.301   5.776  18.458  0.00  0.00    +0.000 C 
ATOM      2  O   UNL     1       2.863   6.925  18.553  0.00  0.00    +0.000 OA
ATOM      3  N   UNL     1       2.834   4.743  19.286  0.00  0.00    +0.000 N 
ATOM      4  C   UNL     1       3.421   3.405  19.400  0.00  0.00    +0.000 C 
ATOM      5  C   UNL     1       3.359   2.834  20.804  0.00  0.00    +0.000 C 
ATOM      6  C   UNL     1       1.943   2.870  21.321  0.00  0.00    +0.000 C 
ATOM      7  O   UNL     1       1.580   2.114  22.218  0.00  0.00    +0.000 OA
ATOM      8  C   UNL     1       0.992   3.858  20.698  0.00  0.00    +0.000 C 
ATOM      9  C   UNL     1       1.762   5.078  20.225  0.00  0.00    +0.000 C 
ENDROOT
BRANCH   1  14
ATOM     10  C   UNL     1       7.318   4.757  14.387  0.00  0.00    +0.000 C 
ATOM     11  C   UNL     1       6.289   5.002  15.450  0.00  0.00    +0.000 A 
ATOM     12  C   UNL     1       5.132   4.220  15.540  0.00  0.00    +0.000 A 
ATOM     13  C   UNL     1       4.176   4.483  16.527  0.00  0.00    +0.000 A 
ATOM     14  C   UNL     1       4.365   5.529  17.441  0.00  0.00    +0.000 A 
ATOM     15  C   UNL     1       5.556   6.260  17.391  0.00  0.00    +0.000 A 
ATOM     16  C   UNL     1       6.489   6.029  16.377  0.00  0.00    +0.000 A 
ENDBRANCH   1  14
TORSDOF 1
ENDMDL
MODEL 7
REMARK VINA RESULT:      -6.4      1.178      1.703
REMARK  Name = 
REMARK  2 active torsions:
REMARK  status: ('A' for Active; 'I' for Inactive)
REMARK    1  A    between atoms: C_1  and  C_2
REMARK    2  A    between atoms: C_5  and  C_6
REMARK                            x       y       z     vdW  Elec       q    Type
REMARK                         _______ _______ _______ _____ _____    ______ ____
ROOT
ATOM      1  C   UNL     1       3.172   5.009  17.895  0.00  0.00    +0.000 C 
ATOM      2  O   UNL     1       2.660   3.895  18.032  0.00  0.00    +0.000 OA
ATOM      3  N   UNL     1       4.278   5.207  17.054  0.00  0.00    +0.000 N 
ATOM      4  C   UNL     1       5.085   6.429  16.975  0.00  0.00    +0.000 C 
ATOM      5  C   UNL     1       6.559   6.166  16.733  0.00  0.00    +0.000 C 
ATOM      6  C   UNL     1       6.742   5.294  15.517  0.00  0.00    +0.000 C 
ATOM      7  O   UNL     1       7.802   5.291  14.897  0.00  0.00    +0.000 OA
ATOM      8  C   UNL     1       5.582   4.434  15.087  0.00  0.00    +0.000 C 
ATOM      9  C   UNL     1       4.758   4.048  16.300  0.00  0.00    +0.000 C 
ENDROOT
BRANCH   1  14
ATOM     10  C   UNL     1       0.950   9.324  21.087  0.00  0.00    +0.000 C 
ATOM     11  C   UNL     1       1.502   8.202  20.260  0.00  0.00    +0.000 A 
ATOM     12  C   UNL     1       1.658   6.915  20.787  0.00  0.00    +0.000 A 
ATOM     13  C   UNL     1       2.197   5.890  20.002  0.00  0.00    +0.000 A 
ATOM     14  C   UNL     1       2.584   6.135  18.677  0.00  0.00    +0.000 A 
ATOM     15  C   UNL     1       2.358   7.404  18.134  0.00  0.00    +0.000 A 
ATOM     16  C   UNL     1       1.864   8.440  18.931  0.00  0.00    +0.000 A 
ENDBRANCH   1  14
TORSDOF 1
ENDMDL
MODEL 8
REMARK VINA RESULT:      -6.4      2.484      3.806
REMARK  Name = 
REMARK  2 active torsions:
REMARK  status: ('A' for Active; 'I' for Inactive)
REMARK    1  A    between atoms: C_1  and  C_2
REMARK    2  A    between atoms: C_5  and  C_6
REMARK                            x       y       z     vdW  Elec       q    Type
REMARK                         _______ _______ _______ _____ _____    ______ ____
ROOT
ATOM      1  C   UNL     1       3.060   5.937  18.056  0.00  0.00    +0.000 C 
ATOM      2  O   UNL     1       2.373   6.930  17.809  0.00  0.00    +0.000 OA
ATOM      3  N   UNL     1       4.285   5.714  17.408  0.00  0.00    +0.000 N 
ATOM      4  C   UNL     1       5.075   4.481  17.471  0.00  0.00    +0.000 C 
ATOM      5  C   UNL     1       5.781   4.148  16.171  0.00  0.00    +0.000 C 
ATOM      6  C   UNL     1       6.610   5.320  15.710  0.00  0.00    +0.000 C 
ATOM      7  O   UNL     1       7.561   5.161  14.950  0.00  0.00    +0.000 OA
ATOM      8  C   UNL     1       6.235   6.688  16.218  0.00  0.00    +0.000 C 
ATOM      9  C   UNL     1       4.740   6.744  16.473  0.00  0.00    +0.000 C 
ENDROOT
BRANCH   1  14
ATOM     10  C   UNL     1       0.991   2.282  22.069  0.00  0.00    +0.000 C 
ATOM     11  C   UNL     1       1.544   3.214  21.034  0.00  0.00    +0.000 A 
ATOM     12  C   UNL     1       2.428   4.243  21.376  0.00  0.00    +0.000 A 
ATOM     13  C   UNL     1       2.913   5.114  20.394  0.00  0.00    +0.000 A 
ATOM     14  C   UNL     1       2.526   4.965  19.055  0.00  0.00    +0.000 A 
ATOM     15  C   UNL     1       1.702   3.891  18.708  0.00  0.00    +0.000 A 
ATOM     16  C   UNL     1       1.179   3.049  19.694  0.00  0.00    +0.000 A 
ENDBRANCH   1  14
TORSDOF 1
ENDMDL
MODEL 9
REMARK VINA RESULT:      -6.4      2.978      6.514
REMARK  Name = 
REMARK  2 active torsions:
REMARK  status: ('A' for Active; 'I' for Inactive)
REMARK    1  A    between atoms: C_1  and  C_2
REMARK    2  A    between atoms: C_5  and  C_6
REMARK                            x       y       z     vdW  Elec       q    Type
REMARK                         _______ _______ _______ _____ _____    ______ ____
ROOT
ATOM      1  C   UNL     1       1.907   8.710  18.343  0.00  0.00    +0.000 C 
ATOM      2  O   UNL     1       1.932   9.560  17.449  0.00  0.00    +0.000 OA
ATOM      3  N   UNL     1       1.317   8.976  19.589  0.00  0.00    +0.000 N 
ATOM      4  C   UNL     1       1.410   8.125  20.779  0.00  0.00    +0.000 C 
ATOM      5  C   UNL     1       1.484   8.906  22.077  0.00  0.00    +0.000 C 
ATOM      6  C   UNL     1       0.333   9.876  22.170  0.00  0.00    +0.000 C 
ATOM      7  O   UNL     1      -0.051  10.297  23.258  0.00  0.00    +0.000 OA
ATOM      8  C   UNL     1      -0.333  10.303  20.888  0.00  0.00    +0.000 C 
ATOM      9  C   UNL     1       0.680  10.283  19.758  0.00  0.00    +0.000 C 
ENDROOT
BRANCH   1  14
ATOM     10  C   UNL     1       4.561   3.655  17.274  0.00  0.00    +0.000 C 
ATOM     11  C   UNL     1       3.873   4.963  17.527  0.00  0.00    +0.000 A 
ATOM     12  C   UNL     1       4.528   6.183  17.326  0.00  0.00    +0.000 A 
ATOM     13  C   UNL     1       3.871   7.390  17.592  0.00  0.00    +0.000 A 
ATOM     14  C   UNL     1       2.548   7.394  18.057  0.00  0.00    +0.000 A 
ATOM     15  C   UNL     1       1.876   6.175  18.186  0.00  0.00    +0.000 A 
ATOM     16  C   UNL     1       2.545   4.968  17.966  0.00  0.00    +0.000 A 
ENDBRANCH   1  14
TORSDOF 1
ENDMDL
