MODEL 1
REMARK VINA RESULT:      -8.9      0.000      0.000
REMARK  Name = 
REMARK  1 active torsions:
REMARK  status: ('A' for Active; 'I' for Inactive)
REMARK    1  A    between atoms: C_4  and  C_5
REMARK                            x       y       z     vdW  Elec       q    Type
REMARK                         _______ _______ _______ _____ _____    ______ ____
ROOT
ATOM      1  O   UNL     1       3.438   1.428  17.636  0.00  0.00    +0.000 OA
ATOM      2  C   UNL     1       3.468   2.606  17.972  0.00  0.00    +0.000 C 
ATOM      3  C   UNL     1       4.205   3.644  17.187  0.00  0.00    +0.000 C 
ATOM      4  C   UNL     1       5.260   3.264  16.440  0.00  0.00    +0.000 C 
ATOM      5  C   UNL     1       3.694   5.044  17.354  0.00  0.00    +0.000 C 
ATOM      6  C   UNL     1       3.703   5.416  18.831  0.00  0.00    +0.000 C 
ATOM      7  C   UNL     1       2.906   4.422  19.633  0.00  0.00    +0.000 A 
ATOM      8  C   UNL     1       2.314   4.820  20.841  0.00  0.00    +0.000 A 
ATOM      9  C   UNL     1       1.579   3.910  21.600  0.00  0.00    +0.000 A 
ATOM     10  C   UNL     1       1.432   2.594  21.162  0.00  0.00    +0.000 A 
ATOM     11  C   UNL     1       2.033   2.179  19.974  0.00  0.00    +0.000 A 
ATOM     12  C   UNL     1       2.780   3.084  19.210  0.00  0.00    +0.000 A 
ENDROOT
BRANCH   4  13
ATOM     13  C   UNL     1       6.094   4.169  15.721  0.00  0.00    +0.000 A 
ATOM     14  C   UNL     1       6.859   5.155  16.308  0.00  0.00    +0.000 A 
ATOM     15  N   UNL     1       7.606   5.741  15.317  0.00  0.00    +0.000 N 
ATOM     16  C   UNL     1       7.332   5.152  14.114  0.00  0.00    +0.000 A 
ATOM     17  N   UNL     1       7.937   5.475  12.956  0.00  0.00    +0.000 NA
ATOM     18  C   UNL     1       7.485   4.749  11.908  0.00  0.00    +0.000 A 
ATOM     19  C   UNL     1       6.492   3.778  11.961  0.00  0.00    +0.000 A 
ATOM     20  C   UNL     1       5.900   3.481  13.189  0.00  0.00    +0.000 A 
ATOM     21  C   UNL     1       6.350   4.187  14.321  0.00  0.00    +0.000 A 
ATOM     22  H   UNL     1       8.286   6.478  15.434  0.00  0.00    +0.000 HD
ENDBRANCH   4  13
TORSDOF 1
ENDMDL
MODEL 2
REMARK VINA RESULT:      -8.3      4.081      6.251
REMARK  Name = 
REMARK  1 active torsions:
REMARK  status: ('A' for Active; 'I' for Inactive)
REMARK    1  A    between atoms: C_4  and  C_5
REMARK                            x       y       z     vdW  Elec       q    Type
REMARK                         _______ _______ _______ _____ _____    ______ ____
ROOT
ATOM      1  O   UNL     1       2.158   9.392  17.452  0.00  0.00    +0.000 OA
ATOM      2  C   UNL     1       1.978   8.730  18.466  0.00  0.00    +0.000 C 
ATOM      3  C   UNL     1       2.561   7.364  18.645  0.00  0.00    +0.000 C 
ATOM      4  C   UNL     1       2.822   6.623  17.550  0.00  0.00    +0.000 C 
ATOM      5  C   UNL     1       2.760   6.944  20.071  0.00  0.00    +0.000 C 
ATOM      6  C   UNL     1       1.437   7.038  20.820  0.00  0.00    +0.000 C 
ATOM      7  C   UNL     1       0.866   8.428  20.712  0.00  0.00    +0.000 A 
ATOM      8  C   UNL     1       0.012   8.906  21.718  0.00  0.00    +0.000 A 
ATOM      9  C   UNL     1      -0.531  10.187  21.630  0.00  0.00    +0.000 A 
ATOM     10  C   UNL     1      -0.232  11.000  20.538  0.00  0.00    +0.000 A 
ATOM     11  C   UNL     1       0.598  10.528  19.520  0.00  0.00    +0.000 A 
ATOM     12  C   UNL     1       1.141   9.240  19.595  0.00  0.00    +0.000 A 
ENDROOT
BRANCH   4  13
ATOM     13  C   UNL     1       3.293   5.278  17.595  0.00  0.00    +0.000 A 
ATOM     14  C   UNL     1       4.583   4.895  17.293  0.00  0.00    +0.000 A 
ATOM     15  N   UNL     1       4.687   3.553  17.559  0.00  0.00    +0.000 N 
ATOM     16  C   UNL     1       3.493   3.073  18.021  0.00  0.00    +0.000 A 
ATOM     17  N   UNL     1       3.285   1.802  18.411  0.00  0.00    +0.000 NA
ATOM     18  C   UNL     1       2.016   1.580  18.822  0.00  0.00    +0.000 A 
ATOM     19  C   UNL     1       0.993   2.520  18.841  0.00  0.00    +0.000 A 
ATOM     20  C   UNL     1       1.264   3.825  18.428  0.00  0.00    +0.000 A 
ATOM     21  C   UNL     1       2.576   4.121  18.014  0.00  0.00    +0.000 A 
ATOM     22  H   UNL     1       5.516   2.985  17.466  0.00  0.00    +0.000 HD
ENDBRANCH   4  13
TORSDOF 1
ENDMDL
MODEL 3
REMARK VINA RESULT:      -8.1      2.896      3.830
REMARK  Name = 
REMARK  1 active torsions:
REMARK  status: ('A' for Active; 'I' for Inactive)
REMARK    1  A    between atoms: C_4  and  C_5
REMARK                            x       y       z     vdW  Elec       q    Type
REMARK                         _______ _______ _______ _____ _____    ______ ____
ROOT
ATOM      1  O   UNL     1       2.613   5.418  20.519  0.00  0.00    +0.000 OA
ATOM      2  C   UNL     1       2.583   6.398  19.785  0.00  0.00    +0.000 C 
ATOM      3  C   UNL     1       3.485   6.539  18.601  0.00  0.00    +0.000 C 
ATOM      4  C   UNL     1       4.673   5.904  18.611  0.00  0.00    +0.000 C 
ATOM      5  C   UNL     1       2.966   7.434  17.514  0.00  0.00    +0.000 C 
ATOM      6  C   UNL     1       2.657   8.809  18.091  0.00  0.00    +0.000 C 
ATOM      7  C   UNL     1       1.693   8.697  19.242  0.00  0.00    +0.000 A 
ATOM      8  C   UNL     1       0.857   9.780  19.555  0.00  0.00    +0.000 A 
ATOM      9  C   UNL     1      -0.036   9.695  20.623  0.00  0.00    +0.000 A 
ATOM     10  C   UNL     1      -0.099   8.533  21.390  0.00  0.00    +0.000 A 
ATOM     11  C   UNL     1       0.742   7.457  21.103  0.00  0.00    +0.000 A 
ATOM     12  C   UNL     1       1.647   7.536  20.039  0.00  0.00    +0.000 A 
ENDROOT
BRANCH   4  13
ATOM     13  C   UNL     1       5.653   6.033  17.585  0.00  0.00    +0.000 A 
ATOM     14  C   UNL     1       6.767   6.841  17.670  0.00  0.00    +0.000 A 
ATOM     15  N   UNL     1       7.527   6.614  16.549  0.00  0.00    +0.000 N 
ATOM     16  C   UNL     1       6.921   5.682  15.754  0.00  0.00    +0.000 A 
ATOM     17  N   UNL     1       7.441   5.214  14.603  0.00  0.00    +0.000 NA
ATOM     18  C   UNL     1       6.643   4.302  14.002  0.00  0.00    +0.000 A 
ATOM     19  C   UNL     1       5.405   3.874  14.466  0.00  0.00    +0.000 A 
ATOM     20  C   UNL     1       4.916   4.390  15.666  0.00  0.00    +0.000 A 
ATOM     21  C   UNL     1       5.715   5.325  16.350  0.00  0.00    +0.000 A 
ATOM     22  H   UNL     1       8.418   7.036  16.333  0.00  0.00    +0.000 HD
ENDBRANCH   4  13
TORSDOF 1
ENDMDL
MODEL 4
REMARK VINA RESULT:      -7.8      4.606      7.175
REMARK  Name = 
REMARK  1 active torsions:
REMARK  status: ('A' for Active; 'I' for Inactive)
REMARK    1  A    between atoms: C_4  and  C_5
REMARK                            x       y       z     vdW  Elec       q    Type
REMARK                         _______ _______ _______ _____ _____    ______ ____
ROOT
ATOM      1  O   UNL     1       1.733   9.304  17.224  0.00  0.00    +0.000 OA
ATOM      2  C   UNL     1       1.569   8.982  18.394  0.00  0.00    +0.000 C 
ATOM      3  C   UNL     1       2.224   7.777  18.992  0.00  0.00    +0.000 C 
ATOM      4  C   UNL     1       2.550   6.749  18.185  0.00  0.00    +0.000 C 
ATOM      5  C   UNL     1       2.414   7.835  20.479  0.00  0.00    +0.000 C 
ATOM      6  C   UNL     1       1.072   8.078  21.156  0.00  0.00    +0.000 C 
ATOM      7  C   UNL     1       0.426   9.328  20.619  0.00  0.00    +0.000 A 
ATOM      8  C   UNL     1      -0.475  10.044  21.421  0.00  0.00    +0.000 A 
ATOM      9  C   UNL     1      -1.087  11.199  20.936  0.00  0.00    +0.000 A 
ATOM     10  C   UNL     1      -0.810  11.647  19.646  0.00  0.00    +0.000 A 
ATOM     11  C   UNL     1       0.068  10.933  18.829  0.00  0.00    +0.000 A 
ATOM     12  C   UNL     1       0.680   9.767  19.304  0.00  0.00    +0.000 A 
ENDROOT
BRANCH   4  13
ATOM     13  C   UNL     1       3.094   5.516  18.649  0.00  0.00    +0.000 A 
ATOM     14  C   UNL     1       4.377   5.083  18.385  0.00  0.00    +0.000 A 
ATOM     15  N   UNL     1       4.571   3.921  19.087  0.00  0.00    +0.000 N 
ATOM     16  C   UNL     1       3.442   3.603  19.790  0.00  0.00    +0.000 A 
ATOM     17  N   UNL     1       3.333   2.542  20.611  0.00  0.00    +0.000 NA
ATOM     18  C   UNL     1       2.112   2.447  21.184  0.00  0.00    +0.000 A 
ATOM     19  C   UNL     1       1.044   3.309  20.969  0.00  0.00    +0.000 A 
ATOM     20  C   UNL     1       1.213   4.395  20.109  0.00  0.00    +0.000 A 
ATOM     21  C   UNL     1       2.473   4.560  19.503  0.00  0.00    +0.000 A 
ATOM     22  H   UNL     1       5.421   3.376  19.122  0.00  0.00    +0.000 HD
ENDBRANCH   4  13
TORSDOF 1
ENDMDL
MODEL 5
REMARK VINA RESULT:      -7.6      1.815      2.451
REMARK  Name = 
REMARK  1 active torsions:
REMARK  status: ('A' for Active; 'I' for Inactive)
REMARK    1  A    between atoms: C_4  and  C_5
REMARK                            x       y       z     vdW  Elec       q    Type
REMARK                         _______ _______ _______ _____ _____    ______ ____
ROOT
ATOM      1  O   UNL     1       2.276   6.646  19.367  0.00  0.00    +0.000 OA
ATOM      2  C   UNL     1       3.017   5.673  19.416  0.00  0.00    +0.000 C 
ATOM      3  C   UNL     1       4.326   5.626  18.693  0.00  0.00    +0.000 C 
ATOM      4  C   UNL     1       4.480   6.372  17.582  0.00  0.00    +0.000 C 
ATOM      5  C   UNL     1       5.341   4.692  19.284  0.00  0.00    +0.000 C 
ATOM      6  C   UNL     1       4.754   3.290  19.372  0.00  0.00    +0.000 C 
ATOM      7  C   UNL     1       3.469   3.302  20.158  0.00  0.00    +0.000 A 
ATOM      8  C   UNL     1       3.057   2.142  20.831  0.00  0.00    +0.000 A 
ATOM      9  C   UNL     1       1.867   2.134  21.558  0.00  0.00    +0.000 A 
ATOM     10  C   UNL     1       1.075   3.280  21.613  0.00  0.00    +0.000 A 
ATOM     11  C   UNL     1       1.462   4.434  20.930  0.00  0.00    +0.000 A 
ATOM     12  C   UNL     1       2.651   4.448  20.191  0.00  0.00    +0.000 A 
ENDROOT
BRANCH   4  13
ATOM     13  C   UNL     1       5.644   6.344  16.760  0.00  0.00    +0.000 A 
ATOM     14  C   UNL     1       6.805   7.038  17.031  0.00  0.00    +0.000 A 
ATOM     15  N   UNL     1       7.732   6.674  16.087  0.00  0.00    +0.000 N 
ATOM     16  C   UNL     1       7.187   5.767  15.221  0.00  0.00    +0.000 A 
ATOM     17  N   UNL     1       7.859   5.186  14.209  0.00  0.00    +0.000 NA
ATOM     18  C   UNL     1       7.093   4.329  13.496  0.00  0.00    +0.000 A 
ATOM     19  C   UNL     1       5.750   4.056  13.726  0.00  0.00    +0.000 A 
ATOM     20  C   UNL     1       5.103   4.685  14.791  0.00  0.00    +0.000 A 
ATOM     21  C   UNL     1       5.858   5.568  15.585  0.00  0.00    +0.000 A 
ATOM     22  H   UNL     1       8.689   6.990  16.033  0.00  0.00    +0.000 HD
ENDBRANCH   4  13
TORSDOF 1
ENDMDL
MODEL 6
REMARK VINA RESULT:      -7.6      3.737      5.333
REMARK  Name = 
REMARK  1 active torsions:
REMARK  status: ('A' for Active; 'I' for Inactive)
REMARK    1  A    between atoms: C_4  and  C_5
REMARK                            x       y       z     vdW  Elec       q    Type
REMARK                         _______ _______ _______ _____ _____    ______ ____
ROOT
ATOM      1  O   UNL     1       1.461   6.911  21.386  0.00  0.00    +0.000 OA
ATOM      2  C   UNL     1       1.724   7.362  20.278  0.00  0.00    +0.000 C 
ATOM      3  C   UNL     1       2.409   6.551  19.225  0.00  0.00    +0.000 C 
ATOM      4  C   UNL     1       3.216   5.542  19.607  0.00  0.00    +0.000 C 
ATOM      5  C   UNL     1       2.142   6.991  17.815  0.00  0.00    +0.000 C 
ATOM      6  C   UNL     1       2.520   8.458  17.659  0.00  0.00    +0.000 C 
ATOM      7  C   UNL     1       1.786   9.304  18.666  0.00  0.00    +0.000 A 
ATOM      8  C   UNL     1       1.529  10.654  18.382  0.00  0.00    +0.000 A 
ATOM      9  C   UNL     1       0.857  11.453  19.306  0.00  0.00    +0.000 A 
ATOM     10  C   UNL     1       0.441  10.915  20.523  0.00  0.00    +0.000 A 
ATOM     11  C   UNL     1       0.710   9.580  20.827  0.00  0.00    +0.000 A 
ATOM     12  C   UNL     1       1.391   8.772  19.909  0.00  0.00    +0.000 A 
ENDROOT
BRANCH   4  13
ATOM     13  C   UNL     1       3.990   4.758  18.703  0.00  0.00    +0.000 A 
ATOM     14  C   UNL     1       3.714   3.447  18.377  0.00  0.00    +0.000 A 
ATOM     15  N   UNL     1       4.600   3.070  17.400  0.00  0.00    +0.000 N 
ATOM     16  C   UNL     1       5.435   4.110  17.098  0.00  0.00    +0.000 A 
ATOM     17  N   UNL     1       6.388   4.067  16.148  0.00  0.00    +0.000 NA
ATOM     18  C   UNL     1       7.081   5.224  16.049  0.00  0.00    +0.000 A 
ATOM     19  C   UNL     1       6.888   6.356  16.832  0.00  0.00    +0.000 A 
ATOM     20  C   UNL     1       5.884   6.346  17.801  0.00  0.00    +0.000 A 
ATOM     21  C   UNL     1       5.112   5.177  17.932  0.00  0.00    +0.000 A 
ATOM     22  H   UNL     1       4.636   2.175  16.934  0.00  0.00    +0.000 HD
ENDBRANCH   4  13
TORSDOF 1
ENDMDL
MODEL 7
REMARK VINA RESULT:      -7.6      1.608      2.248
REMARK  Name = 
REMARK  1 active torsions:
REMARK  status: ('A' for Active; 'I' for Inactive)
REMARK    1  A    between atoms: C_4  and  C_5
REMARK                            x       y       z     vdW  Elec       q    Type
REMARK                         _______ _______ _______ _____ _____    ______ ____
ROOT
ATOM      1  O   UNL     1       3.101   6.749  18.377  0.00  0.00    +0.000 OA
ATOM      2  C   UNL     1       3.381   5.565  18.233  0.00  0.00    +0.000 C 
ATOM      3  C   UNL     1       4.509   5.109  17.363  0.00  0.00    +0.000 C 
ATOM      4  C   UNL     1       4.886   5.887  16.330  0.00  0.00    +0.000 C 
ATOM      5  C   UNL     1       5.088   3.774  17.728  0.00  0.00    +0.000 C 
ATOM      6  C   UNL     1       3.985   2.724  17.729  0.00  0.00    +0.000 C 
ATOM      7  C   UNL     1       2.868   3.129  18.655  0.00  0.00    +0.000 A 
ATOM      8  C   UNL     1       2.061   2.143  19.241  0.00  0.00    +0.000 A 
ATOM      9  C   UNL     1       1.018   2.502  20.094  0.00  0.00    +0.000 A 
ATOM     10  C   UNL     1       0.769   3.847  20.366  0.00  0.00    +0.000 A 
ATOM     11  C   UNL     1       1.551   4.838  19.772  0.00  0.00    +0.000 A 
ATOM     12  C   UNL     1       2.594   4.488  18.907  0.00  0.00    +0.000 A 
ENDROOT
BRANCH   4  13
ATOM     13  C   UNL     1       5.885   5.520  15.381  0.00  0.00    +0.000 A 
ATOM     14  C   UNL     1       7.225   5.821  15.505  0.00  0.00    +0.000 A 
ATOM     15  N   UNL     1       7.882   5.209  14.468  0.00  0.00    +0.000 N 
ATOM     16  C   UNL     1       6.992   4.527  13.686  0.00  0.00    +0.000 A 
ATOM     17  N   UNL     1       7.334   3.787  12.615  0.00  0.00    +0.000 NA
ATOM     18  C   UNL     1       6.267   3.218  12.009  0.00  0.00    +0.000 A 
ATOM     19  C   UNL     1       4.940   3.363  12.397  0.00  0.00    +0.000 A 
ATOM     20  C   UNL     1       4.642   4.140  13.517  0.00  0.00    +0.000 A 
ATOM     21  C   UNL     1       5.716   4.737  14.204  0.00  0.00    +0.000 A 
ATOM     22  H   UNL     1       8.878   5.219  14.299  0.00  0.00    +0.000 HD
ENDBRANCH   4  13
TORSDOF 1
ENDMDL
MODEL 8
REMARK VINA RESULT:      -7.5      4.900      8.229
REMARK  Name = 
REMARK  1 active torsions:
REMARK  status: ('A' for Active; 'I' for Inactive)
REMARK    1  A    between atoms: C_4  and  C_5
REMARK                            x       y       z     vdW  Elec       q    Type
REMARK                         _______ _______ _______ _____ _____    ______ ____
ROOT
ATOM      1  O   UNL     1       2.175   4.455  21.786  0.00  0.00    +0.000 OA
ATOM      2  C   UNL     1       2.285   4.853  20.632  0.00  0.00    +0.000 C 
ATOM      3  C   UNL     1       2.121   6.293  20.263  0.00  0.00    +0.000 C 
ATOM      4  C   UNL     1       1.345   7.076  21.037  0.00  0.00    +0.000 C 
ATOM      5  C   UNL     1       2.831   6.708  19.008  0.00  0.00    +0.000 C 
ATOM      6  C   UNL     1       2.378   5.827  17.852  0.00  0.00    +0.000 C 
ATOM      7  C   UNL     1       2.600   4.373  18.174  0.00  0.00    +0.000 A 
ATOM      8  C   UNL     1       2.794   3.453  17.133  0.00  0.00    +0.000 A 
ATOM      9  C   UNL     1       2.994   2.102  17.414  0.00  0.00    +0.000 A 
ATOM     10  C   UNL     1       2.997   1.657  18.734  0.00  0.00    +0.000 A 
ATOM     11  C   UNL     1       2.783   2.557  19.779  0.00  0.00    +0.000 A 
ATOM     12  C   UNL     1       2.573   3.914  19.506  0.00  0.00    +0.000 A 
ENDROOT
BRANCH   4  13
ATOM     13  C   UNL     1       1.041   8.437  20.740  0.00  0.00    +0.000 A 
ATOM     14  C   UNL     1       1.357   9.063  19.553  0.00  0.00    +0.000 A 
ATOM     15  N   UNL     1       0.807  10.320  19.592  0.00  0.00    +0.000 N 
ATOM     16  C   UNL     1       0.150  10.508  20.776  0.00  0.00    +0.000 A 
ATOM     17  N   UNL     1      -0.531  11.624  21.097  0.00  0.00    +0.000 NA
ATOM     18  C   UNL     1      -1.087  11.561  22.328  0.00  0.00    +0.000 A 
ATOM     19  C   UNL     1      -0.982  10.496  23.214  0.00  0.00    +0.000 A 
ATOM     20  C   UNL     1      -0.266   9.362  22.828  0.00  0.00    +0.000 A 
ATOM     21  C   UNL     1       0.314   9.359  21.545  0.00  0.00    +0.000 A 
ATOM     22  H   UNL     1       0.841  11.013  18.858  0.00  0.00    +0.000 HD
ENDBRANCH   4  13
TORSDOF 1
ENDMDL
MODEL 9
REMARK VINA RESULT:      -7.5      4.565      6.202
REMARK  Name = 
REMARK  1 active torsions:
REMARK  status: ('A' for Active; 'I' for Inactive)
REMARK    1  A    between atoms: C_4  and  C_5
REMARK                            x       y       z     vdW  Elec       q    Type
REMARK                         _______ _______ _______ _____ _____    ______ ____
ROOT
ATOM      1  O   UNL     1       1.293  10.351  18.313  0.00  0.00    +0.000 OA
ATOM      2  C   UNL     1       1.235   9.569  19.253  0.00  0.00    +0.000 C 
ATOM      3  C   UNL     1       1.873   8.217  19.211  0.00  0.00    +0.000 C 
ATOM      4  C   UNL     1       2.045   7.618  18.016  0.00  0.00    +0.000 C 
ATOM      5  C   UNL     1       2.225   7.642  20.551  0.00  0.00    +0.000 C 
ATOM      6  C   UNL     1       0.981   7.595  21.428  0.00  0.00    +0.000 C 
ATOM      7  C   UNL     1       0.361   8.963  21.543  0.00  0.00    +0.000 A 
ATOM      8  C   UNL     1      -0.402   9.286  22.675  0.00  0.00    +0.000 A 
ATOM      9  C   UNL     1      -0.988  10.545  22.793  0.00  0.00    +0.000 A 
ATOM     10  C   UNL     1      -0.824  11.491  21.782  0.00  0.00    +0.000 A 
ATOM     11  C   UNL     1      -0.085  11.175  20.641  0.00  0.00    +0.000 A 
ATOM     12  C   UNL     1       0.500   9.910  20.509  0.00  0.00    +0.000 A 
ENDROOT
BRANCH   4  13
ATOM     13  C   UNL     1       2.557   6.298  17.854  0.00  0.00    +0.000 A 
ATOM     14  C   UNL     1       1.804   5.150  17.988  0.00  0.00    +0.000 A 
ATOM     15  N   UNL     1       2.607   4.090  17.647  0.00  0.00    +0.000 N 
ATOM     16  C   UNL     1       3.851   4.537  17.301  0.00  0.00    +0.000 A 
ATOM     17  N   UNL     1       4.852   3.743  16.876  0.00  0.00    +0.000 NA
ATOM     18  C   UNL     1       5.985   4.429  16.601  0.00  0.00    +0.000 A 
ATOM     19  C   UNL     1       6.158   5.800  16.744  0.00  0.00    +0.000 A 
ATOM     20  C   UNL     1       5.086   6.577  17.186  0.00  0.00    +0.000 A 
ATOM     21  C   UNL     1       3.873   5.920  17.462  0.00  0.00    +0.000 A 
ATOM     22  H   UNL     1       2.337   3.118  17.619  0.00  0.00    +0.000 HD
ENDBRANCH   4  13
TORSDOF 1
ENDMDL
