MODEL 1
REMARK VINA RESULT:      -6.9      0.000      0.000
REMARK  Name = 
REMARK  6 active torsions:
REMARK  status: ('A' for Active; 'I' for Inactive)
REMARK    1  A    between atoms: C_1  and  N_2
REMARK    2  A    between atoms: N_2  and  C_3
REMARK    3  A    between atoms: C_6  and  C_7
REMARK    4  A    between atoms: C_8  and  C_9
REMARK    5  A    between atoms: C_14  and  C_15
REMARK    6  A    between atoms: C_14  and  O_16
REMARK                            x       y       z     vdW  Elec       q    Type
REMARK                         _______ _______ _______ _____ _____    ______ ____
ROOT
ATOM      1  C   UNL     1       3.643   4.236  17.622  0.00  0.00    +0.000 C 
ATOM      2  O   UNL     1       3.160   3.835  16.558  0.00  0.00    +0.000 OA
ATOM      3  N   UNL     1       4.920   4.794  17.620  0.00  0.00    +0.000 N 
ATOM      4  C   UNL     1       5.559   5.043  16.342  0.00  0.00    +0.000 C 
ATOM      5  C   UNL     1       6.777   5.870  16.710  0.00  0.00    +0.000 C 
ATOM      6  C   UNL     1       7.256   5.199  18.003  0.00  0.00    +0.000 C 
ATOM      7  C   UNL     1       8.004   6.174  18.907  0.00  0.00    +0.000 C 
ATOM      8  C   UNL     1       5.955   4.645  18.645  0.00  0.00    +0.000 C 
ENDROOT
BRANCH   1  14
ATOM      9  C   UNL     1       2.280   2.969  19.300  0.00  0.00    +0.000 A 
ATOM     10  S   UNL     1       1.380   3.281  20.733  0.00  0.00    +0.000 S 
ATOM     11  N   UNL     1       1.594   4.905  20.741  0.00  0.00    +0.000 NA
ATOM     12  C   UNL     1       2.332   5.261  19.690  0.00  0.00    +0.000 A 
ATOM     13  C   UNL     1       2.471   6.734  19.512  0.00  0.00    +0.000 C 
ATOM     14  C   UNL     1       2.841   4.182  18.862  0.00  0.00    +0.000 A 
BRANCH   9  16
ATOM     15  C   UNL     1       3.706   1.079  18.672  0.00  0.00    +0.000 C 
ATOM     16  N   UNL     1       2.404   1.725  18.732  0.00  0.00    +0.000 N 
ATOM     17  H   UNL     1       1.664   1.066  19.000  0.00  0.00    +0.000 HD
ENDBRANCH   9  16
ENDBRANCH   1  14
BRANCH   6  18
ATOM     18  O   UNL     1       8.125   4.112  17.671  0.00  0.00    +0.000 OA
ATOM     19  H   UNL     1       8.960   4.231  18.153  0.00  0.00    +0.000 HD
ENDBRANCH   6  18
TORSDOF 3
ENDMDL
MODEL 2
REMARK VINA RESULT:      -6.8      1.682      3.477
REMARK  Name = 
REMARK  6 active torsions:
REMARK  status: ('A' for Active; 'I' for Inactive)
REMARK    1  A    between atoms: C_1  and  N_2
REMARK    2  A    between atoms: N_2  and  C_3
REMARK    3  A    between atoms: C_6  and  C_7
REMARK    4  A    between atoms: C_8  and  C_9
REMARK    5  A    between atoms: C_14  and  C_15
REMARK    6  A    between atoms: C_14  and  O_16
REMARK                            x       y       z     vdW  Elec       q    Type
REMARK                         _______ _______ _______ _____ _____    ______ ____
ROOT
ATOM      1  C   UNL     1       4.857   4.486  18.966  0.00  0.00    +0.000 C 
ATOM      2  O   UNL     1       5.540   4.935  19.893  0.00  0.00    +0.000 OA
ATOM      3  N   UNL     1       5.399   4.442  17.683  0.00  0.00    +0.000 N 
ATOM      4  C   UNL     1       6.805   4.759  17.519  0.00  0.00    +0.000 C 
ATOM      5  C   UNL     1       7.092   4.361  16.084  0.00  0.00    +0.000 C 
ATOM      6  C   UNL     1       5.827   4.822  15.350  0.00  0.00    +0.000 C 
ATOM      7  C   UNL     1       5.560   3.991  14.100  0.00  0.00    +0.000 C 
ATOM      8  C   UNL     1       4.706   4.697  16.418  0.00  0.00    +0.000 C 
ENDROOT
BRANCH   1  14
ATOM      9  C   UNL     1       2.576   4.688  19.984  0.00  0.00    +0.000 A 
ATOM     10  S   UNL     1       1.148   3.743  20.148  0.00  0.00    +0.000 S 
ATOM     11  N   UNL     1       1.722   2.401  19.407  0.00  0.00    +0.000 NA
ATOM     12  C   UNL     1       2.979   2.611  19.019  0.00  0.00    +0.000 A 
ATOM     13  C   UNL     1       3.657   1.407  18.461  0.00  0.00    +0.000 C 
ATOM     14  C   UNL     1       3.509   3.945  19.239  0.00  0.00    +0.000 A 
BRANCH   9  16
ATOM     15  C   UNL     1       2.279   7.107  19.735  0.00  0.00    +0.000 C 
ATOM     16  N   UNL     1       2.719   5.951  20.502  0.00  0.00    +0.000 N 
ATOM     17  H   UNL     1       2.460   6.030  21.492  0.00  0.00    +0.000 HD
ENDBRANCH   9  16
ENDBRANCH   1  14
BRANCH   6  18
ATOM     18  O   UNL     1       5.978   6.194  14.974  0.00  0.00    +0.000 OA
ATOM     19  H   UNL     1       5.221   6.443  14.418  0.00  0.00    +0.000 HD
ENDBRANCH   6  18
TORSDOF 3
ENDMDL
MODEL 3
REMARK VINA RESULT:      -6.4      1.890      2.699
REMARK  Name = 
REMARK  6 active torsions:
REMARK  status: ('A' for Active; 'I' for Inactive)
REMARK    1  A    between atoms: C_1  and  N_2
REMARK    2  A    between atoms: N_2  and  C_3
REMARK    3  A    between atoms: C_6  and  C_7
REMARK    4  A    between atoms: C_8  and  C_9
REMARK    5  A    between atoms: C_14  and  C_15
REMARK    6  A    between atoms: C_14  and  O_16
REMARK                            x       y       z     vdW  Elec       q    Type
REMARK                         _______ _______ _______ _____ _____    ______ ____
ROOT
ATOM      1  C   UNL     1       5.457   4.711  19.071  0.00  0.00    +0.000 C 
ATOM      2  O   UNL     1       6.304   5.157  19.852  0.00  0.00    +0.000 OA
ATOM      3  N   UNL     1       5.780   4.584  17.721  0.00  0.00    +0.000 N 
ATOM      4  C   UNL     1       7.154   4.814  17.318  0.00  0.00    +0.000 C 
ATOM      5  C   UNL     1       7.184   4.343  15.877  0.00  0.00    +0.000 C 
ATOM      6  C   UNL     1       5.840   4.844  15.334  0.00  0.00    +0.000 C 
ATOM      7  C   UNL     1       5.333   3.979  14.185  0.00  0.00    +0.000 C 
ATOM      8  C   UNL     1       4.904   4.826  16.573  0.00  0.00    +0.000 C 
ENDROOT
BRANCH   1  14
ATOM      9  C   UNL     1       3.919   2.901  19.870  0.00  0.00    +0.000 A 
ATOM     10  S   UNL     1       2.288   2.730  20.391  0.00  0.00    +0.000 S 
ATOM     11  N   UNL     1       1.849   4.290  20.155  0.00  0.00    +0.000 NA
ATOM     12  C   UNL     1       2.889   4.978  19.687  0.00  0.00    +0.000 A 
ATOM     13  C   UNL     1       2.568   6.380  19.296  0.00  0.00    +0.000 C 
ATOM     14  C   UNL     1       4.147   4.259  19.583  0.00  0.00    +0.000 A 
BRANCH   9  16
ATOM     15  C   UNL     1       5.287   1.204  20.989  0.00  0.00    +0.000 C 
ATOM     16  N   UNL     1       4.806   1.857  19.780  0.00  0.00    +0.000 N 
ATOM     17  H   UNL     1       4.580   1.177  19.045  0.00  0.00    +0.000 HD
ENDBRANCH   9  16
ENDBRANCH   1  14
BRANCH   6  18
ATOM     18  O   UNL     1       5.996   6.189  14.872  0.00  0.00    +0.000 OA
ATOM     19  H   UNL     1       6.823   6.242  14.364  0.00  0.00    +0.000 HD
ENDBRANCH   6  18
TORSDOF 3
ENDMDL
MODEL 4
REMARK VINA RESULT:      -6.2      1.047      1.097
REMARK  Name = 
REMARK  6 active torsions:
REMARK  status: ('A' for Active; 'I' for Inactive)
REMARK    1  A    between atoms: C_1  and  N_2
REMARK    2  A    between atoms: N_2  and  C_3
REMARK    3  A    between atoms: C_6  and  C_7
REMARK    4  A    between atoms: C_8  and  C_9
REMARK    5  A    between atoms: C_14  and  C_15
REMARK    6  A    between atoms: C_14  and  O_16
REMARK                            x       y       z     vdW  Elec       q    Type
REMARK                         _______ _______ _______ _____ _____    ______ ____
ROOT
ATOM      1  C   UNL     1       3.595   4.221  17.594  0.00  0.00    +0.000 C 
ATOM      2  O   UNL     1       3.055   3.373  16.876  0.00  0.00    +0.000 OA
ATOM      3  N   UNL     1       4.756   4.849  17.146  0.00  0.00    +0.000 N 
ATOM      4  C   UNL     1       5.185   4.610  15.781  0.00  0.00    +0.000 C 
ATOM      5  C   UNL     1       6.290   5.628  15.575  0.00  0.00    +0.000 C 
ATOM      6  C   UNL     1       7.026   5.599  16.919  0.00  0.00    +0.000 C 
ATOM      7  C   UNL     1       7.714   6.927  17.220  0.00  0.00    +0.000 C 
ATOM      8  C   UNL     1       5.920   5.236  17.947  0.00  0.00    +0.000 C 
ENDROOT
BRANCH   1  14
ATOM      9  C   UNL     1       2.726   3.641  19.872  0.00  0.00    +0.000 A 
ATOM     10  S   UNL     1       1.955   4.422  21.197  0.00  0.00    +0.000 S 
ATOM     11  N   UNL     1       1.830   5.898  20.499  0.00  0.00    +0.000 NA
ATOM     12  C   UNL     1       2.351   5.857  19.274  0.00  0.00    +0.000 A 
ATOM     13  C   UNL     1       2.163   7.108  18.487  0.00  0.00    +0.000 C 
ATOM     14  C   UNL     1       2.972   4.605  18.878  0.00  0.00    +0.000 A 
BRANCH   9  16
ATOM     15  C   UNL     1       4.397   1.867  20.121  0.00  0.00    +0.000 C 
ATOM     16  N   UNL     1       3.036   2.303  19.849  0.00  0.00    +0.000 N 
ATOM     17  H   UNL     1       2.344   1.705  20.314  0.00  0.00    +0.000 HD
ENDBRANCH   9  16
ENDBRANCH   1  14
BRANCH   6  18
ATOM     18  O   UNL     1       8.010   4.561  16.890  0.00  0.00    +0.000 OA
ATOM     19  H   UNL     1       7.563   3.723  16.684  0.00  0.00    +0.000 HD
ENDBRANCH   6  18
TORSDOF 3
ENDMDL
MODEL 5
REMARK VINA RESULT:      -6.2      1.217      1.223
REMARK  Name = 
REMARK  6 active torsions:
REMARK  status: ('A' for Active; 'I' for Inactive)
REMARK    1  A    between atoms: C_1  and  N_2
REMARK    2  A    between atoms: N_2  and  C_3
REMARK    3  A    between atoms: C_6  and  C_7
REMARK    4  A    between atoms: C_8  and  C_9
REMARK    5  A    between atoms: C_14  and  C_15
REMARK    6  A    between atoms: C_14  and  O_16
REMARK                            x       y       z     vdW  Elec       q    Type
REMARK                         _______ _______ _______ _____ _____    ______ ____
ROOT
ATOM      1  C   UNL     1       3.496   4.834  18.295  0.00  0.00    +0.000 C 
ATOM      2  O   UNL     1       2.686   4.817  17.362  0.00  0.00    +0.000 OA
ATOM      3  N   UNL     1       4.723   5.470  18.116  0.00  0.00    +0.000 N 
ATOM      4  C   UNL     1       4.930   6.237  16.903  0.00  0.00    +0.000 C 
ATOM      5  C   UNL     1       6.228   6.976  17.168  0.00  0.00    +0.000 C 
ATOM      6  C   UNL     1       7.072   5.919  17.890  0.00  0.00    +0.000 C 
ATOM      7  C   UNL     1       8.100   6.551  18.822  0.00  0.00    +0.000 C 
ATOM      8  C   UNL     1       6.025   5.046  18.635  0.00  0.00    +0.000 C 
ENDROOT
BRANCH   1  14
ATOM      9  C   UNL     1       3.464   2.913  19.903  0.00  0.00    +0.000 A 
ATOM     10  S   UNL     1       2.847   2.549  21.468  0.00  0.00    +0.000 S 
ATOM     11  N   UNL     1       2.088   3.979  21.709  0.00  0.00    +0.000 NA
ATOM     12  C   UNL     1       2.266   4.762  20.646  0.00  0.00    +0.000 A 
ATOM     13  C   UNL     1       1.497   6.038  20.691  0.00  0.00    +0.000 C 
ATOM     14  C   UNL     1       3.130   4.245  19.600  0.00  0.00    +0.000 A 
BRANCH   9  16
ATOM     15  C   UNL     1       3.508   1.337  18.028  0.00  0.00    +0.000 C 
ATOM     16  N   UNL     1       4.166   2.020  19.132  0.00  0.00    +0.000 N 
ATOM     17  H   UNL     1       5.108   2.336  18.877  0.00  0.00    +0.000 HD
ENDBRANCH   9  16
ENDBRANCH   1  14
BRANCH   6  18
ATOM     18  O   UNL     1       7.753   5.122  16.917  0.00  0.00    +0.000 OA
ATOM     19  H   UNL     1       8.641   4.920  17.256  0.00  0.00    +0.000 HD
ENDBRANCH   6  18
TORSDOF 3
ENDMDL
MODEL 6
REMARK VINA RESULT:      -6.1      1.496      2.657
REMARK  Name = 
REMARK  6 active torsions:
REMARK  status: ('A' for Active; 'I' for Inactive)
REMARK    1  A    between atoms: C_1  and  N_2
REMARK    2  A    between atoms: N_2  and  C_3
REMARK    3  A    between atoms: C_6  and  C_7
REMARK    4  A    between atoms: C_8  and  C_9
REMARK    5  A    between atoms: C_14  and  C_15
REMARK    6  A    between atoms: C_14  and  O_16
REMARK                            x       y       z     vdW  Elec       q    Type
REMARK                         _______ _______ _______ _____ _____    ______ ____
ROOT
ATOM      1  C   UNL     1       3.654   3.889  17.884  0.00  0.00    +0.000 C 
ATOM      2  O   UNL     1       3.188   2.982  17.186  0.00  0.00    +0.000 OA
ATOM      3  N   UNL     1       4.871   4.465  17.525  0.00  0.00    +0.000 N 
ATOM      4  C   UNL     1       5.454   4.101  16.248  0.00  0.00    +0.000 C 
ATOM      5  C   UNL     1       6.594   5.088  16.085  0.00  0.00    +0.000 C 
ATOM      6  C   UNL     1       7.165   5.176  17.506  0.00  0.00    +0.000 C 
ATOM      7  C   UNL     1       7.835   6.521  17.767  0.00  0.00    +0.000 C 
ATOM      8  C   UNL     1       5.938   4.916  18.422  0.00  0.00    +0.000 C 
ENDROOT
BRANCH   1  14
ATOM      9  C   UNL     1       2.426   5.719  19.077  0.00  0.00    +0.000 A 
ATOM     10  S   UNL     1       1.630   5.973  20.581  0.00  0.00    +0.000 S 
ATOM     11  N   UNL     1       1.956   4.500  21.218  0.00  0.00    +0.000 NA
ATOM     12  C   UNL     1       2.659   3.783  20.343  0.00  0.00    +0.000 A 
ATOM     13  C   UNL     1       3.140   2.474  20.871  0.00  0.00    +0.000 C 
ATOM     14  C   UNL     1       2.890   4.392  19.045  0.00  0.00    +0.000 A 
BRANCH   9  16
ATOM     15  C   UNL     1       2.260   8.073  18.419  0.00  0.00    +0.000 C 
ATOM     16  N   UNL     1       2.547   6.682  18.105  0.00  0.00    +0.000 N 
ATOM     17  H   UNL     1       3.388   6.588  17.525  0.00  0.00    +0.000 HD
ENDBRANCH   9  16
ENDBRANCH   1  14
BRANCH   6  18
ATOM     18  O   UNL     1       8.127   4.133  17.688  0.00  0.00    +0.000 OA
ATOM     19  H   UNL     1       7.654   3.323  17.940  0.00  0.00    +0.000 HD
ENDBRANCH   6  18
TORSDOF 3
ENDMDL
MODEL 7
REMARK VINA RESULT:      -6.0      2.006      3.157
REMARK  Name = 
REMARK  6 active torsions:
REMARK  status: ('A' for Active; 'I' for Inactive)
REMARK    1  A    between atoms: C_1  and  N_2
REMARK    2  A    between atoms: N_2  and  C_3
REMARK    3  A    between atoms: C_6  and  C_7
REMARK    4  A    between atoms: C_8  and  C_9
REMARK    5  A    between atoms: C_14  and  C_15
REMARK    6  A    between atoms: C_14  and  O_16
REMARK                            x       y       z     vdW  Elec       q    Type
REMARK                         _______ _______ _______ _____ _____    ______ ____
ROOT
ATOM      1  C   UNL     1       3.189   5.048  18.006  0.00  0.00    +0.000 C 
ATOM      2  O   UNL     1       2.575   4.228  17.315  0.00  0.00    +0.000 OA
ATOM      3  N   UNL     1       4.526   5.314  17.715  0.00  0.00    +0.000 N 
ATOM      4  C   UNL     1       5.092   4.751  16.504  0.00  0.00    +0.000 C 
ATOM      5  C   UNL     1       6.435   5.446  16.385  0.00  0.00    +0.000 C 
ATOM      6  C   UNL     1       6.918   5.490  17.839  0.00  0.00    +0.000 C 
ATOM      7  C   UNL     1       7.859   6.664  18.091  0.00  0.00    +0.000 C 
ATOM      8  C   UNL     1       5.607   5.567  18.670  0.00  0.00    +0.000 C 
ENDROOT
BRANCH   1  14
ATOM      9  C   UNL     1       2.354   7.178  19.028  0.00  0.00    +0.000 A 
ATOM     10  S   UNL     1       1.536   7.693  20.452  0.00  0.00    +0.000 S 
ATOM     11  N   UNL     1       1.453   6.221  21.165  0.00  0.00    +0.000 NA
ATOM     12  C   UNL     1       2.024   5.312  20.376  0.00  0.00    +0.000 A 
ATOM     13  C   UNL     1       2.138   3.958  20.987  0.00  0.00    +0.000 C 
ATOM     14  C   UNL     1       2.487   5.779  19.081  0.00  0.00    +0.000 A 
BRANCH   9  16
ATOM     15  C   UNL     1       2.041   9.264  17.782  0.00  0.00    +0.000 C 
ATOM     16  N   UNL     1       2.771   8.031  18.037  0.00  0.00    +0.000 N 
ATOM     17  H   UNL     1       3.787   8.177  18.010  0.00  0.00    +0.000 HD
ENDBRANCH   9  16
ENDBRANCH   1  14
BRANCH   6  18
ATOM     18  O   UNL     1       7.603   4.271  18.140  0.00  0.00    +0.000 OA
ATOM     19  H   UNL     1       6.961   3.644  18.514  0.00  0.00    +0.000 HD
ENDBRANCH   6  18
TORSDOF 3
ENDMDL
MODEL 8
REMARK VINA RESULT:      -6.0      2.023      2.503
REMARK  Name = 
REMARK  6 active torsions:
REMARK  status: ('A' for Active; 'I' for Inactive)
REMARK    1  A    between atoms: C_1  and  N_2
REMARK    2  A    between atoms: N_2  and  C_3
REMARK    3  A    between atoms: C_6  and  C_7
REMARK    4  A    between atoms: C_8  and  C_9
REMARK    5  A    between atoms: C_14  and  C_15
REMARK    6  A    between atoms: C_14  and  O_16
REMARK                            x       y       z     vdW  Elec       q    Type
REMARK                         _______ _______ _______ _____ _____    ______ ____
ROOT
ATOM      1  C   UNL     1       3.015   5.533  18.110  0.00  0.00    +0.000 C 
ATOM      2  O   UNL     1       2.282   4.697  17.571  0.00  0.00    +0.000 OA
ATOM      3  N   UNL     1       4.358   5.595  17.743  0.00  0.00    +0.000 N 
ATOM      4  C   UNL     1       4.801   4.795  16.617  0.00  0.00    +0.000 C 
ATOM      5  C   UNL     1       6.206   5.303  16.353  0.00  0.00    +0.000 C 
ATOM      6  C   UNL     1       6.758   5.506  17.769  0.00  0.00    +0.000 C 
ATOM      7  C   UNL     1       7.835   6.586  17.809  0.00  0.00    +0.000 C 
ATOM      8  C   UNL     1       5.505   5.859  18.615  0.00  0.00    +0.000 C 
ENDROOT
BRANCH   1  14
ATOM      9  C   UNL     1       1.986   6.057  20.334  0.00  0.00    +0.000 A 
ATOM     10  S   UNL     1       1.355   7.418  21.176  0.00  0.00    +0.000 S 
ATOM     11  N   UNL     1       1.552   8.500  19.962  0.00  0.00    +0.000 NA
ATOM     12  C   UNL     1       2.087   7.889  18.905  0.00  0.00    +0.000 A 
ATOM     13  C   UNL     1       2.178   8.743  17.687  0.00  0.00    +0.000 C 
ATOM     14  C   UNL     1       2.449   6.494  19.080  0.00  0.00    +0.000 A 
BRANCH   9  16
ATOM     15  C   UNL     1       0.959   3.841  20.527  0.00  0.00    +0.000 C 
ATOM     16  N   UNL     1       2.017   4.786  20.852  0.00  0.00    +0.000 N 
ATOM     17  H   UNL     1       2.943   4.345  20.824  0.00  0.00    +0.000 HD
ENDBRANCH   9  16
ENDBRANCH   1  14
BRANCH   6  18
ATOM     18  O   UNL     1       7.317   4.274  18.233  0.00  0.00    +0.000 OA
ATOM     19  H   UNL     1       6.623   3.783  18.704  0.00  0.00    +0.000 HD
ENDBRANCH   6  18
TORSDOF 3
ENDMDL
MODEL 9
REMARK VINA RESULT:      -5.9      1.521      2.886
REMARK  Name = 
REMARK  6 active torsions:
REMARK  status: ('A' for Active; 'I' for Inactive)
REMARK    1  A    between atoms: C_1  and  N_2
REMARK    2  A    between atoms: N_2  and  C_3
REMARK    3  A    between atoms: C_6  and  C_7
REMARK    4  A    between atoms: C_8  and  C_9
REMARK    5  A    between atoms: C_14  and  C_15
REMARK    6  A    between atoms: C_14  and  O_16
REMARK                            x       y       z     vdW  Elec       q    Type
REMARK                         _______ _______ _______ _____ _____    ______ ____
ROOT
ATOM      1  C   UNL     1       2.906   5.501  18.107  0.00  0.00    +0.000 C 
ATOM      2  O   UNL     1       2.159   6.350  17.609  0.00  0.00    +0.000 OA
ATOM      3  N   UNL     1       4.276   5.575  17.861  0.00  0.00    +0.000 N 
ATOM      4  C   UNL     1       4.789   6.746  17.175  0.00  0.00    +0.000 C 
ATOM      5  C   UNL     1       6.293   6.607  17.316  0.00  0.00    +0.000 C 
ATOM      6  C   UNL     1       6.509   5.103  17.115  0.00  0.00    +0.000 C 
ATOM      7  C   UNL     1       7.759   4.607  17.836  0.00  0.00    +0.000 C 
ATOM      8  C   UNL     1       5.200   4.459  17.648  0.00  0.00    +0.000 C 
ENDROOT
BRANCH   1  14
ATOM      9  C   UNL     1       2.093   4.755  20.357  0.00  0.00    +0.000 A 
ATOM     10  S   UNL     1       1.509   3.321  21.108  0.00  0.00    +0.000 S 
ATOM     11  N   UNL     1       1.683   2.342  19.807  0.00  0.00    +0.000 NA
ATOM     12  C   UNL     1       2.176   3.042  18.787  0.00  0.00    +0.000 A 
ATOM     13  C   UNL     1       2.514   2.221  17.589  0.00  0.00    +0.000 C 
ATOM     14  C   UNL     1       2.352   4.466  19.006  0.00  0.00    +0.000 A 
BRANCH   9  16
ATOM     15  C   UNL     1       1.217   6.973  20.916  0.00  0.00    +0.000 C 
ATOM     16  N   UNL     1       2.248   5.951  21.013  0.00  0.00    +0.000 N 
ATOM     17  H   UNL     1       2.607   5.861  21.970  0.00  0.00    +0.000 HD
ENDBRANCH   9  16
ENDBRANCH   1  14
BRANCH   6  18
ATOM     18  O   UNL     1       6.640   4.833  15.716  0.00  0.00    +0.000 OA
ATOM     19  H   UNL     1       6.506   5.664  15.232  0.00  0.00    +0.000 HD
ENDBRANCH   6  18
TORSDOF 3
ENDMDL
