MODEL 1
REMARK VINA RESULT:      -7.3      0.000      0.000
REMARK  Name = 
REMARK  12 active torsions:
REMARK  status: ('A' for Active; 'I' for Inactive)
REMARK    1  A    between atoms: C_1  and  S_2
REMARK    2  A    between atoms: S_2  and  C_3
REMARK    3  A    between atoms: C_3  and  C_4
REMARK    4  A    between atoms: C_4  and  C_5
REMARK    5  A    between atoms: C_5  and  N_6
REMARK    6  A    between atoms: C_5  and  C_16
REMARK    7  A    between atoms: C_7  and  C_9
REMARK    8  A    between atoms: C_16  and  O_18
REMARK    9  A    between atoms: O_18  and  C_19
REMARK   10  A    between atoms: C_19  and  C_20
REMARK   11  A    between atoms: N_22  and  C_23
REMARK   12  A    between atoms: C_29  and  C_30
REMARK                            x       y       z     vdW  Elec       q    Type
REMARK                         _______ _______ _______ _____ _____    ______ ____
ROOT
ATOM      1  C   UNL     1       5.042   5.228  18.530  0.00  0.00    +0.000 C 
ENDROOT
BRANCH   1   2
ATOM      2  N   UNL     1       4.070   6.257  18.924  0.00  0.00    +0.000 N 
ATOM      3  C   UNL     1       3.465   7.103  18.022  0.00  0.00    +0.000 C 
ATOM      4  O   UNL     1       3.775   7.166  16.839  0.00  0.00    +0.000 OA
ATOM      5  H   UNL     1       3.835   6.306  19.905  0.00  0.00    +0.000 HD
BRANCH   3   6
ATOM      6  C   UNL     1       2.403   7.999  18.562  0.00  0.00    +0.000 A 
ATOM      7  C   UNL     1       2.026   7.847  19.904  0.00  0.00    +0.000 A 
ATOM      8  C   UNL     1       1.045   8.673  20.460  0.00  0.00    +0.000 A 
ATOM      9  C   UNL     1       0.449   9.660  19.679  0.00  0.00    +0.000 A 
ATOM     10 CL   UNL     1      -0.751  10.686  20.364  0.00  0.00    +0.000 Cl
ATOM     11  C   UNL     1       0.826   9.830  18.347  0.00  0.00    +0.000 A 
ATOM     12  C   UNL     1       1.807   9.004  17.788  0.00  0.00    +0.000 A 
ENDBRANCH   3   6
ENDBRANCH   1   2
BRANCH   1  13
ATOM     13  C   UNL     1       6.471   5.617  18.979  0.00  0.00    +0.000 C 
ATOM     14  O   UNL     1       7.060   5.151  19.949  0.00  0.00    +0.000 OA
BRANCH  13  15
ATOM     15  O   UNL     1       6.933   6.688  18.261  0.00  0.00    +0.000 OA
BRANCH  15  16
ATOM     16  C   UNL     1       8.232   7.144  18.668  0.00  0.00    +0.000 C 
BRANCH  16  17
ATOM     17  C   UNL     1       8.343   8.656  18.430  0.00  0.00    +0.000 C 
ATOM     18  O   UNL     1       7.638   9.202  17.585  0.00  0.00    +0.000 OA
ATOM     19  N   UNL     1       9.319   9.289  19.198  0.00  0.00    +0.000 N 
ATOM     20  H   UNL     1       9.957   8.700  19.714  0.00  0.00    +0.000 HD
BRANCH  19  21
ATOM     21  C   UNL     1       9.618  10.680  19.155  0.00  0.00    +0.000 A 
ATOM     22  C   UNL     1      10.120  11.282  17.988  0.00  0.00    +0.000 A 
ATOM     23  C   UNL     1      10.492  12.622  17.973  0.00  0.00    +0.000 A 
ATOM     24 CL   UNL     1      11.137  13.312  16.533  0.00  0.00    +0.000 Cl
ATOM     25  C   UNL     1      10.351  13.405  19.110  0.00  0.00    +0.000 A 
ATOM     26  C   UNL     1       9.801  12.843  20.261  0.00  0.00    +0.000 A 
ATOM     27  C   UNL     1       9.418  11.485  20.298  0.00  0.00    +0.000 A 
ATOM     28  C   UNL     1       8.816  10.963  21.575  0.00  0.00    +0.000 C 
ENDBRANCH  19  21
ENDBRANCH  16  17
ENDBRANCH  15  16
ENDBRANCH  13  15
ENDBRANCH   1  13
BRANCH   1  29
ATOM     29  C   UNL     1       4.642   3.802  18.942  0.00  0.00    +0.000 C 
BRANCH  29  30
ATOM     30  C   UNL     1       3.845   3.022  17.893  0.00  0.00    +0.000 C 
BRANCH  30  32
ATOM     31  C   UNL     1       1.890   3.441  19.794  0.00  0.00    +0.000 C 
ATOM     32  S   UNL     1       2.051   3.333  17.993  0.00  0.00    +0.000 S 
ENDBRANCH  30  32
ENDBRANCH  29  30
ENDBRANCH   1  29
TORSDOF 10
ENDMDL
MODEL 2
REMARK VINA RESULT:      -7.0      4.898      8.538
REMARK  Name = 
REMARK  12 active torsions:
REMARK  status: ('A' for Active; 'I' for Inactive)
REMARK    1  A    between atoms: C_1  and  S_2
REMARK    2  A    between atoms: S_2  and  C_3
REMARK    3  A    between atoms: C_3  and  C_4
REMARK    4  A    between atoms: C_4  and  C_5
REMARK    5  A    between atoms: C_5  and  N_6
REMARK    6  A    between atoms: C_5  and  C_16
REMARK    7  A    between atoms: C_7  and  C_9
REMARK    8  A    between atoms: C_16  and  O_18
REMARK    9  A    between atoms: O_18  and  C_19
REMARK   10  A    between atoms: C_19  and  C_20
REMARK   11  A    between atoms: N_22  and  C_23
REMARK   12  A    between atoms: C_29  and  C_30
REMARK                            x       y       z     vdW  Elec       q    Type
REMARK                         _______ _______ _______ _____ _____    ______ ____
ROOT
ATOM      1  C   UNL     1       3.014   5.498  19.554  0.00  0.00    +0.000 C 
ENDROOT
BRANCH   1   2
ATOM      2  N   UNL     1       3.729   5.385  18.276  0.00  0.00    +0.000 N 
ATOM      3  C   UNL     1       5.090   5.202  18.189  0.00  0.00    +0.000 C 
ATOM      4  O   UNL     1       5.842   5.248  19.155  0.00  0.00    +0.000 OA
ATOM      5  H   UNL     1       3.166   5.423  17.438  0.00  0.00    +0.000 HD
BRANCH   3   6
ATOM      6  C   UNL     1       5.644   4.971  16.824  0.00  0.00    +0.000 A 
ATOM      7  C   UNL     1       4.812   4.379  15.863  0.00  0.00    +0.000 A 
ATOM      8  C   UNL     1       5.281   4.156  14.565  0.00  0.00    +0.000 A 
ATOM      9  C   UNL     1       6.578   4.535  14.224  0.00  0.00    +0.000 A 
ATOM     10 CL   UNL     1       7.153   4.271  12.624  0.00  0.00    +0.000 Cl
ATOM     11  C   UNL     1       7.408   5.138  15.168  0.00  0.00    +0.000 A 
ATOM     12  C   UNL     1       6.942   5.362  16.468  0.00  0.00    +0.000 A 
ENDBRANCH   3   6
ENDBRANCH   1   2
BRANCH   1  13
ATOM     13  C   UNL     1       2.272   6.852  19.654  0.00  0.00    +0.000 C 
ATOM     14  O   UNL     1       2.454   7.815  18.915  0.00  0.00    +0.000 OA
BRANCH  13  15
ATOM     15  O   UNL     1       1.510   6.909  20.791  0.00  0.00    +0.000 OA
BRANCH  15  16
ATOM     16  C   UNL     1       1.581   8.167  21.478  0.00  0.00    +0.000 C 
BRANCH  16  17
ATOM     17  C   UNL     1       0.235   8.893  21.363  0.00  0.00    +0.000 C 
ATOM     18  O   UNL     1      -0.795   8.351  21.755  0.00  0.00    +0.000 OA
ATOM     19  N   UNL     1       0.305  10.142  20.746  0.00  0.00    +0.000 N 
ATOM     20  H   UNL     1       1.177  10.390  20.301  0.00  0.00    +0.000 HD
BRANCH  19  21
ATOM     21  C   UNL     1      -0.805  11.004  20.518  0.00  0.00    +0.000 A 
ATOM     22  C   UNL     1      -1.307  11.830  21.539  0.00  0.00    +0.000 A 
ATOM     23  C   UNL     1      -2.444  12.607  21.339  0.00  0.00    +0.000 A 
ATOM     24 CL   UNL     1      -3.049  13.578  22.627  0.00  0.00    +0.000 Cl
ATOM     25  C   UNL     1      -3.094  12.604  20.114  0.00  0.00    +0.000 A 
ATOM     26  C   UNL     1      -2.579  11.836  19.071  0.00  0.00    +0.000 A 
ATOM     27  C   UNL     1      -1.428  11.039  19.251  0.00  0.00    +0.000 A 
ATOM     28  C   UNL     1      -0.927  10.256  18.067  0.00  0.00    +0.000 C 
ENDBRANCH  19  21
ENDBRANCH  16  17
ENDBRANCH  15  16
ENDBRANCH  13  15
ENDBRANCH   1  13
BRANCH   1  29
ATOM     29  C   UNL     1       2.121   4.290  19.878  0.00  0.00    +0.000 C 
BRANCH  29  30
ATOM     30  C   UNL     1       2.720   3.287  20.869  0.00  0.00    +0.000 C 
BRANCH  30  32
ATOM     31  C   UNL     1       3.182   1.836  18.568  0.00  0.00    +0.000 C 
ATOM     32  S   UNL     1       4.018   2.245  20.122  0.00  0.00    +0.000 S 
ENDBRANCH  30  32
ENDBRANCH  29  30
ENDBRANCH   1  29
TORSDOF 10
ENDMDL
MODEL 3
REMARK VINA RESULT:      -7.0      4.882      8.104
REMARK  Name = 
REMARK  12 active torsions:
REMARK  status: ('A' for Active; 'I' for Inactive)
REMARK    1  A    between atoms: C_1  and  S_2
REMARK    2  A    between atoms: S_2  and  C_3
REMARK    3  A    between atoms: C_3  and  C_4
REMARK    4  A    between atoms: C_4  and  C_5
REMARK    5  A    between atoms: C_5  and  N_6
REMARK    6  A    between atoms: C_5  and  C_16
REMARK    7  A    between atoms: C_7  and  C_9
REMARK    8  A    between atoms: C_16  and  O_18
REMARK    9  A    between atoms: O_18  and  C_19
REMARK   10  A    between atoms: C_19  and  C_20
REMARK   11  A    between atoms: N_22  and  C_23
REMARK   12  A    between atoms: C_29  and  C_30
REMARK                            x       y       z     vdW  Elec       q    Type
REMARK                         _______ _______ _______ _____ _____    ______ ____
ROOT
ATOM      1  C   UNL     1       2.811   5.350  19.112  0.00  0.00    +0.000 C 
ENDROOT
BRANCH   1   2
ATOM      2  N   UNL     1       3.616   5.304  17.883  0.00  0.00    +0.000 N 
ATOM      3  C   UNL     1       4.966   5.035  17.879  0.00  0.00    +0.000 C 
ATOM      4  O   UNL     1       5.640   4.941  18.897  0.00  0.00    +0.000 OA
ATOM      5  H   UNL     1       3.124   5.456  17.014  0.00  0.00    +0.000 HD
BRANCH   3   6
ATOM      6  C   UNL     1       5.609   4.891  16.542  0.00  0.00    +0.000 A 
ATOM      7  C   UNL     1       4.857   4.328  15.501  0.00  0.00    +0.000 A 
ATOM      8  C   UNL     1       5.413   4.185  14.226  0.00  0.00    +0.000 A 
ATOM      9  C   UNL     1       6.716   4.617  13.988  0.00  0.00    +0.000 A 
ATOM     10 CL   UNL     1       7.397   4.452  12.416  0.00  0.00    +0.000 Cl
ATOM     11  C   UNL     1       7.468   5.192  15.012  0.00  0.00    +0.000 A 
ATOM     12  C   UNL     1       6.915   5.335  16.288  0.00  0.00    +0.000 A 
ENDBRANCH   3   6
ENDBRANCH   1   2
BRANCH   1  13
ATOM     13  C   UNL     1       2.507   6.812  19.518  0.00  0.00    +0.000 C 
ATOM     14  O   UNL     1       1.760   7.152  20.430  0.00  0.00    +0.000 OA
BRANCH  13  15
ATOM     15  O   UNL     1       3.037   7.691  18.611  0.00  0.00    +0.000 OA
BRANCH  15  16
ATOM     16  C   UNL     1       2.095   8.161  17.636  0.00  0.00    +0.000 C 
BRANCH  16  17
ATOM     17  C   UNL     1       1.477   9.483  18.112  0.00  0.00    +0.000 C 
ATOM     18  O   UNL     1       2.115  10.529  18.025  0.00  0.00    +0.000 OA
ATOM     19  N   UNL     1       0.207   9.355  18.672  0.00  0.00    +0.000 N 
ATOM     20  H   UNL     1      -0.127   8.420  18.856  0.00  0.00    +0.000 HD
BRANCH  19  21
ATOM     21  C   UNL     1      -0.569  10.430  19.189  0.00  0.00    +0.000 A 
ATOM     22  C   UNL     1      -0.258  11.025  20.424  0.00  0.00    +0.000 A 
ATOM     23  C   UNL     1      -1.068  12.017  20.969  0.00  0.00    +0.000 A 
ATOM     24 CL   UNL     1      -0.672  12.694  22.502  0.00  0.00    +0.000 Cl
ATOM     25  C   UNL     1      -2.192  12.461  20.288  0.00  0.00    +0.000 A 
ATOM     26  C   UNL     1      -2.486  11.926  19.035  0.00  0.00    +0.000 A 
ATOM     27  C   UNL     1      -1.680  10.918  18.464  0.00  0.00    +0.000 A 
ATOM     28  C   UNL     1      -2.058  10.409  17.100  0.00  0.00    +0.000 C 
ENDBRANCH  19  21
ENDBRANCH  16  17
ENDBRANCH  15  16
ENDBRANCH  13  15
ENDBRANCH   1  13
BRANCH   1  29
ATOM     29  C   UNL     1       1.561   4.457  19.072  0.00  0.00    +0.000 C 
BRANCH  29  30
ATOM     30  C   UNL     1       1.592   3.255  20.021  0.00  0.00    +0.000 C 
BRANCH  30  32
ATOM     31  C   UNL     1       3.475   1.703  18.736  0.00  0.00    +0.000 C 
ATOM     32  S   UNL     1       3.276   2.610  20.291  0.00  0.00    +0.000 S 
ENDBRANCH  30  32
ENDBRANCH  29  30
ENDBRANCH   1  29
TORSDOF 10
ENDMDL
MODEL 4
REMARK VINA RESULT:      -6.9      5.108      8.317
REMARK  Name = 
REMARK  12 active torsions:
REMARK  status: ('A' for Active; 'I' for Inactive)
REMARK    1  A    between atoms: C_1  and  S_2
REMARK    2  A    between atoms: S_2  and  C_3
REMARK    3  A    between atoms: C_3  and  C_4
REMARK    4  A    between atoms: C_4  and  C_5
REMARK    5  A    between atoms: C_5  and  N_6
REMARK    6  A    between atoms: C_5  and  C_16
REMARK    7  A    between atoms: C_7  and  C_9
REMARK    8  A    between atoms: C_16  and  O_18
REMARK    9  A    between atoms: O_18  and  C_19
REMARK   10  A    between atoms: C_19  and  C_20
REMARK   11  A    between atoms: N_22  and  C_23
REMARK   12  A    between atoms: C_29  and  C_30
REMARK                            x       y       z     vdW  Elec       q    Type
REMARK                         _______ _______ _______ _____ _____    ______ ____
ROOT
ATOM      1  C   UNL     1       4.067   5.914  18.054  0.00  0.00    +0.000 C 
ENDROOT
BRANCH   1   2
ATOM      2  N   UNL     1       4.499   5.362  16.763  0.00  0.00    +0.000 N 
ATOM      3  C   UNL     1       5.552   5.877  16.040  0.00  0.00    +0.000 C 
ATOM      4  O   UNL     1       6.134   6.912  16.337  0.00  0.00    +0.000 OA
ATOM      5  H   UNL     1       3.999   4.552  16.426  0.00  0.00    +0.000 HD
BRANCH   3   6
ATOM      6  C   UNL     1       5.950   5.121  14.819  0.00  0.00    +0.000 A 
ATOM      7  C   UNL     1       7.228   5.347  14.287  0.00  0.00    +0.000 A 
ATOM      8  C   UNL     1       7.652   4.652  13.151  0.00  0.00    +0.000 A 
ATOM      9  C   UNL     1       6.805   3.722  12.552  0.00  0.00    +0.000 A 
ATOM     10 CL   UNL     1       7.330   2.857  11.161  0.00  0.00    +0.000 Cl
ATOM     11  C   UNL     1       5.538   3.479  13.081  0.00  0.00    +0.000 A 
ATOM     12  C   UNL     1       5.111   4.173  14.218  0.00  0.00    +0.000 A 
ENDBRANCH   3   6
ENDBRANCH   1   2
BRANCH   1  13
ATOM     13  C   UNL     1       2.524   5.885  18.178  0.00  0.00    +0.000 C 
ATOM     14  O   UNL     1       1.795   5.007  17.729  0.00  0.00    +0.000 OA
BRANCH  13  15
ATOM     15  O   UNL     1       2.054   7.062  18.697  0.00  0.00    +0.000 OA
BRANCH  15  16
ATOM     16  C   UNL     1       2.712   8.229  18.184  0.00  0.00    +0.000 C 
BRANCH  16  17
ATOM     17  C   UNL     1       1.730   9.408  18.168  0.00  0.00    +0.000 C 
ATOM     18  O   UNL     1       1.981  10.412  17.506  0.00  0.00    +0.000 OA
ATOM     19  N   UNL     1       0.616   9.239  18.987  0.00  0.00    +0.000 N 
ATOM     20  H   UNL     1       0.621   8.453  19.622  0.00  0.00    +0.000 HD
BRANCH  19  21
ATOM     21  C   UNL     1      -0.432  10.190  19.148  0.00  0.00    +0.000 A 
ATOM     22  C   UNL     1      -1.436  10.339  18.175  0.00  0.00    +0.000 A 
ATOM     23  C   UNL     1      -2.409  11.326  18.293  0.00  0.00    +0.000 A 
ATOM     24 CL   UNL     1      -3.600  11.499  17.060  0.00  0.00    +0.000 Cl
ATOM     25  C   UNL     1      -2.425  12.172  19.391  0.00  0.00    +0.000 A 
ATOM     26  C   UNL     1      -1.474  12.004  20.396  0.00  0.00    +0.000 A 
ATOM     27  C   UNL     1      -0.477  11.010  20.297  0.00  0.00    +0.000 A 
ATOM     28  C   UNL     1       0.500  10.884  21.435  0.00  0.00    +0.000 C 
ENDBRANCH  19  21
ENDBRANCH  16  17
ENDBRANCH  15  16
ENDBRANCH  13  15
ENDBRANCH   1  13
BRANCH   1  29
ATOM     29  C   UNL     1       4.786   5.301  19.266  0.00  0.00    +0.000 C 
BRANCH  29  30
ATOM     30  C   UNL     1       5.158   3.823  19.121  0.00  0.00    +0.000 C 
BRANCH  30  32
ATOM     31  C   UNL     1       3.480   1.796  18.294  0.00  0.00    +0.000 C 
ATOM     32  S   UNL     1       3.892   2.704  19.806  0.00  0.00    +0.000 S 
ENDBRANCH  30  32
ENDBRANCH  29  30
ENDBRANCH   1  29
TORSDOF 10
ENDMDL
MODEL 5
REMARK VINA RESULT:      -6.9      4.818      7.322
REMARK  Name = 
REMARK  12 active torsions:
REMARK  status: ('A' for Active; 'I' for Inactive)
REMARK    1  A    between atoms: C_1  and  S_2
REMARK    2  A    between atoms: S_2  and  C_3
REMARK    3  A    between atoms: C_3  and  C_4
REMARK    4  A    between atoms: C_4  and  C_5
REMARK    5  A    between atoms: C_5  and  N_6
REMARK    6  A    between atoms: C_5  and  C_16
REMARK    7  A    between atoms: C_7  and  C_9
REMARK    8  A    between atoms: C_16  and  O_18
REMARK    9  A    between atoms: O_18  and  C_19
REMARK   10  A    between atoms: C_19  and  C_20
REMARK   11  A    between atoms: N_22  and  C_23
REMARK   12  A    between atoms: C_29  and  C_30
REMARK                            x       y       z     vdW  Elec       q    Type
REMARK                         _______ _______ _______ _____ _____    ______ ____
ROOT
ATOM      1  C   UNL     1       2.696   6.486  19.783  0.00  0.00    +0.000 C 
ENDROOT
BRANCH   1   2
ATOM      2  N   UNL     1       3.333   6.144  18.504  0.00  0.00    +0.000 N 
ATOM      3  C   UNL     1       4.605   5.625  18.413  0.00  0.00    +0.000 C 
ATOM      4  O   UNL     1       5.365   5.526  19.368  0.00  0.00    +0.000 OA
ATOM      5  H   UNL     1       2.779   6.282  17.671  0.00  0.00    +0.000 HD
BRANCH   3   6
ATOM      6  C   UNL     1       5.055   5.205  17.056  0.00  0.00    +0.000 A 
ATOM      7  C   UNL     1       5.290   3.842  16.828  0.00  0.00    +0.000 A 
ATOM      8  C   UNL     1       5.700   3.397  15.567  0.00  0.00    +0.000 A 
ATOM      9  C   UNL     1       5.862   4.313  14.530  0.00  0.00    +0.000 A 
ATOM     10 CL   UNL     1       6.355   3.767  12.975  0.00  0.00    +0.000 Cl
ATOM     11  C   UNL     1       5.617   5.669  14.742  0.00  0.00    +0.000 A 
ATOM     12  C   UNL     1       5.208   6.117  16.002  0.00  0.00    +0.000 A 
ENDBRANCH   3   6
ENDBRANCH   1   2
BRANCH   1  13
ATOM     13  C   UNL     1       1.957   7.842  19.685  0.00  0.00    +0.000 C 
ATOM     14  O   UNL     1       1.729   8.451  18.645  0.00  0.00    +0.000 OA
BRANCH  13  15
ATOM     15  O   UNL     1       1.743   8.372  20.930  0.00  0.00    +0.000 OA
BRANCH  15  16
ATOM     16  C   UNL     1       0.426   8.914  21.114  0.00  0.00    +0.000 C 
BRANCH  16  17
ATOM     17  C   UNL     1       0.491  10.446  21.081  0.00  0.00    +0.000 C 
ATOM     18  O   UNL     1       0.276  11.096  22.102  0.00  0.00    +0.000 OA
ATOM     19  N   UNL     1       0.750  10.984  19.822  0.00  0.00    +0.000 N 
ATOM     20  H   UNL     1       0.720  10.354  19.033  0.00  0.00    +0.000 HD
BRANCH  19  21
ATOM     21  C   UNL     1       0.853  12.374  19.533  0.00  0.00    +0.000 A 
ATOM     22  C   UNL     1       2.036  13.088  19.795  0.00  0.00    +0.000 A 
ATOM     23  C   UNL     1       2.106  14.462  19.592  0.00  0.00    +0.000 A 
ATOM     24 CL   UNL     1       3.562  15.305  19.960  0.00  0.00    +0.000 Cl
ATOM     25  C   UNL     1       1.012  15.158  19.098  0.00  0.00    +0.000 A 
ATOM     26  C   UNL     1      -0.151  14.461  18.777  0.00  0.00    +0.000 A 
ATOM     27  C   UNL     1      -0.245  13.067  18.976  0.00  0.00    +0.000 A 
ATOM     28  C   UNL     1      -1.531  12.390  18.585  0.00  0.00    +0.000 C 
ENDBRANCH  19  21
ENDBRANCH  16  17
ENDBRANCH  15  16
ENDBRANCH  13  15
ENDBRANCH   1  13
BRANCH   1  29
ATOM     29  C   UNL     1       1.828   5.361  20.368  0.00  0.00    +0.000 C 
BRANCH  29  30
ATOM     30  C   UNL     1       1.464   4.243  19.386  0.00  0.00    +0.000 C 
BRANCH  30  32
ATOM     31  C   UNL     1       2.278   2.922  21.666  0.00  0.00    +0.000 C 
ATOM     32  S   UNL     1       1.257   2.625  20.201  0.00  0.00    +0.000 S 
ENDBRANCH  30  32
ENDBRANCH  29  30
ENDBRANCH   1  29
TORSDOF 10
ENDMDL
MODEL 6
REMARK VINA RESULT:      -6.9      4.544      6.047
REMARK  Name = 
REMARK  12 active torsions:
REMARK  status: ('A' for Active; 'I' for Inactive)
REMARK    1  A    between atoms: C_1  and  S_2
REMARK    2  A    between atoms: S_2  and  C_3
REMARK    3  A    between atoms: C_3  and  C_4
REMARK    4  A    between atoms: C_4  and  C_5
REMARK    5  A    between atoms: C_5  and  N_6
REMARK    6  A    between atoms: C_5  and  C_16
REMARK    7  A    between atoms: C_7  and  C_9
REMARK    8  A    between atoms: C_16  and  O_18
REMARK    9  A    between atoms: O_18  and  C_19
REMARK   10  A    between atoms: C_19  and  C_20
REMARK   11  A    between atoms: N_22  and  C_23
REMARK   12  A    between atoms: C_29  and  C_30
REMARK                            x       y       z     vdW  Elec       q    Type
REMARK                         _______ _______ _______ _____ _____    ______ ____
ROOT
ATOM      1  C   UNL     1       3.617   5.113  18.347  0.00  0.00    +0.000 C 
ENDROOT
BRANCH   1   2
ATOM      2  N   UNL     1       2.960   6.176  19.119  0.00  0.00    +0.000 N 
ATOM      3  C   UNL     1       2.549   7.366  18.560  0.00  0.00    +0.000 C 
ATOM      4  O   UNL     1       2.808   7.699  17.411  0.00  0.00    +0.000 OA
ATOM      5  H   UNL     1       2.792   5.989  20.096  0.00  0.00    +0.000 HD
BRANCH   3   6
ATOM      6  C   UNL     1       1.778   8.284  19.446  0.00  0.00    +0.000 A 
ATOM      7  C   UNL     1       1.528   7.877  20.765  0.00  0.00    +0.000 A 
ATOM      8  C   UNL     1       0.821   8.710  21.638  0.00  0.00    +0.000 A 
ATOM      9  C   UNL     1       0.376   9.954  21.197  0.00  0.00    +0.000 A 
ATOM     10 CL   UNL     1      -0.484  10.985  22.274  0.00  0.00    +0.000 Cl
ATOM     11  C   UNL     1       0.631  10.375  19.893  0.00  0.00    +0.000 A 
ATOM     12  C   UNL     1       1.337   9.543  19.017  0.00  0.00    +0.000 A 
ENDBRANCH   3   6
ENDBRANCH   1   2
BRANCH   1  13
ATOM     13  C   UNL     1       5.110   4.992  18.734  0.00  0.00    +0.000 C 
ATOM     14  O   UNL     1       5.606   4.060  19.359  0.00  0.00    +0.000 OA
BRANCH  13  15
ATOM     15  O   UNL     1       5.784   6.149  18.448  0.00  0.00    +0.000 OA
BRANCH  15  16
ATOM     16  C   UNL     1       6.944   5.958  17.624  0.00  0.00    +0.000 C 
BRANCH  16  17
ATOM     17  C   UNL     1       6.525   5.907  16.149  0.00  0.00    +0.000 C 
ATOM     18  O   UNL     1       5.670   6.679  15.723  0.00  0.00    +0.000 OA
ATOM     19  N   UNL     1       7.151   4.906  15.408  0.00  0.00    +0.000 N 
ATOM     20  H   UNL     1       7.691   4.221  15.917  0.00  0.00    +0.000 HD
BRANCH  19  21
ATOM     21  C   UNL     1       6.927   4.653  14.025  0.00  0.00    +0.000 A 
ATOM     22  C   UNL     1       5.786   3.959  13.587  0.00  0.00    +0.000 A 
ATOM     23  C   UNL     1       5.612   3.637  12.244  0.00  0.00    +0.000 A 
ATOM     24 CL   UNL     1       4.218   2.754  11.753  0.00  0.00    +0.000 Cl
ATOM     25  C   UNL     1       6.554   4.020  11.300  0.00  0.00    +0.000 A 
ATOM     26  C   UNL     1       7.664   4.759  11.705  0.00  0.00    +0.000 A 
ATOM     27  C   UNL     1       7.861   5.095  13.062  0.00  0.00    +0.000 A 
ATOM     28  C   UNL     1       9.077   5.911  13.410  0.00  0.00    +0.000 C 
ENDBRANCH  19  21
ENDBRANCH  16  17
ENDBRANCH  15  16
ENDBRANCH  13  15
ENDBRANCH   1  13
BRANCH   1  29
ATOM     29  C   UNL     1       2.870   3.770  18.375  0.00  0.00    +0.000 C 
BRANCH  29  30
ATOM     30  C   UNL     1       1.389   3.858  18.754  0.00  0.00    +0.000 C 
BRANCH  30  32
ATOM     31  C   UNL     1       2.636   2.712  20.931  0.00  0.00    +0.000 C 
ATOM     32  S   UNL     1       1.097   3.577  20.533  0.00  0.00    +0.000 S 
ENDBRANCH  30  32
ENDBRANCH  29  30
ENDBRANCH   1  29
TORSDOF 10
ENDMDL
MODEL 7
REMARK VINA RESULT:      -6.8      6.162      9.082
REMARK  Name = 
REMARK  12 active torsions:
REMARK  status: ('A' for Active; 'I' for Inactive)
REMARK    1  A    between atoms: C_1  and  S_2
REMARK    2  A    between atoms: S_2  and  C_3
REMARK    3  A    between atoms: C_3  and  C_4
REMARK    4  A    between atoms: C_4  and  C_5
REMARK    5  A    between atoms: C_5  and  N_6
REMARK    6  A    between atoms: C_5  and  C_16
REMARK    7  A    between atoms: C_7  and  C_9
REMARK    8  A    between atoms: C_16  and  O_18
REMARK    9  A    between atoms: O_18  and  C_19
REMARK   10  A    between atoms: C_19  and  C_20
REMARK   11  A    between atoms: N_22  and  C_23
REMARK   12  A    between atoms: C_29  and  C_30
REMARK                            x       y       z     vdW  Elec       q    Type
REMARK                         _______ _______ _______ _____ _____    ______ ____
ROOT
ATOM      1  C   UNL     1      -0.106  11.255  20.743  0.00  0.00    +0.000 C 
ENDROOT
BRANCH   1   2
ATOM      2  N   UNL     1      -1.445  11.452  21.315  0.00  0.00    +0.000 N 
ATOM      3  C   UNL     1      -1.688  12.277  22.389  0.00  0.00    +0.000 C 
ATOM      4  O   UNL     1      -0.804  12.814  23.045  0.00  0.00    +0.000 OA
ATOM      5  H   UNL     1      -2.206  10.967  20.862  0.00  0.00    +0.000 HD
BRANCH   3   6
ATOM      6  C   UNL     1      -3.118  12.475  22.764  0.00  0.00    +0.000 A 
ATOM      7  C   UNL     1      -3.469  12.372  24.117  0.00  0.00    +0.000 A 
ATOM      8  C   UNL     1      -4.795  12.563  24.519  0.00  0.00    +0.000 A 
ATOM      9  C   UNL     1      -5.767  12.870  23.570  0.00  0.00    +0.000 A 
ATOM     10 CL   UNL     1      -7.397  13.117  24.063  0.00  0.00    +0.000 Cl
ATOM     11  C   UNL     1      -5.426  12.990  22.223  0.00  0.00    +0.000 A 
ATOM     12  C   UNL     1      -4.101  12.798  21.818  0.00  0.00    +0.000 A 
ENDBRANCH   3   6
ENDBRANCH   1   2
BRANCH   1  13
ATOM     13  C   UNL     1       0.634  10.098  21.457  0.00  0.00    +0.000 C 
ATOM     14  O   UNL     1       0.997  10.107  22.629  0.00  0.00    +0.000 OA
BRANCH  13  15
ATOM     15  O   UNL     1       0.997   9.125  20.564  0.00  0.00    +0.000 OA
BRANCH  15  16
ATOM     16  C   UNL     1       1.557   7.953  21.175  0.00  0.00    +0.000 C 
BRANCH  16  17
ATOM     17  C   UNL     1       2.066   6.999  20.086  0.00  0.00    +0.000 C 
ATOM     18  O   UNL     1       2.371   7.433  18.978  0.00  0.00    +0.000 OA
ATOM     19  N   UNL     1       2.087   5.657  20.462  0.00  0.00    +0.000 N 
ATOM     20  H   UNL     1       1.635   5.411  21.331  0.00  0.00    +0.000 HD
BRANCH  19  21
ATOM     21  C   UNL     1       2.512   4.582  19.630  0.00  0.00    +0.000 A 
ATOM     22  C   UNL     1       3.334   4.807  18.513  0.00  0.00    +0.000 A 
ATOM     23  C   UNL     1       3.677   3.768  17.653  0.00  0.00    +0.000 A 
ATOM     24 CL   UNL     1       4.657   4.093  16.274  0.00  0.00    +0.000 Cl
ATOM     25  C   UNL     1       3.234   2.477  17.896  0.00  0.00    +0.000 A 
ATOM     26  C   UNL     1       2.465   2.222  19.030  0.00  0.00    +0.000 A 
ATOM     27  C   UNL     1       2.104   3.260  19.915  0.00  0.00    +0.000 A 
ATOM     28  C   UNL     1       1.288   2.895  21.126  0.00  0.00    +0.000 C 
ENDBRANCH  19  21
ENDBRANCH  16  17
ENDBRANCH  15  16
ENDBRANCH  13  15
ENDBRANCH   1  13
BRANCH   1  29
ATOM     29  C   UNL     1      -0.094  11.131  19.211  0.00  0.00    +0.000 C 
BRANCH  29  30
ATOM     30  C   UNL     1      -1.368  11.612  18.511  0.00  0.00    +0.000 C 
BRANCH  30  32
ATOM     31  C   UNL     1      -3.941  10.885  17.835  0.00  0.00    +0.000 C 
ATOM     32  S   UNL     1      -2.249  10.271  17.645  0.00  0.00    +0.000 S 
ENDBRANCH  30  32
ENDBRANCH  29  30
ENDBRANCH   1  29
TORSDOF 10
ENDMDL
MODEL 8
REMARK VINA RESULT:      -6.8      6.805      9.611
REMARK  Name = 
REMARK  12 active torsions:
REMARK  status: ('A' for Active; 'I' for Inactive)
REMARK    1  A    between atoms: C_1  and  S_2
REMARK    2  A    between atoms: S_2  and  C_3
REMARK    3  A    between atoms: C_3  and  C_4
REMARK    4  A    between atoms: C_4  and  C_5
REMARK    5  A    between atoms: C_5  and  N_6
REMARK    6  A    between atoms: C_5  and  C_16
REMARK    7  A    between atoms: C_7  and  C_9
REMARK    8  A    between atoms: C_16  and  O_18
REMARK    9  A    between atoms: O_18  and  C_19
REMARK   10  A    between atoms: C_19  and  C_20
REMARK   11  A    between atoms: N_22  and  C_23
REMARK   12  A    between atoms: C_29  and  C_30
REMARK                            x       y       z     vdW  Elec       q    Type
REMARK                         _______ _______ _______ _____ _____    ______ ____
ROOT
ATOM      1  C   UNL     1      -1.135  12.102  21.393  0.00  0.00    +0.000 C 
ENDROOT
BRANCH   1   2
ATOM      2  N   UNL     1      -1.586  11.629  20.077  0.00  0.00    +0.000 N 
ATOM      3  C   UNL     1      -2.835  11.902  19.568  0.00  0.00    +0.000 C 
ATOM      4  O   UNL     1      -3.725  12.445  20.211  0.00  0.00    +0.000 OA
ATOM      5  H   UNL     1      -0.919  11.102  19.532  0.00  0.00    +0.000 HD
BRANCH   3   6
ATOM      6  C   UNL     1      -3.090  11.466  18.165  0.00  0.00    +0.000 A 
ATOM      7  C   UNL     1      -2.098  10.721  17.512  0.00  0.00    +0.000 A 
ATOM      8  C   UNL     1      -2.298  10.278  16.201  0.00  0.00    +0.000 A 
ATOM      9  C   UNL     1      -3.493  10.568  15.547  0.00  0.00    +0.000 A 
ATOM     10 CL   UNL     1      -3.744  10.013  13.938  0.00  0.00    +0.000 Cl
ATOM     11  C   UNL     1      -4.492  11.295  16.192  0.00  0.00    +0.000 A 
ATOM     12  C   UNL     1      -4.295  11.741  17.504  0.00  0.00    +0.000 A 
ENDBRANCH   3   6
ENDBRANCH   1   2
BRANCH   1  13
ATOM     13  C   UNL     1       0.278  11.563  21.719  0.00  0.00    +0.000 C 
ATOM     14  O   UNL     1       1.321  11.955  21.204  0.00  0.00    +0.000 OA
BRANCH  13  15
ATOM     15  O   UNL     1       0.206  10.460  22.528  0.00  0.00    +0.000 OA
BRANCH  15  16
ATOM     16  C   UNL     1       1.329   9.575  22.407  0.00  0.00    +0.000 C 
BRANCH  16  17
ATOM     17  C   UNL     1       0.960   8.398  21.494  0.00  0.00    +0.000 C 
ATOM     18  O   UNL     1      -0.218   8.100  21.316  0.00  0.00    +0.000 OA
ATOM     19  N   UNL     1       2.054   7.712  20.969  0.00  0.00    +0.000 N 
ATOM     20  H   UNL     1       2.966   7.939  21.341  0.00  0.00    +0.000 HD
BRANCH  19  21
ATOM     21  C   UNL     1       1.973   6.585  20.103  0.00  0.00    +0.000 A 
ATOM     22  C   UNL     1       1.587   5.323  20.585  0.00  0.00    +0.000 A 
ATOM     23  C   UNL     1       1.592   4.205  19.756  0.00  0.00    +0.000 A 
ATOM     24 CL   UNL     1       1.146   2.669  20.394  0.00  0.00    +0.000 Cl
ATOM     25  C   UNL     1       1.954   4.319  18.422  0.00  0.00    +0.000 A 
ATOM     26  C   UNL     1       2.285   5.572  17.910  0.00  0.00    +0.000 A 
ATOM     27  C   UNL     1       2.289   6.719  18.732  0.00  0.00    +0.000 A 
ATOM     28  C   UNL     1       2.640   8.036  18.094  0.00  0.00    +0.000 C 
ENDBRANCH  19  21
ENDBRANCH  16  17
ENDBRANCH  15  16
ENDBRANCH  13  15
ENDBRANCH   1  13
BRANCH   1  29
ATOM     29  C   UNL     1      -1.267  13.621  21.588  0.00  0.00    +0.000 C 
BRANCH  29  30
ATOM     30  C   UNL     1      -1.233  14.094  23.044  0.00  0.00    +0.000 C 
BRANCH  30  32
ATOM     31  C   UNL     1      -3.006  15.458  24.658  0.00  0.00    +0.000 C 
ATOM     32  S   UNL     1      -1.904  15.776  23.257  0.00  0.00    +0.000 S 
ENDBRANCH  30  32
ENDBRANCH  29  30
ENDBRANCH   1  29
TORSDOF 10
ENDMDL
MODEL 9
REMARK VINA RESULT:      -6.8      4.893      8.095
REMARK  Name = 
REMARK  12 active torsions:
REMARK  status: ('A' for Active; 'I' for Inactive)
REMARK    1  A    between atoms: C_1  and  S_2
REMARK    2  A    between atoms: S_2  and  C_3
REMARK    3  A    between atoms: C_3  and  C_4
REMARK    4  A    between atoms: C_4  and  C_5
REMARK    5  A    between atoms: C_5  and  N_6
REMARK    6  A    between atoms: C_5  and  C_16
REMARK    7  A    between atoms: C_7  and  C_9
REMARK    8  A    between atoms: C_16  and  O_18
REMARK    9  A    between atoms: O_18  and  C_19
REMARK   10  A    between atoms: C_19  and  C_20
REMARK   11  A    between atoms: N_22  and  C_23
REMARK   12  A    between atoms: C_29  and  C_30
REMARK                            x       y       z     vdW  Elec       q    Type
REMARK                         _______ _______ _______ _____ _____    ______ ____
ROOT
ATOM      1  C   UNL     1       3.599   5.881  19.374  0.00  0.00    +0.000 C 
ENDROOT
BRANCH   1   2
ATOM      2  N   UNL     1       4.138   5.655  18.026  0.00  0.00    +0.000 N 
ATOM      3  C   UNL     1       5.431   5.242  17.794  0.00  0.00    +0.000 C 
ATOM      4  O   UNL     1       6.281   5.154  18.671  0.00  0.00    +0.000 OA
ATOM      5  H   UNL     1       3.502   5.793  17.255  0.00  0.00    +0.000 HD
BRANCH   3   6
ATOM      6  C   UNL     1       5.783   4.928  16.380  0.00  0.00    +0.000 A 
ATOM      7  C   UNL     1       7.069   5.257  15.929  0.00  0.00    +0.000 A 
ATOM      8  C   UNL     1       7.451   4.969  14.615  0.00  0.00    +0.000 A 
ATOM      9  C   UNL     1       6.552   4.341  13.756  0.00  0.00    +0.000 A 
ATOM     10 CL   UNL     1       7.024   3.975  12.142  0.00  0.00    +0.000 Cl
ATOM     11  C   UNL     1       5.276   3.996  14.198  0.00  0.00    +0.000 A 
ATOM     12  C   UNL     1       4.891   4.284  15.512  0.00  0.00    +0.000 A 
ENDBRANCH   3   6
ENDBRANCH   1   2
BRANCH   1  13
ATOM     13  C   UNL     1       2.568   7.036  19.369  0.00  0.00    +0.000 C 
ATOM     14  O   UNL     1       1.980   7.464  20.358  0.00  0.00    +0.000 OA
BRANCH  13  15
ATOM     15  O   UNL     1       2.254   7.405  18.088  0.00  0.00    +0.000 OA
BRANCH  15  16
ATOM     16  C   UNL     1       2.826   8.659  17.687  0.00  0.00    +0.000 C 
BRANCH  16  17
ATOM     17  C   UNL     1       1.830   9.792  17.967  0.00  0.00    +0.000 C 
ATOM     18  O   UNL     1       2.185  10.964  17.873  0.00  0.00    +0.000 OA
ATOM     19  N   UNL     1       0.568   9.361  18.372  0.00  0.00    +0.000 N 
ATOM     20  H   UNL     1       0.461   8.380  18.592  0.00  0.00    +0.000 HD
BRANCH  19  21
ATOM     21  C   UNL     1      -0.524  10.216  18.694  0.00  0.00    +0.000 A 
ATOM     22  C   UNL     1      -1.584  10.415  17.793  0.00  0.00    +0.000 A 
ATOM     23  C   UNL     1      -2.605  11.317  18.074  0.00  0.00    +0.000 A 
ATOM     24 CL   UNL     1      -3.867  11.560  16.926  0.00  0.00    +0.000 Cl
ATOM     25  C   UNL     1      -2.613  12.024  19.267  0.00  0.00    +0.000 A 
ATOM     26  C   UNL     1      -1.603  11.798  20.200  0.00  0.00    +0.000 A 
ATOM     27  C   UNL     1      -0.556  10.889  19.936  0.00  0.00    +0.000 A 
ATOM     28  C   UNL     1       0.485  10.692  21.005  0.00  0.00    +0.000 C 
ENDBRANCH  19  21
ENDBRANCH  16  17
ENDBRANCH  15  16
ENDBRANCH  13  15
ENDBRANCH   1  13
BRANCH   1  29
ATOM     29  C   UNL     1       3.082   4.607  20.061  0.00  0.00    +0.000 C 
BRANCH  29  30
ATOM     30  C   UNL     1       1.636   4.230  19.726  0.00  0.00    +0.000 C 
BRANCH  30  32
ATOM     31  C   UNL     1       1.417   2.447  21.818  0.00  0.00    +0.000 C 
ATOM     32  S   UNL     1       1.280   2.464  20.013  0.00  0.00    +0.000 S 
ENDBRANCH  30  32
ENDBRANCH  29  30
ENDBRANCH   1  29
TORSDOF 10
ENDMDL
