MODEL 1
REMARK VINA RESULT:      -7.4      0.000      0.000
REMARK  Name = 
REMARK  6 active torsions:
REMARK  status: ('A' for Active; 'I' for Inactive)
REMARK    1  A    between atoms: C_2  and  C_3
REMARK    2  A    between atoms: C_3  and  C_4
REMARK    3  A    between atoms: C_4  and  N_5
REMARK    4  A    between atoms: N_12  and  C_13
REMARK    5  A    between atoms: C_16  and  C_17
REMARK    6  A    between atoms: C_17  and  N_18
REMARK                            x       y       z     vdW  Elec       q    Type
REMARK                         _______ _______ _______ _____ _____    ______ ____
ROOT
ATOM      1  O   UNL     1       0.689   4.100  20.045  0.00  0.00    +0.000 OA
ATOM      2  C   UNL     1       1.702   4.243  20.725  0.00  0.00    +0.000 C 
ATOM      3  N   UNL     1       2.509   5.373  20.743  0.00  0.00    +0.000 N 
ATOM      4  H   UNL     1       3.405   5.294  21.204  0.00  0.00    +0.000 HD
ENDROOT
BRANCH   3   5
ATOM      5  C   UNL     1       2.223   6.611  20.123  0.00  0.00    +0.000 A 
ATOM      6  C   UNL     1       2.582   6.910  18.808  0.00  0.00    +0.000 A 
ATOM      7  C   UNL     1       2.233   8.133  18.225  0.00  0.00    +0.000 A 
ATOM      8  C   UNL     1       1.518   9.093  18.949  0.00  0.00    +0.000 A 
ATOM      9  C   UNL     1       1.159   8.798  20.272  0.00  0.00    +0.000 A 
ATOM     10  C   UNL     1       1.507   7.568  20.852  0.00  0.00    +0.000 A 
BRANCH   8  11
ATOM     11  C   UNL     1       1.145  10.410  18.313  0.00  0.00    +0.000 C 
BRANCH  11  12
ATOM     12  N   UNL     1      -0.238  10.774  18.562  0.00  0.00    +0.000 N 
ATOM     13  C   UNL     1      -1.347  10.289  17.936  0.00  0.00    +0.000 A 
ATOM     14  N   UNL     1      -2.403  10.965  18.323  0.00  0.00    +0.000 NA
ATOM     15  C   UNL     1      -1.880  11.876  19.196  0.00  0.00    +0.000 A 
ATOM     16  N   UNL     1      -0.557  11.807  19.369  0.00  0.00    +0.000 NA
ENDBRANCH  11  12
ENDBRANCH   8  11
ENDBRANCH   3   5
BRANCH   2  17
ATOM     17  C   UNL     1       2.190   3.156  21.662  0.00  0.00    +0.000 C 
BRANCH  17  18
ATOM     18  C   UNL     1       3.475   2.526  21.124  0.00  0.00    +0.000 C 
BRANCH  18  19
ATOM     19  N   UNL     1       3.329   2.217  19.707  0.00  0.00    +0.000 N 
ATOM     20  C   UNL     1       4.027   3.082  18.869  0.00  0.00    +0.000 A 
ATOM     21  N   UNL     1       5.178   3.643  19.270  0.00  0.00    +0.000 NA
ATOM     22  C   UNL     1       5.791   4.475  18.410  0.00  0.00    +0.000 A 
ATOM     23  C   UNL     1       5.302   4.766  17.162  0.00  0.00    +0.000 A 
ATOM     24  C   UNL     1       4.122   4.145  16.842  0.00  0.00    +0.000 A 
ATOM     25  N   UNL     1       3.466   3.311  17.674  0.00  0.00    +0.000 NA
ATOM     26  H   UNL     1       2.380   2.220  19.348  0.00  0.00    +0.000 HD
ENDBRANCH  18  19
ENDBRANCH  17  18
ENDBRANCH   2  17
TORSDOF 6
ENDMDL
MODEL 2
REMARK VINA RESULT:      -7.2      1.700      3.272
REMARK  Name = 
REMARK  6 active torsions:
REMARK  status: ('A' for Active; 'I' for Inactive)
REMARK    1  A    between atoms: C_2  and  C_3
REMARK    2  A    between atoms: C_3  and  C_4
REMARK    3  A    between atoms: C_4  and  N_5
REMARK    4  A    between atoms: N_12  and  C_13
REMARK    5  A    between atoms: C_16  and  C_17
REMARK    6  A    between atoms: C_17  and  N_18
REMARK                            x       y       z     vdW  Elec       q    Type
REMARK                         _______ _______ _______ _____ _____    ______ ____
ROOT
ATOM      1  O   UNL     1       5.295   6.964  17.086  0.00  0.00    +0.000 OA
ATOM      2  C   UNL     1       4.630   5.992  17.430  0.00  0.00    +0.000 C 
ATOM      3  N   UNL     1       3.461   6.036  18.178  0.00  0.00    +0.000 N 
ATOM      4  H   UNL     1       3.113   5.161  18.546  0.00  0.00    +0.000 HD
ENDROOT
BRANCH   3   5
ATOM      5  C   UNL     1       2.741   7.201  18.529  0.00  0.00    +0.000 A 
ATOM      6  C   UNL     1       2.555   8.278  17.661  0.00  0.00    +0.000 A 
ATOM      7  C   UNL     1       1.792   9.388  18.040  0.00  0.00    +0.000 A 
ATOM      8  C   UNL     1       1.200   9.450  19.306  0.00  0.00    +0.000 A 
ATOM      9  C   UNL     1       1.388   8.373  20.183  0.00  0.00    +0.000 A 
ATOM     10  C   UNL     1       2.150   7.259  19.797  0.00  0.00    +0.000 A 
BRANCH   8  11
ATOM     11  C   UNL     1       0.379  10.651  19.708  0.00  0.00    +0.000 C 
BRANCH  11  12
ATOM     12  N   UNL     1      -0.775  10.846  18.849  0.00  0.00    +0.000 N 
ATOM     13  C   UNL     1      -1.291  12.029  18.413  0.00  0.00    +0.000 A 
ATOM     14  N   UNL     1      -2.422  11.811  17.783  0.00  0.00    +0.000 NA
ATOM     15  C   UNL     1      -2.563  10.455  17.868  0.00  0.00    +0.000 A 
ATOM     16  N   UNL     1      -1.586   9.818  18.521  0.00  0.00    +0.000 NA
ENDBRANCH  11  12
ENDBRANCH   8  11
ENDBRANCH   3   5
BRANCH   2  17
ATOM     17  C   UNL     1       5.030   4.580  17.048  0.00  0.00    +0.000 C 
BRANCH  17  18
ATOM     18  C   UNL     1       3.818   3.649  17.100  0.00  0.00    +0.000 C 
BRANCH  18  19
ATOM     19  N   UNL     1       3.969   2.686  18.184  0.00  0.00    +0.000 N 
ATOM     20  C   UNL     1       3.047   2.852  19.215  0.00  0.00    +0.000 A 
ATOM     21  N   UNL     1       1.815   3.319  18.961  0.00  0.00    +0.000 NA
ATOM     22  C   UNL     1       0.982   3.461  20.008  0.00  0.00    +0.000 A 
ATOM     23  C   UNL     1       1.330   3.151  21.297  0.00  0.00    +0.000 A 
ATOM     24  C   UNL     1       2.608   2.680  21.457  0.00  0.00    +0.000 A 
ATOM     25  N   UNL     1       3.482   2.530  20.440  0.00  0.00    +0.000 NA
ATOM     26  H   UNL     1       4.872   2.677  18.647  0.00  0.00    +0.000 HD
ENDBRANCH  18  19
ENDBRANCH  17  18
ENDBRANCH   2  17
TORSDOF 6
ENDMDL
MODEL 3
REMARK VINA RESULT:      -7.2      1.272      1.916
REMARK  Name = 
REMARK  6 active torsions:
REMARK  status: ('A' for Active; 'I' for Inactive)
REMARK    1  A    between atoms: C_2  and  C_3
REMARK    2  A    between atoms: C_3  and  C_4
REMARK    3  A    between atoms: C_4  and  N_5
REMARK    4  A    between atoms: N_12  and  C_13
REMARK    5  A    between atoms: C_16  and  C_17
REMARK    6  A    between atoms: C_17  and  N_18
REMARK                            x       y       z     vdW  Elec       q    Type
REMARK                         _______ _______ _______ _____ _____    ______ ____
ROOT
ATOM      1  O   UNL     1       1.734   4.767  18.502  0.00  0.00    +0.000 OA
ATOM      2  C   UNL     1       2.348   4.920  19.554  0.00  0.00    +0.000 C 
ATOM      3  N   UNL     1       2.631   6.140  20.154  0.00  0.00    +0.000 N 
ATOM      4  H   UNL     1       3.295   6.139  20.916  0.00  0.00    +0.000 HD
ENDROOT
BRANCH   3   5
ATOM      5  C   UNL     1       2.124   7.400  19.759  0.00  0.00    +0.000 A 
ATOM      6  C   UNL     1       2.337   7.949  18.494  0.00  0.00    +0.000 A 
ATOM      7  C   UNL     1       1.773   9.178  18.136  0.00  0.00    +0.000 A 
ATOM      8  C   UNL     1       0.984   9.894  19.043  0.00  0.00    +0.000 A 
ATOM      9  C   UNL     1       0.772   9.348  20.316  0.00  0.00    +0.000 A 
ATOM     10  C   UNL     1       1.336   8.112  20.670  0.00  0.00    +0.000 A 
BRANCH   8  11
ATOM     11  C   UNL     1       0.380  11.219  18.650  0.00  0.00    +0.000 C 
BRANCH  11  12
ATOM     12  N   UNL     1      -1.028  11.109  18.314  0.00  0.00    +0.000 N 
ATOM     13  C   UNL     1      -2.065  11.813  18.849  0.00  0.00    +0.000 A 
ATOM     14  N   UNL     1      -3.202  11.330  18.406  0.00  0.00    +0.000 NA
ATOM     15  C   UNL     1      -2.804  10.306  17.595  0.00  0.00    +0.000 A 
ATOM     16  N   UNL     1      -1.482  10.122  17.513  0.00  0.00    +0.000 NA
ENDBRANCH  11  12
ENDBRANCH   8  11
ENDBRANCH   3   5
BRANCH   2  17
ATOM     17  C   UNL     1       2.875   3.739  20.347  0.00  0.00    +0.000 C 
BRANCH  17  18
ATOM     18  C   UNL     1       4.045   3.083  19.613  0.00  0.00    +0.000 C 
BRANCH  18  19
ATOM     19  N   UNL     1       5.168   4.008  19.526  0.00  0.00    +0.000 N 
ATOM     20  C   UNL     1       5.651   4.186  18.233  0.00  0.00    +0.000 A 
ATOM     21  N   UNL     1       4.826   4.106  17.177  0.00  0.00    +0.000 NA
ATOM     22  C   UNL     1       5.366   4.280  15.958  0.00  0.00    +0.000 A 
ATOM     23  C   UNL     1       6.697   4.536  15.751  0.00  0.00    +0.000 A 
ATOM     24  C   UNL     1       7.460   4.601  16.889  0.00  0.00    +0.000 A 
ATOM     25  N   UNL     1       6.965   4.423  18.132  0.00  0.00    +0.000 NA
ATOM     26  H   UNL     1       5.986   3.765  20.075  0.00  0.00    +0.000 HD
ENDBRANCH  18  19
ENDBRANCH  17  18
ENDBRANCH   2  17
TORSDOF 6
ENDMDL
MODEL 4
REMARK VINA RESULT:      -7.1      2.118      3.654
REMARK  Name = 
REMARK  6 active torsions:
REMARK  status: ('A' for Active; 'I' for Inactive)
REMARK    1  A    between atoms: C_2  and  C_3
REMARK    2  A    between atoms: C_3  and  C_4
REMARK    3  A    between atoms: C_4  and  N_5
REMARK    4  A    between atoms: N_12  and  C_13
REMARK    5  A    between atoms: C_16  and  C_17
REMARK    6  A    between atoms: C_17  and  N_18
REMARK                            x       y       z     vdW  Elec       q    Type
REMARK                         _______ _______ _______ _____ _____    ______ ____
ROOT
ATOM      1  O   UNL     1       5.523   6.979  17.670  0.00  0.00    +0.000 OA
ATOM      2  C   UNL     1       4.773   6.009  17.719  0.00  0.00    +0.000 C 
ATOM      3  N   UNL     1       3.455   6.028  18.156  0.00  0.00    +0.000 N 
ATOM      4  H   UNL     1       3.008   5.136  18.317  0.00  0.00    +0.000 HD
ENDROOT
BRANCH   3   5
ATOM      5  C   UNL     1       2.694   7.181  18.457  0.00  0.00    +0.000 A 
ATOM      6  C   UNL     1       2.358   8.147  17.507  0.00  0.00    +0.000 A 
ATOM      7  C   UNL     1       1.561   9.246  17.846  0.00  0.00    +0.000 A 
ATOM      8  C   UNL     1       1.085   9.409  19.151  0.00  0.00    +0.000 A 
ATOM      9  C   UNL     1       1.424   8.444  20.109  0.00  0.00    +0.000 A 
ATOM     10  C   UNL     1       2.220   7.340  19.764  0.00  0.00    +0.000 A 
BRANCH   8  11
ATOM     11  C   UNL     1       0.227  10.597  19.509  0.00  0.00    +0.000 C 
BRANCH  11  12
ATOM     12  N   UNL     1       1.005  11.706  20.031  0.00  0.00    +0.000 N 
ATOM     13  C   UNL     1       0.838  12.345  21.223  0.00  0.00    +0.000 A 
ATOM     14  N   UNL     1       1.629  13.391  21.277  0.00  0.00    +0.000 NA
ATOM     15  C   UNL     1       2.266  13.356  20.069  0.00  0.00    +0.000 A 
ATOM     16  N   UNL     1       1.911  12.349  19.265  0.00  0.00    +0.000 NA
ENDBRANCH  11  12
ENDBRANCH   8  11
ENDBRANCH   3   5
BRANCH   2  17
ATOM     17  C   UNL     1       5.227   4.630  17.279  0.00  0.00    +0.000 C 
BRANCH  17  18
ATOM     18  C   UNL     1       4.039   3.669  17.227  0.00  0.00    +0.000 C 
BRANCH  18  19
ATOM     19  N   UNL     1       4.134   2.693  18.307  0.00  0.00    +0.000 N 
ATOM     20  C   UNL     1       3.151   2.838  19.282  0.00  0.00    +0.000 A 
ATOM     21  N   UNL     1       1.931   3.297  18.962  0.00  0.00    +0.000 NA
ATOM     22  C   UNL     1       1.037   3.418  19.959  0.00  0.00    +0.000 A 
ATOM     23  C   UNL     1       1.310   3.094  21.262  0.00  0.00    +0.000 A 
ATOM     24  C   UNL     1       2.581   2.633  21.492  0.00  0.00    +0.000 A 
ATOM     25  N   UNL     1       3.515   2.504  20.527  0.00  0.00    +0.000 NA
ATOM     26  H   UNL     1       5.008   2.686  18.822  0.00  0.00    +0.000 HD
ENDBRANCH  18  19
ENDBRANCH  17  18
ENDBRANCH   2  17
TORSDOF 6
ENDMDL
MODEL 5
REMARK VINA RESULT:      -7.1      1.705      3.358
REMARK  Name = 
REMARK  6 active torsions:
REMARK  status: ('A' for Active; 'I' for Inactive)
REMARK    1  A    between atoms: C_2  and  C_3
REMARK    2  A    between atoms: C_3  and  C_4
REMARK    3  A    between atoms: C_4  and  N_5
REMARK    4  A    between atoms: N_12  and  C_13
REMARK    5  A    between atoms: C_16  and  C_17
REMARK    6  A    between atoms: C_17  and  N_18
REMARK                            x       y       z     vdW  Elec       q    Type
REMARK                         _______ _______ _______ _____ _____    ______ ____
ROOT
ATOM      1  O   UNL     1       5.026   7.003  17.236  0.00  0.00    +0.000 OA
ATOM      2  C   UNL     1       4.406   5.973  17.485  0.00  0.00    +0.000 C 
ATOM      3  N   UNL     1       3.273   5.886  18.284  0.00  0.00    +0.000 N 
ATOM      4  H   UNL     1       2.967   4.962  18.555  0.00  0.00    +0.000 HD
ENDROOT
BRANCH   3   5
ATOM      5  C   UNL     1       2.539   6.975  18.810  0.00  0.00    +0.000 A 
ATOM      6  C   UNL     1       2.114   7.042  20.138  0.00  0.00    +0.000 A 
ATOM      7  C   UNL     1       1.431   8.164  20.621  0.00  0.00    +0.000 A 
ATOM      8  C   UNL     1       1.151   9.248  19.781  0.00  0.00    +0.000 A 
ATOM      9  C   UNL     1       1.573   9.182  18.446  0.00  0.00    +0.000 A 
ATOM     10  C   UNL     1       2.261   8.057  17.966  0.00  0.00    +0.000 A 
BRANCH   8  11
ATOM     11  C   UNL     1       0.415  10.454  20.309  0.00  0.00    +0.000 C 
BRANCH  11  12
ATOM     12  N   UNL     1      -0.327  11.149  19.272  0.00  0.00    +0.000 N 
ATOM     13  C   UNL     1      -0.070  12.384  18.757  0.00  0.00    +0.000 A 
ATOM     14  N   UNL     1      -1.043  12.736  17.950  0.00  0.00    +0.000 NA
ATOM     15  C   UNL     1      -1.893  11.669  18.011  0.00  0.00    +0.000 A 
ATOM     16  N   UNL     1      -1.505  10.675  18.816  0.00  0.00    +0.000 NA
ENDBRANCH  11  12
ENDBRANCH   8  11
ENDBRANCH   3   5
BRANCH   2  17
ATOM     17  C   UNL     1       4.825   4.633  16.913  0.00  0.00    +0.000 C 
BRANCH  17  18
ATOM     18  C   UNL     1       3.687   3.620  17.037  0.00  0.00    +0.000 C 
BRANCH  18  19
ATOM     19  N   UNL     1       3.959   2.688  18.125  0.00  0.00    +0.000 N 
ATOM     20  C   UNL     1       3.057   2.779  19.181  0.00  0.00    +0.000 A 
ATOM     21  N   UNL     1       1.780   3.125  18.961  0.00  0.00    +0.000 NA
ATOM     22  C   UNL     1       0.969   3.201  20.032  0.00  0.00    +0.000 A 
ATOM     23  C   UNL     1       1.382   2.940  21.313  0.00  0.00    +0.000 A 
ATOM     24  C   UNL     1       2.703   2.593  21.437  0.00  0.00    +0.000 A 
ATOM     25  N   UNL     1       3.557   2.514  20.395  0.00  0.00    +0.000 NA
ATOM     26  H   UNL     1       4.873   2.769  18.559  0.00  0.00    +0.000 HD
ENDBRANCH  18  19
ENDBRANCH  17  18
ENDBRANCH   2  17
TORSDOF 6
ENDMDL
MODEL 6
REMARK VINA RESULT:      -7.1      5.884      8.471
REMARK  Name = 
REMARK  6 active torsions:
REMARK  status: ('A' for Active; 'I' for Inactive)
REMARK    1  A    between atoms: C_2  and  C_3
REMARK    2  A    between atoms: C_3  and  C_4
REMARK    3  A    between atoms: C_4  and  N_5
REMARK    4  A    between atoms: N_12  and  C_13
REMARK    5  A    between atoms: C_16  and  C_17
REMARK    6  A    between atoms: C_17  and  N_18
REMARK                            x       y       z     vdW  Elec       q    Type
REMARK                         _______ _______ _______ _____ _____    ______ ____
ROOT
ATOM      1  O   UNL     1       7.941   6.832  18.596  0.00  0.00    +0.000 OA
ATOM      2  C   UNL     1       7.470   7.650  17.811  0.00  0.00    +0.000 C 
ATOM      3  N   UNL     1       6.353   7.449  17.011  0.00  0.00    +0.000 N 
ATOM      4  H   UNL     1       6.177   8.127  16.282  0.00  0.00    +0.000 HD
ENDROOT
BRANCH   3   5
ATOM      5  C   UNL     1       5.467   6.348  17.077  0.00  0.00    +0.000 A 
ATOM      6  C   UNL     1       5.806   5.065  16.644  0.00  0.00    +0.000 A 
ATOM      7  C   UNL     1       4.910   3.999  16.776  0.00  0.00    +0.000 A 
ATOM      8  C   UNL     1       3.645   4.193  17.342  0.00  0.00    +0.000 A 
ATOM      9  C   UNL     1       3.299   5.481  17.774  0.00  0.00    +0.000 A 
ATOM     10  C   UNL     1       4.203   6.548  17.644  0.00  0.00    +0.000 A 
BRANCH   8  11
ATOM     11  C   UNL     1       2.684   3.038  17.480  0.00  0.00    +0.000 C 
BRANCH  11  12
ATOM     12  N   UNL     1       2.258   2.833  18.853  0.00  0.00    +0.000 N 
ATOM     13  C   UNL     1       1.015   3.032  19.373  0.00  0.00    +0.000 A 
ATOM     14  N   UNL     1       1.054   2.887  20.677  0.00  0.00    +0.000 NA
ATOM     15  C   UNL     1       2.368   2.604  20.914  0.00  0.00    +0.000 A 
ATOM     16  N   UNL     1       3.151   2.570  19.831  0.00  0.00    +0.000 NA
ENDBRANCH  11  12
ENDBRANCH   8  11
ENDBRANCH   3   5
BRANCH   2  17
ATOM     17  C   UNL     1       8.079   9.027  17.635  0.00  0.00    +0.000 C 
BRANCH  17  18
ATOM     18  C   UNL     1       9.088   9.311  18.748  0.00  0.00    +0.000 C 
BRANCH  18  19
ATOM     19  N   UNL     1       8.863  10.640  19.304  0.00  0.00    +0.000 N 
ATOM     20  C   UNL     1       9.950  11.499  19.163  0.00  0.00    +0.000 A 
ATOM     21  N   UNL     1      10.772  11.394  18.108  0.00  0.00    +0.000 NA
ATOM     22  C   UNL     1      11.806  12.252  18.045  0.00  0.00    +0.000 A 
ATOM     23  C   UNL     1      12.048  13.214  18.991  0.00  0.00    +0.000 A 
ATOM     24  C   UNL     1      11.154  13.244  20.030  0.00  0.00    +0.000 A 
ATOM     25  N   UNL     1      10.109  12.399  20.142  0.00  0.00    +0.000 NA
ATOM     26  H   UNL     1       8.634  10.675  20.292  0.00  0.00    +0.000 HD
ENDBRANCH  18  19
ENDBRANCH  17  18
ENDBRANCH   2  17
TORSDOF 6
ENDMDL
MODEL 7
REMARK VINA RESULT:      -7.1      5.628      8.438
REMARK  Name = 
REMARK  6 active torsions:
REMARK  status: ('A' for Active; 'I' for Inactive)
REMARK    1  A    between atoms: C_2  and  C_3
REMARK    2  A    between atoms: C_3  and  C_4
REMARK    3  A    between atoms: C_4  and  N_5
REMARK    4  A    between atoms: N_12  and  C_13
REMARK    5  A    between atoms: C_16  and  C_17
REMARK    6  A    between atoms: C_17  and  N_18
REMARK                            x       y       z     vdW  Elec       q    Type
REMARK                         _______ _______ _______ _____ _____    ______ ____
ROOT
ATOM      1  O   UNL     1       7.945   6.829  18.568  0.00  0.00    +0.000 OA
ATOM      2  C   UNL     1       7.512   7.578  17.697  0.00  0.00    +0.000 C 
ATOM      3  N   UNL     1       6.384   7.348  16.921  0.00  0.00    +0.000 N 
ATOM      4  H   UNL     1       6.240   7.950  16.122  0.00  0.00    +0.000 HD
ENDROOT
BRANCH   3   5
ATOM      5  C   UNL     1       5.444   6.306  17.104  0.00  0.00    +0.000 A 
ATOM      6  C   UNL     1       4.232   6.478  17.775  0.00  0.00    +0.000 A 
ATOM      7  C   UNL     1       3.315   5.427  17.888  0.00  0.00    +0.000 A 
ATOM      8  C   UNL     1       3.594   4.172  17.335  0.00  0.00    +0.000 A 
ATOM      9  C   UNL     1       4.812   3.995  16.665  0.00  0.00    +0.000 A 
ATOM     10  C   UNL     1       5.727   5.053  16.550  0.00  0.00    +0.000 A 
BRANCH   8  11
ATOM     11  C   UNL     1       2.600   3.044  17.461  0.00  0.00    +0.000 C 
BRANCH  11  12
ATOM     12  N   UNL     1       2.163   2.841  18.831  0.00  0.00    +0.000 N 
ATOM     13  C   UNL     1       0.941   3.129  19.361  0.00  0.00    +0.000 A 
ATOM     14  N   UNL     1       0.971   2.950  20.661  0.00  0.00    +0.000 NA
ATOM     15  C   UNL     1       2.258   2.553  20.885  0.00  0.00    +0.000 A 
ATOM     16  N   UNL     1       3.032   2.480  19.798  0.00  0.00    +0.000 NA
ENDBRANCH  11  12
ENDBRANCH   8  11
ENDBRANCH   3   5
BRANCH   2  17
ATOM     17  C   UNL     1       8.189   8.896  17.373  0.00  0.00    +0.000 C 
BRANCH  17  18
ATOM     18  C   UNL     1       8.728   9.546  18.647  0.00  0.00    +0.000 C 
BRANCH  18  19
ATOM     19  N   UNL     1       9.479  10.752  18.317  0.00  0.00    +0.000 N 
ATOM     20  C   UNL     1       9.520  11.687  19.348  0.00  0.00    +0.000 A 
ATOM     21  N   UNL     1       9.504  11.294  20.630  0.00  0.00    +0.000 NA
ATOM     22  C   UNL     1       9.536  12.255  21.571  0.00  0.00    +0.000 A 
ATOM     23  C   UNL     1       9.590  13.594  21.281  0.00  0.00    +0.000 A 
ATOM     24  C   UNL     1       9.604  13.898  19.943  0.00  0.00    +0.000 A 
ATOM     25  N   UNL     1       9.562  12.970  18.965  0.00  0.00    +0.000 NA
ATOM     26  H   UNL     1       9.151  11.272  17.510  0.00  0.00    +0.000 HD
ENDBRANCH  18  19
ENDBRANCH  17  18
ENDBRANCH   2  17
TORSDOF 6
ENDMDL
MODEL 8
REMARK VINA RESULT:      -7.1      2.088      3.711
REMARK  Name = 
REMARK  6 active torsions:
REMARK  status: ('A' for Active; 'I' for Inactive)
REMARK    1  A    between atoms: C_2  and  C_3
REMARK    2  A    between atoms: C_3  and  C_4
REMARK    3  A    between atoms: C_4  and  N_5
REMARK    4  A    between atoms: N_12  and  C_13
REMARK    5  A    between atoms: C_16  and  C_17
REMARK    6  A    between atoms: C_17  and  N_18
REMARK                            x       y       z     vdW  Elec       q    Type
REMARK                         _______ _______ _______ _____ _____    ______ ____
ROOT
ATOM      1  O   UNL     1       5.048   7.142  17.092  0.00  0.00    +0.000 OA
ATOM      2  C   UNL     1       4.550   6.142  17.601  0.00  0.00    +0.000 C 
ATOM      3  N   UNL     1       3.436   6.128  18.430  0.00  0.00    +0.000 N 
ATOM      4  H   UNL     1       3.238   5.269  18.925  0.00  0.00    +0.000 HD
ENDROOT
BRANCH   3   5
ATOM      5  C   UNL     1       2.582   7.223  18.698  0.00  0.00    +0.000 A 
ATOM      6  C   UNL     1       2.060   7.496  19.963  0.00  0.00    +0.000 A 
ATOM      7  C   UNL     1       1.258   8.621  20.186  0.00  0.00    +0.000 A 
ATOM      8  C   UNL     1       0.954   9.501  19.141  0.00  0.00    +0.000 A 
ATOM      9  C   UNL     1       1.473   9.228  17.868  0.00  0.00    +0.000 A 
ATOM     10  C   UNL     1       2.280   8.100  17.649  0.00  0.00    +0.000 A 
BRANCH   8  11
ATOM     11  C   UNL     1       0.088  10.712  19.389  0.00  0.00    +0.000 C 
BRANCH  11  12
ATOM     12  N   UNL     1       0.799  11.767  20.088  0.00  0.00    +0.000 N 
ATOM     13  C   UNL     1       0.449  12.363  21.262  0.00  0.00    +0.000 A 
ATOM     14  N   UNL     1       1.252  13.374  21.499  0.00  0.00    +0.000 NA
ATOM     15  C   UNL     1       2.086  13.362  20.419  0.00  0.00    +0.000 A 
ATOM     16  N   UNL     1       1.844  12.404  19.519  0.00  0.00    +0.000 NA
ENDBRANCH  11  12
ENDBRANCH   8  11
ENDBRANCH   3   5
BRANCH   2  17
ATOM     17  C   UNL     1       5.119   4.758  17.357  0.00  0.00    +0.000 C 
BRANCH  17  18
ATOM     18  C   UNL     1       3.992   3.735  17.214  0.00  0.00    +0.000 C 
BRANCH  18  19
ATOM     19  N   UNL     1       4.081   2.737  18.272  0.00  0.00    +0.000 N 
ATOM     20  C   UNL     1       3.116   2.883  19.265  0.00  0.00    +0.000 A 
ATOM     21  N   UNL     1       1.902   3.375  18.971  0.00  0.00    +0.000 NA
ATOM     22  C   UNL     1       1.025   3.496  19.984  0.00  0.00    +0.000 A 
ATOM     23  C   UNL     1       1.310   3.140  21.277  0.00  0.00    +0.000 A 
ATOM     24  C   UNL     1       2.574   2.646  21.478  0.00  0.00    +0.000 A 
ATOM     25  N   UNL     1       3.491   2.517  20.498  0.00  0.00    +0.000 NA
ATOM     26  H   UNL     1       4.963   2.700  18.774  0.00  0.00    +0.000 HD
ENDBRANCH  18  19
ENDBRANCH  17  18
ENDBRANCH   2  17
TORSDOF 6
ENDMDL
MODEL 9
REMARK VINA RESULT:      -7.0      2.214      3.047
REMARK  Name = 
REMARK  6 active torsions:
REMARK  status: ('A' for Active; 'I' for Inactive)
REMARK    1  A    between atoms: C_2  and  C_3
REMARK    2  A    between atoms: C_3  and  C_4
REMARK    3  A    between atoms: C_4  and  N_5
REMARK    4  A    between atoms: N_12  and  C_13
REMARK    5  A    between atoms: C_16  and  C_17
REMARK    6  A    between atoms: C_17  and  N_18
REMARK                            x       y       z     vdW  Elec       q    Type
REMARK                         _______ _______ _______ _____ _____    ______ ____
ROOT
ATOM      1  O   UNL     1       1.967   4.962  18.024  0.00  0.00    +0.000 OA
ATOM      2  C   UNL     1       2.531   4.951  19.114  0.00  0.00    +0.000 C 
ATOM      3  N   UNL     1       2.699   6.048  19.948  0.00  0.00    +0.000 N 
ATOM      4  H   UNL     1       3.335   5.946  20.727  0.00  0.00    +0.000 HD
ENDROOT
BRANCH   3   5
ATOM      5  C   UNL     1       2.109   7.323  19.777  0.00  0.00    +0.000 A 
ATOM      6  C   UNL     1       1.392   7.976  20.781  0.00  0.00    +0.000 A 
ATOM      7  C   UNL     1       0.869   9.258  20.576  0.00  0.00    +0.000 A 
ATOM      8  C   UNL     1       1.047   9.916  19.355  0.00  0.00    +0.000 A 
ATOM      9  C   UNL     1       1.763   9.262  18.343  0.00  0.00    +0.000 A 
ATOM     10  C   UNL     1       2.290   7.978  18.553  0.00  0.00    +0.000 A 
BRANCH   8  11
ATOM     11  C   UNL     1       0.480  11.298  19.142  0.00  0.00    +0.000 C 
BRANCH  11  12
ATOM     12  N   UNL     1       1.420  12.344  19.503  0.00  0.00    +0.000 N 
ATOM     13  C   UNL     1       2.305  12.980  18.685  0.00  0.00    +0.000 A 
ATOM     14  N   UNL     1       3.089  13.754  19.399  0.00  0.00    +0.000 NA
ATOM     15  C   UNL     1       2.642  13.548  20.673  0.00  0.00    +0.000 A 
ATOM     16  N   UNL     1       1.628  12.685  20.792  0.00  0.00    +0.000 NA
ENDBRANCH  11  12
ENDBRANCH   8  11
ENDBRANCH   3   5
BRANCH   2  17
ATOM     17  C   UNL     1       3.122   3.679  19.691  0.00  0.00    +0.000 C 
BRANCH  17  18
ATOM     18  C   UNL     1       4.621   3.606  19.399  0.00  0.00    +0.000 C 
BRANCH  18  19
ATOM     19  N   UNL     1       4.912   4.213  18.106  0.00  0.00    +0.000 N 
ATOM     20  C   UNL     1       5.930   5.161  18.148  0.00  0.00    +0.000 A 
ATOM     21  N   UNL     1       6.941   5.043  19.022  0.00  0.00    +0.000 NA
ATOM     22  C   UNL     1       7.883   6.002  19.010  0.00  0.00    +0.000 A 
ATOM     23  C   UNL     1       7.859   7.073  18.154  0.00  0.00    +0.000 A 
ATOM     24  C   UNL     1       6.789   7.108  17.297  0.00  0.00    +0.000 A 
ATOM     25  N   UNL     1       5.815   6.175  17.279  0.00  0.00    +0.000 NA
ATOM     26  H   UNL     1       4.137   4.688  17.654  0.00  0.00    +0.000 HD
ENDBRANCH  18  19
ENDBRANCH  17  18
ENDBRANCH   2  17
TORSDOF 6
ENDMDL
