MODEL 1
REMARK VINA RESULT:      -7.4      0.000      0.000
REMARK  Name = 
REMARK  5 active torsions:
REMARK  status: ('A' for Active; 'I' for Inactive)
REMARK    1  A    between atoms: C_10  and  N_11
REMARK    2  A    between atoms: N_11  and  C_12
REMARK    3  A    between atoms: C_15  and  C_16
REMARK    4  A    between atoms: C_16  and  O_18
REMARK    5  A    between atoms: C_19  and  O_20
REMARK                            x       y       z     vdW  Elec       q    Type
REMARK                         _______ _______ _______ _____ _____    ______ ____
ROOT
ATOM      1  N   UNL     1       2.231   7.676  20.437  0.00  0.00    +0.000 N 
ATOM      2  H   UNL     1       3.030   8.202  20.072  0.00  0.00    +0.000 HD
ENDROOT
BRANCH   1  12
ATOM      3  O   UNL     1       1.036   9.725  18.931  0.00  0.00    +0.000 OA
ATOM      4  C   UNL     1       0.455  10.052  19.961  0.00  0.00    +0.000 C 
ATOM      5  N   UNL     1      -0.462  11.072  19.978  0.00  0.00    +0.000 N 
ATOM      6  C   UNL     1      -1.134  11.537  21.067  0.00  0.00    +0.000 C 
ATOM      7  S   UNL     1      -2.226  12.782  20.944  0.00  0.00    +0.000 S 
ATOM      8  N   UNL     1      -0.875  10.941  22.262  0.00  0.00    +0.000 N 
ATOM      9  C   UNL     1      -0.015   9.896  22.479  0.00  0.00    +0.000 C 
ATOM     10  O   UNL     1       0.146   9.428  23.599  0.00  0.00    +0.000 OA
ATOM     11  C   UNL     1       0.676   9.394  21.268  0.00  0.00    +0.000 C 
ATOM     12  C   UNL     1       1.490   8.331  21.395  0.00  0.00    +0.000 C 
ATOM     13  H   UNL     1      -0.637  11.521  19.087  0.00  0.00    +0.000 HD
ATOM     14  H   UNL     1      -1.360  11.286  23.081  0.00  0.00    +0.000 HD
ENDBRANCH   1  12
BRANCH   1  15
ATOM     15  C   UNL     1       2.055   6.374  19.934  0.00  0.00    +0.000 A 
ATOM     16  C   UNL     1       2.268   6.035  18.590  0.00  0.00    +0.000 A 
ATOM     17  C   UNL     1       2.027   4.742  18.114  0.00  0.00    +0.000 A 
ATOM     18  C   UNL     1       1.570   3.749  18.980  0.00  0.00    +0.000 A 
ATOM     19  C   UNL     1       1.357   4.072  20.321  0.00  0.00    +0.000 A 
ATOM     20  C   UNL     1       1.607   5.362  20.799  0.00  0.00    +0.000 A 
BRANCH  18  21
ATOM     21  C   UNL     1       1.321   2.402  18.414  0.00  0.00    +0.000 C 
ATOM     22  O   UNL     1       0.219   1.881  18.405  0.00  0.00    +0.000 OA
BRANCH  21  23
ATOM     23  O   UNL     1       2.419   1.818  17.889  0.00  0.00    +0.000 OA
ATOM     24  H   UNL     1       2.314   1.554  16.950  0.00  0.00    +0.000 HD
ENDBRANCH  21  23
ENDBRANCH  18  21
BRANCH  19  25
ATOM     25  O   UNL     1       0.896   3.145  21.216  0.00  0.00    +0.000 OA
ATOM     26  H   UNL     1       1.423   2.331  21.075  0.00  0.00    +0.000 HD
ENDBRANCH  19  25
ENDBRANCH   1  15
TORSDOF 5
ENDMDL
MODEL 2
REMARK VINA RESULT:      -7.1      3.168      3.807
REMARK  Name = 
REMARK  5 active torsions:
REMARK  status: ('A' for Active; 'I' for Inactive)
REMARK    1  A    between atoms: C_10  and  N_11
REMARK    2  A    between atoms: N_11  and  C_12
REMARK    3  A    between atoms: C_15  and  C_16
REMARK    4  A    between atoms: C_16  and  O_18
REMARK    5  A    between atoms: C_19  and  O_20
REMARK                            x       y       z     vdW  Elec       q    Type
REMARK                         _______ _______ _______ _____ _____    ______ ____
ROOT
ATOM      1  N   UNL     1       2.264   6.805  18.633  0.00  0.00    +0.000 N 
ATOM      2  H   UNL     1       1.514   6.545  17.986  0.00  0.00    +0.000 HD
ENDROOT
BRANCH   1  12
ATOM      3  O   UNL     1       1.767   9.225  17.296  0.00  0.00    +0.000 OA
ATOM      4  C   UNL     1       1.422   9.677  18.383  0.00  0.00    +0.000 C 
ATOM      5  N   UNL     1       0.933  10.953  18.509  0.00  0.00    +0.000 N 
ATOM      6  C   UNL     1       0.557  11.564  19.667  0.00  0.00    +0.000 C 
ATOM      7  S   UNL     1      -0.025  13.119  19.676  0.00  0.00    +0.000 S 
ATOM      8  N   UNL     1       0.677  10.848  20.818  0.00  0.00    +0.000 N 
ATOM      9  C   UNL     1       1.121   9.556  20.928  0.00  0.00    +0.000 C 
ATOM     10  O   UNL     1       1.189   8.999  22.016  0.00  0.00    +0.000 OA
ATOM     11  C   UNL     1       1.493   8.912  19.646  0.00  0.00    +0.000 C 
ATOM     12  C   UNL     1       1.881   7.624  19.671  0.00  0.00    +0.000 C 
ATOM     13  H   UNL     1       0.862  11.485  17.650  0.00  0.00    +0.000 HD
ATOM     14  H   UNL     1       0.411  11.295  21.686  0.00  0.00    +0.000 HD
ENDBRANCH   1  12
BRANCH   1  15
ATOM     15  C   UNL     1       3.549   6.321  18.330  0.00  0.00    +0.000 A 
ATOM     16  C   UNL     1       4.391   6.923  17.383  0.00  0.00    +0.000 A 
ATOM     17  C   UNL     1       5.641   6.380  17.065  0.00  0.00    +0.000 A 
ATOM     18  C   UNL     1       6.082   5.217  17.696  0.00  0.00    +0.000 A 
ATOM     19  C   UNL     1       5.256   4.610  18.643  0.00  0.00    +0.000 A 
ATOM     20  C   UNL     1       4.011   5.158  18.968  0.00  0.00    +0.000 A 
BRANCH  18  21
ATOM     21  C   UNL     1       7.410   4.684  17.308  0.00  0.00    +0.000 C 
ATOM     22  O   UNL     1       8.217   4.263  18.120  0.00  0.00    +0.000 OA
BRANCH  21  23
ATOM     23  O   UNL     1       7.632   4.684  15.976  0.00  0.00    +0.000 OA
ATOM     24  H   UNL     1       8.435   4.186  15.711  0.00  0.00    +0.000 HD
ENDBRANCH  21  23
ENDBRANCH  18  21
BRANCH  19  25
ATOM     25  O   UNL     1       5.627   3.460  19.285  0.00  0.00    +0.000 OA
ATOM     26  H   UNL     1       5.256   3.511  20.190  0.00  0.00    +0.000 HD
ENDBRANCH  19  25
ENDBRANCH   1  15
TORSDOF 5
ENDMDL
MODEL 3
REMARK VINA RESULT:      -7.1      0.725      1.467
REMARK  Name = 
REMARK  5 active torsions:
REMARK  status: ('A' for Active; 'I' for Inactive)
REMARK    1  A    between atoms: C_10  and  N_11
REMARK    2  A    between atoms: N_11  and  C_12
REMARK    3  A    between atoms: C_15  and  C_16
REMARK    4  A    between atoms: C_16  and  O_18
REMARK    5  A    between atoms: C_19  and  O_20
REMARK                            x       y       z     vdW  Elec       q    Type
REMARK                         _______ _______ _______ _____ _____    ______ ____
ROOT
ATOM      1  N   UNL     1       2.257   7.651  20.567  0.00  0.00    +0.000 N 
ATOM      2  H   UNL     1       3.107   8.105  20.222  0.00  0.00    +0.000 HD
ENDROOT
BRANCH   1  12
ATOM      3  O   UNL     1       0.984   9.545  18.928  0.00  0.00    +0.000 OA
ATOM      4  C   UNL     1       0.433   9.956  19.945  0.00  0.00    +0.000 C 
ATOM      5  N   UNL     1      -0.496  10.964  19.903  0.00  0.00    +0.000 N 
ATOM      6  C   UNL     1      -1.138  11.517  20.970  0.00  0.00    +0.000 C 
ATOM      7  S   UNL     1      -2.250  12.735  20.775  0.00  0.00    +0.000 S 
ATOM      8  N   UNL     1      -0.830  11.032  22.203  0.00  0.00    +0.000 N 
ATOM      9  C   UNL     1       0.051  10.020  22.481  0.00  0.00    +0.000 C 
ATOM     10  O   UNL     1       0.255   9.655  23.632  0.00  0.00    +0.000 OA
ATOM     11  C   UNL     1       0.707   9.420  21.296  0.00  0.00    +0.000 C 
ATOM     12  C   UNL     1       1.540   8.381  21.489  0.00  0.00    +0.000 C 
ATOM     13  H   UNL     1      -0.708  11.331  18.983  0.00  0.00    +0.000 HD
ATOM     14  H   UNL     1      -1.292  11.443  23.005  0.00  0.00    +0.000 HD
ENDBRANCH   1  12
BRANCH   1  15
ATOM     15  C   UNL     1       1.993   6.359  20.078  0.00  0.00    +0.000 A 
ATOM     16  C   UNL     1       1.217   5.420  20.773  0.00  0.00    +0.000 A 
ATOM     17  C   UNL     1       1.024   4.124  20.283  0.00  0.00    +0.000 A 
ATOM     18  C   UNL     1       1.602   3.736  19.075  0.00  0.00    +0.000 A 
ATOM     19  C   UNL     1       2.374   4.662  18.371  0.00  0.00    +0.000 A 
ATOM     20  C   UNL     1       2.560   5.961  18.856  0.00  0.00    +0.000 A 
BRANCH  18  21
ATOM     21  C   UNL     1       1.371   2.346  18.615  0.00  0.00    +0.000 C 
ATOM     22  O   UNL     1       0.257   1.889  18.424  0.00  0.00    +0.000 OA
BRANCH  21  23
ATOM     23  O   UNL     1       2.505   1.645  18.403  0.00  0.00    +0.000 OA
ATOM     24  H   UNL     1       2.864   1.742  17.495  0.00  0.00    +0.000 HD
ENDBRANCH  21  23
ENDBRANCH  18  21
BRANCH  19  25
ATOM     25  O   UNL     1       2.979   4.338  17.188  0.00  0.00    +0.000 OA
ATOM     26  H   UNL     1       2.587   3.490  16.894  0.00  0.00    +0.000 HD
ENDBRANCH  19  25
ENDBRANCH   1  15
TORSDOF 5
ENDMDL
MODEL 4
REMARK VINA RESULT:      -7.1      1.102      1.221
REMARK  Name = 
REMARK  5 active torsions:
REMARK  status: ('A' for Active; 'I' for Inactive)
REMARK    1  A    between atoms: C_10  and  N_11
REMARK    2  A    between atoms: N_11  and  C_12
REMARK    3  A    between atoms: C_15  and  C_16
REMARK    4  A    between atoms: C_16  and  O_18
REMARK    5  A    between atoms: C_19  and  O_20
REMARK                            x       y       z     vdW  Elec       q    Type
REMARK                         _______ _______ _______ _____ _____    ______ ____
ROOT
ATOM      1  N   UNL     1       2.366   7.449  20.423  0.00  0.00    +0.000 N 
ATOM      2  H   UNL     1       3.337   7.767  20.480  0.00  0.00    +0.000 HD
ENDROOT
BRANCH   1  12
ATOM      3  O   UNL     1       2.127   9.207  18.245  0.00  0.00    +0.000 OA
ATOM      4  C   UNL     1       1.262   9.787  18.894  0.00  0.00    +0.000 C 
ATOM      5  N   UNL     1       0.565  10.849  18.377  0.00  0.00    +0.000 N 
ATOM      6  C   UNL     1      -0.386  11.583  19.021  0.00  0.00    +0.000 C 
ATOM      7  S   UNL     1      -1.159  12.847  18.271  0.00  0.00    +0.000 S 
ATOM      8  N   UNL     1      -0.676  11.239  20.305  0.00  0.00    +0.000 N 
ATOM      9  C   UNL     1      -0.121  10.207  21.014  0.00  0.00    +0.000 C 
ATOM     10  O   UNL     1      -0.455   9.979  22.170  0.00  0.00    +0.000 OA
ATOM     11  C   UNL     1       0.886   9.410  20.274  0.00  0.00    +0.000 C 
ATOM     12  C   UNL     1       1.429   8.344  20.889  0.00  0.00    +0.000 C 
ATOM     13  H   UNL     1       0.798  11.109  17.426  0.00  0.00    +0.000 HD
ATOM     14  H   UNL     1      -1.372  11.785  20.797  0.00  0.00    +0.000 HD
ENDBRANCH   1  12
BRANCH   1  15
ATOM     15  C   UNL     1       2.161   6.149  19.924  0.00  0.00    +0.000 A 
ATOM     16  C   UNL     1       2.425   5.787  18.595  0.00  0.00    +0.000 A 
ATOM     17  C   UNL     1       2.154   4.500  18.119  0.00  0.00    +0.000 A 
ATOM     18  C   UNL     1       1.615   3.536  18.970  0.00  0.00    +0.000 A 
ATOM     19  C   UNL     1       1.351   3.882  20.297  0.00  0.00    +0.000 A 
ATOM     20  C   UNL     1       1.630   5.166  20.775  0.00  0.00    +0.000 A 
BRANCH  18  21
ATOM     21  C   UNL     1       1.339   2.194  18.405  0.00  0.00    +0.000 C 
ATOM     22  O   UNL     1       0.216   1.723  18.336  0.00  0.00    +0.000 OA
BRANCH  21  23
ATOM     23  O   UNL     1       2.439   1.554  17.952  0.00  0.00    +0.000 OA
ATOM     24  H   UNL     1       2.503   1.527  16.974  0.00  0.00    +0.000 HD
ENDBRANCH  21  23
ENDBRANCH  18  21
BRANCH  19  25
ATOM     25  O   UNL     1       0.809   2.984  21.176  0.00  0.00    +0.000 OA
ATOM     26  H   UNL     1      -0.160   3.002  21.036  0.00  0.00    +0.000 HD
ENDBRANCH  19  25
ENDBRANCH   1  15
TORSDOF 5
ENDMDL
MODEL 5
REMARK VINA RESULT:      -7.1      3.215      4.131
REMARK  Name = 
REMARK  5 active torsions:
REMARK  status: ('A' for Active; 'I' for Inactive)
REMARK    1  A    between atoms: C_10  and  N_11
REMARK    2  A    between atoms: N_11  and  C_12
REMARK    3  A    between atoms: C_15  and  C_16
REMARK    4  A    between atoms: C_16  and  O_18
REMARK    5  A    between atoms: C_19  and  O_20
REMARK                            x       y       z     vdW  Elec       q    Type
REMARK                         _______ _______ _______ _____ _____    ______ ____
ROOT
ATOM      1  N   UNL     1       2.515   6.941  18.841  0.00  0.00    +0.000 N 
ATOM      2  H   UNL     1       1.868   6.280  19.279  0.00  0.00    +0.000 HD
ENDROOT
BRANCH   1  12
ATOM      3  O   UNL     1       1.068   7.156  21.239  0.00  0.00    +0.000 OA
ATOM      4  C   UNL     1       0.876   8.331  20.940  0.00  0.00    +0.000 C 
ATOM      5  N   UNL     1       0.206   9.187  21.778  0.00  0.00    +0.000 N 
ATOM      6  C   UNL     1      -0.091  10.492  21.530  0.00  0.00    +0.000 C 
ATOM      7  S   UNL     1      -0.907  11.420  22.639  0.00  0.00    +0.000 S 
ATOM      8  N   UNL     1       0.306  11.007  20.334  0.00  0.00    +0.000 N 
ATOM      9  C   UNL     1       1.002  10.345  19.356  0.00  0.00    +0.000 C 
ATOM     10  O   UNL     1       1.315  10.904  18.312  0.00  0.00    +0.000 OA
ATOM     11  C   UNL     1       1.336   8.936  19.672  0.00  0.00    +0.000 C 
ATOM     12  C   UNL     1       2.070   8.243  18.783  0.00  0.00    +0.000 C 
ATOM     13  H   UNL     1      -0.101   8.792  22.658  0.00  0.00    +0.000 HD
ATOM     14  H   UNL     1       0.081  11.974  20.134  0.00  0.00    +0.000 HD
ENDBRANCH   1  12
BRANCH   1  15
ATOM     15  C   UNL     1       3.716   6.405  18.341  0.00  0.00    +0.000 A 
ATOM     16  C   UNL     1       4.416   6.965  17.263  0.00  0.00    +0.000 A 
ATOM     17  C   UNL     1       5.576   6.371  16.756  0.00  0.00    +0.000 A 
ATOM     18  C   UNL     1       6.070   5.197  17.323  0.00  0.00    +0.000 A 
ATOM     19  C   UNL     1       5.385   4.631  18.400  0.00  0.00    +0.000 A 
ATOM     20  C   UNL     1       4.230   5.230  18.913  0.00  0.00    +0.000 A 
BRANCH  18  21
ATOM     21  C   UNL     1       7.296   4.608  16.734  0.00  0.00    +0.000 C 
ATOM     22  O   UNL     1       7.529   4.626  15.538  0.00  0.00    +0.000 OA
BRANCH  21  23
ATOM     23  O   UNL     1       8.139   4.076  17.645  0.00  0.00    +0.000 OA
ATOM     24  H   UNL     1       7.744   3.981  18.538  0.00  0.00    +0.000 HD
ENDBRANCH  21  23
ENDBRANCH  18  21
BRANCH  19  25
ATOM     25  O   UNL     1       5.811   3.472  18.991  0.00  0.00    +0.000 OA
ATOM     26  H   UNL     1       6.096   2.876  18.268  0.00  0.00    +0.000 HD
ENDBRANCH  19  25
ENDBRANCH   1  15
TORSDOF 5
ENDMDL
MODEL 6
REMARK VINA RESULT:      -7.0      0.994      1.229
REMARK  Name = 
REMARK  5 active torsions:
REMARK  status: ('A' for Active; 'I' for Inactive)
REMARK    1  A    between atoms: C_10  and  N_11
REMARK    2  A    between atoms: N_11  and  C_12
REMARK    3  A    between atoms: C_15  and  C_16
REMARK    4  A    between atoms: C_16  and  O_18
REMARK    5  A    between atoms: C_19  and  O_20
REMARK                            x       y       z     vdW  Elec       q    Type
REMARK                         _______ _______ _______ _____ _____    ______ ____
ROOT
ATOM      1  N   UNL     1       1.895   7.834  20.246  0.00  0.00    +0.000 N 
ATOM      2  H   UNL     1       2.121   8.473  19.479  0.00  0.00    +0.000 HD
ENDROOT
BRANCH   1  12
ATOM      3  O   UNL     1       0.350   9.885  19.107  0.00  0.00    +0.000 OA
ATOM      4  C   UNL     1      -0.009  10.158  20.248  0.00  0.00    +0.000 C 
ATOM      5  N   UNL     1      -0.930  11.143  20.497  0.00  0.00    +0.000 N 
ATOM      6  C   UNL     1      -1.370  11.549  21.721  0.00  0.00    +0.000 C 
ATOM      7  S   UNL     1      -2.498  12.757  21.879  0.00  0.00    +0.000 S 
ATOM      8  N   UNL     1      -0.846  10.924  22.810  0.00  0.00    +0.000 N 
ATOM      9  C   UNL     1       0.070   9.904  22.800  0.00  0.00    +0.000 C 
ATOM     10  O   UNL     1       0.477   9.406  23.842  0.00  0.00    +0.000 OA
ATOM     11  C   UNL     1       0.503   9.467  21.452  0.00  0.00    +0.000 C 
ATOM     12  C   UNL     1       1.355   8.430  21.364  0.00  0.00    +0.000 C 
ATOM     13  H   UNL     1      -1.303  11.615  19.682  0.00  0.00    +0.000 HD
ATOM     14  H   UNL     1      -1.157  11.225  23.726  0.00  0.00    +0.000 HD
ENDBRANCH   1  12
BRANCH   1  15
ATOM     15  C   UNL     1       2.210   6.478  20.045  0.00  0.00    +0.000 A 
ATOM     16  C   UNL     1       3.298   6.050  19.271  0.00  0.00    +0.000 A 
ATOM     17  C   UNL     1       3.547   4.692  19.045  0.00  0.00    +0.000 A 
ATOM     18  C   UNL     1       2.711   3.723  19.598  0.00  0.00    +0.000 A 
ATOM     19  C   UNL     1       1.626   4.135  20.375  0.00  0.00    +0.000 A 
ATOM     20  C   UNL     1       1.382   5.492  20.608  0.00  0.00    +0.000 A 
BRANCH  18  21
ATOM     21  C   UNL     1       3.019   2.301  19.313  0.00  0.00    +0.000 C 
ATOM     22  O   UNL     1       4.125   1.817  19.486  0.00  0.00    +0.000 OA
BRANCH  21  23
ATOM     23  O   UNL     1       1.960   1.590  18.871  0.00  0.00    +0.000 OA
ATOM     24  H   UNL     1       2.144   0.631  18.774  0.00  0.00    +0.000 HD
ENDBRANCH  21  23
ENDBRANCH  18  21
BRANCH  19  25
ATOM     25  O   UNL     1       0.761   3.233  20.932  0.00  0.00    +0.000 OA
ATOM     26  H   UNL     1      -0.137   3.613  20.844  0.00  0.00    +0.000 HD
ENDBRANCH  19  25
ENDBRANCH   1  15
TORSDOF 5
ENDMDL
MODEL 7
REMARK VINA RESULT:      -7.0      3.412      4.222
REMARK  Name = 
REMARK  5 active torsions:
REMARK  status: ('A' for Active; 'I' for Inactive)
REMARK    1  A    between atoms: C_10  and  N_11
REMARK    2  A    between atoms: N_11  and  C_12
REMARK    3  A    between atoms: C_15  and  C_16
REMARK    4  A    between atoms: C_16  and  O_18
REMARK    5  A    between atoms: C_19  and  O_20
REMARK                            x       y       z     vdW  Elec       q    Type
REMARK                         _______ _______ _______ _____ _____    ______ ____
ROOT
ATOM      1  N   UNL     1       2.269   6.874  18.688  0.00  0.00    +0.000 N 
ATOM      2  H   UNL     1       1.566   6.647  17.979  0.00  0.00    +0.000 HD
ENDROOT
BRANCH   1  12
ATOM      3  O   UNL     1       1.898   9.279  17.285  0.00  0.00    +0.000 OA
ATOM      4  C   UNL     1       1.495   9.756  18.342  0.00  0.00    +0.000 C 
ATOM      5  N   UNL     1       1.022  11.041  18.418  0.00  0.00    +0.000 N 
ATOM      6  C   UNL     1       0.586  11.677  19.541  0.00  0.00    +0.000 C 
ATOM      7  S   UNL     1       0.033  13.242  19.489  0.00  0.00    +0.000 S 
ATOM      8  N   UNL     1       0.623  10.979  20.708  0.00  0.00    +0.000 N 
ATOM      9  C   UNL     1       1.036   9.682  20.865  0.00  0.00    +0.000 C 
ATOM     10  O   UNL     1       1.027   9.142  21.964  0.00  0.00    +0.000 OA
ATOM     11  C   UNL     1       1.474   9.010  19.619  0.00  0.00    +0.000 C 
ATOM     12  C   UNL     1       1.837   7.717  19.688  0.00  0.00    +0.000 C 
ATOM     13  H   UNL     1       1.013  11.560  17.548  0.00  0.00    +0.000 HD
ATOM     14  H   UNL     1       0.312  11.445  21.551  0.00  0.00    +0.000 HD
ENDBRANCH   1  12
BRANCH   1  15
ATOM     15  C   UNL     1       3.551   6.327  18.499  0.00  0.00    +0.000 A 
ATOM     16  C   UNL     1       4.152   5.447  19.411  0.00  0.00    +0.000 A 
ATOM     17  C   UNL     1       5.452   4.969  19.218  0.00  0.00    +0.000 A 
ATOM     18  C   UNL     1       6.184   5.357  18.096  0.00  0.00    +0.000 A 
ATOM     19  C   UNL     1       5.596   6.229  17.178  0.00  0.00    +0.000 A 
ATOM     20  C   UNL     1       4.293   6.700  17.366  0.00  0.00    +0.000 A 
BRANCH  18  21
ATOM     21  C   UNL     1       7.561   4.826  17.953  0.00  0.00    +0.000 C 
ATOM     22  O   UNL     1       7.998   4.397  16.899  0.00  0.00    +0.000 OA
BRANCH  21  23
ATOM     23  O   UNL     1       8.290   4.883  19.088  0.00  0.00    +0.000 OA
ATOM     24  H   UNL     1       7.788   4.626  19.891  0.00  0.00    +0.000 HD
ENDBRANCH  21  23
ENDBRANCH  18  21
BRANCH  19  25
ATOM     25  O   UNL     1       6.268   6.657  16.066  0.00  0.00    +0.000 OA
ATOM     26  H   UNL     1       7.042   7.166  16.383  0.00  0.00    +0.000 HD
ENDBRANCH  19  25
ENDBRANCH   1  15
TORSDOF 5
ENDMDL
MODEL 8
REMARK VINA RESULT:      -7.0      2.126      2.622
REMARK  Name = 
REMARK  5 active torsions:
REMARK  status: ('A' for Active; 'I' for Inactive)
REMARK    1  A    between atoms: C_10  and  N_11
REMARK    2  A    between atoms: N_11  and  C_12
REMARK    3  A    between atoms: C_15  and  C_16
REMARK    4  A    between atoms: C_16  and  O_18
REMARK    5  A    between atoms: C_19  and  O_20
REMARK                            x       y       z     vdW  Elec       q    Type
REMARK                         _______ _______ _______ _____ _____    ______ ____
ROOT
ATOM      1  N   UNL     1       2.641   7.271  18.884  0.00  0.00    +0.000 N 
ATOM      2  H   UNL     1       3.035   7.831  18.123  0.00  0.00    +0.000 HD
ENDROOT
BRANCH   1  12
ATOM      3  O   UNL     1       2.054   9.595  17.419  0.00  0.00    +0.000 OA
ATOM      4  C   UNL     1       1.352   9.934  18.367  0.00  0.00    +0.000 C 
ATOM      5  N   UNL     1       0.609  11.087  18.336  0.00  0.00    +0.000 N 
ATOM      6  C   UNL     1      -0.171  11.573  19.341  0.00  0.00    +0.000 C 
ATOM      7  S   UNL     1      -1.026  12.986  19.167  0.00  0.00    +0.000 S 
ATOM      8  N   UNL     1      -0.222  10.854  20.495  0.00  0.00    +0.000 N 
ATOM      9  C   UNL     1       0.420   9.669  20.742  0.00  0.00    +0.000 C 
ATOM     10  O   UNL     1       0.305   9.098  21.820  0.00  0.00    +0.000 OA
ATOM     11  C   UNL     1       1.235   9.154  19.617  0.00  0.00    +0.000 C 
ATOM     12  C   UNL     1       1.846   7.964  19.768  0.00  0.00    +0.000 C 
ATOM     13  H   UNL     1       0.665  11.625  17.480  0.00  0.00    +0.000 HD
ATOM     14  H   UNL     1      -0.790  11.211  21.253  0.00  0.00    +0.000 HD
ENDBRANCH   1  12
BRANCH   1  15
ATOM     15  C   UNL     1       3.011   5.914  18.919  0.00  0.00    +0.000 A 
ATOM     16  C   UNL     1       2.087   4.871  19.081  0.00  0.00    +0.000 A 
ATOM     17  C   UNL     1       2.497   3.537  19.170  0.00  0.00    +0.000 A 
ATOM     18  C   UNL     1       3.851   3.212  19.092  0.00  0.00    +0.000 A 
ATOM     19  C   UNL     1       4.781   4.240  18.926  0.00  0.00    +0.000 A 
ATOM     20  C   UNL     1       4.370   5.573  18.828  0.00  0.00    +0.000 A 
BRANCH  18  21
ATOM     21  C   UNL     1       4.224   1.781  19.204  0.00  0.00    +0.000 C 
ATOM     22  O   UNL     1       3.734   0.913  18.503  0.00  0.00    +0.000 OA
BRANCH  21  23
ATOM     23  O   UNL     1       5.172   1.535  20.133  0.00  0.00    +0.000 OA
ATOM     24  H   UNL     1       5.972   2.096  20.038  0.00  0.00    +0.000 HD
ENDBRANCH  21  23
ENDBRANCH  18  21
BRANCH  19  25
ATOM     25  O   UNL     1       6.124   3.986  18.857  0.00  0.00    +0.000 OA
ATOM     26  H   UNL     1       6.459   3.988  19.777  0.00  0.00    +0.000 HD
ENDBRANCH  19  25
ENDBRANCH   1  15
TORSDOF 5
ENDMDL
MODEL 9
REMARK VINA RESULT:      -7.0      2.060      3.068
REMARK  Name = 
REMARK  5 active torsions:
REMARK  status: ('A' for Active; 'I' for Inactive)
REMARK    1  A    between atoms: C_10  and  N_11
REMARK    2  A    between atoms: N_11  and  C_12
REMARK    3  A    between atoms: C_15  and  C_16
REMARK    4  A    between atoms: C_16  and  O_18
REMARK    5  A    between atoms: C_19  and  O_20
REMARK                            x       y       z     vdW  Elec       q    Type
REMARK                         _______ _______ _______ _____ _____    ______ ____
ROOT
ATOM      1  N   UNL     1       2.057   7.056  20.271  0.00  0.00    +0.000 N 
ATOM      2  H   UNL     1       1.673   7.217  21.205  0.00  0.00    +0.000 HD
ENDROOT
BRANCH   1  12
ATOM      3  O   UNL     1      -0.009   8.567  21.427  0.00  0.00    +0.000 OA
ATOM      4  C   UNL     1       0.202   9.401  20.552  0.00  0.00    +0.000 C 
ATOM      5  N   UNL     1      -0.479  10.592  20.513  0.00  0.00    +0.000 N 
ATOM      6  C   UNL     1      -0.349  11.567  19.570  0.00  0.00    +0.000 C 
ATOM      7  S   UNL     1      -1.236  12.968  19.647  0.00  0.00    +0.000 S 
ATOM      8  N   UNL     1       0.538  11.347  18.562  0.00  0.00    +0.000 N 
ATOM      9  C   UNL     1       1.337  10.243  18.410  0.00  0.00    +0.000 C 
ATOM     10  O   UNL     1       2.107  10.143  17.464  0.00  0.00    +0.000 OA
ATOM     11  C   UNL     1       1.192   9.217  19.469  0.00  0.00    +0.000 C 
ATOM     12  C   UNL     1       1.988   8.133  19.417  0.00  0.00    +0.000 C 
ATOM     13  H   UNL     1      -1.149  10.741  21.257  0.00  0.00    +0.000 HD
ATOM     14  H   UNL     1       0.635  12.060  17.850  0.00  0.00    +0.000 HD
ENDBRANCH   1  12
BRANCH   1  15
ATOM     15  C   UNL     1       2.545   5.762  20.009  0.00  0.00    +0.000 A 
ATOM     16  C   UNL     1       1.780   4.602  20.196  0.00  0.00    +0.000 A 
ATOM     17  C   UNL     1       2.317   3.328  19.980  0.00  0.00    +0.000 A 
ATOM     18  C   UNL     1       3.640   3.186  19.564  0.00  0.00    +0.000 A 
ATOM     19  C   UNL     1       4.412   4.333  19.371  0.00  0.00    +0.000 A 
ATOM     20  C   UNL     1       3.872   5.607  19.577  0.00  0.00    +0.000 A 
BRANCH  18  21
ATOM     21  C   UNL     1       4.156   1.810  19.364  0.00  0.00    +0.000 C 
ATOM     22  O   UNL     1       3.691   1.043  18.539  0.00  0.00    +0.000 OA
BRANCH  21  23
ATOM     23  O   UNL     1       5.201   1.497  20.160  0.00  0.00    +0.000 OA
ATOM     24  H   UNL     1       4.939   1.240  21.070  0.00  0.00    +0.000 HD
ENDBRANCH  21  23
ENDBRANCH  18  21
BRANCH  19  25
ATOM     25  O   UNL     1       5.720   4.258  18.977  0.00  0.00    +0.000 OA
ATOM     26  H   UNL     1       6.246   4.066  19.781  0.00  0.00    +0.000 HD
ENDBRANCH  19  25
ENDBRANCH   1  15
TORSDOF 5
ENDMDL
