MODEL 1
REMARK VINA RESULT:      -8.9      0.000      0.000
REMARK  Name = 
REMARK  6 active torsions:
REMARK  status: ('A' for Active; 'I' for Inactive)
REMARK    1  A    between atoms: C_1  and  O_2
REMARK    2  A    between atoms: O_2  and  C_3
REMARK    3  A    between atoms: C_3  and  C_5
REMARK    4  A    between atoms: C_6  and  C_7
REMARK    5  A    between atoms: C_11  and  C_12
REMARK    6  A    between atoms: C_19  and  N_20
REMARK                            x       y       z     vdW  Elec       q    Type
REMARK                         _______ _______ _______ _____ _____    ______ ____
ROOT
ATOM      1  C   UNL     1       2.116   7.047  18.988  0.00  0.00    +0.000 A 
ATOM      2  C   UNL     1       1.695   6.941  20.332  0.00  0.00    +0.000 A 
ATOM      3  C   UNL     1       1.195   8.029  21.022  0.00  0.00    +0.000 A 
ATOM      4  C   UNL     1       1.149   9.261  20.385  0.00  0.00    +0.000 A 
ATOM      5  C   UNL     1       0.876  10.426  21.197  0.00  0.00    +0.000 A 
ATOM      6  O   UNL     1       0.384  10.365  22.313  0.00  0.00    +0.000 OA
ATOM      7  C   UNL     1       1.243  11.701  20.616  0.00  0.00    +0.000 A 
ATOM      8  C   UNL     1       1.224  11.830  19.282  0.00  0.00    +0.000 A 
ATOM      9  O   UNL     1       1.338  10.687  18.440  0.00  0.00    +0.000 OA
ATOM     10  C   UNL     1       1.491   9.439  19.049  0.00  0.00    +0.000 A 
ATOM     11  C   UNL     1       1.986   8.319  18.349  0.00  0.00    +0.000 A 
ENDROOT
BRANCH   1  16
ATOM     12  C   UNL     1       4.421   4.813  16.885  0.00  0.00    +0.000 A 
ATOM     13  C   UNL     1       3.733   3.600  16.941  0.00  0.00    +0.000 A 
ATOM     14  C   UNL     1       2.555   3.488  17.681  0.00  0.00    +0.000 A 
ATOM     15  C   UNL     1       2.035   4.591  18.371  0.00  0.00    +0.000 A 
ATOM     16  C   UNL     1       2.689   5.831  18.346  0.00  0.00    +0.000 A 
ATOM     17  C   UNL     1       3.888   5.909  17.589  0.00  0.00    +0.000 A 
BRANCH  12  19
ATOM     18  C   UNL     1       5.643   4.692  14.703  0.00  0.00    +0.000 C 
ATOM     19  C   UNL     1       5.617   4.911  16.031  0.00  0.00    +0.000 C 
BRANCH  18  20
ATOM     20  C   UNL     1       6.917   4.800  13.962  0.00  0.00    +0.000 C 
ATOM     21  O   UNL     1       7.863   5.493  14.288  0.00  0.00    +0.000 OA
BRANCH  20  23
ATOM     22  C   UNL     1       5.538   3.476  12.618  0.00  0.00    +0.000 C 
ATOM     23  O   UNL     1       6.845   3.986  12.874  0.00  0.00    +0.000 OA
ENDBRANCH  20  23
ENDBRANCH  18  20
ENDBRANCH  12  19
ENDBRANCH   1  16
BRANCH   8  24
ATOM     24  N   UNL     1       1.062  13.106  18.721  0.00  0.00    +0.000 N 
ATOM     25  C   UNL     1       2.127  13.993  18.229  0.00  0.00    +0.000 C 
ATOM     26  C   UNL     1       2.005  15.341  18.970  0.00  0.00    +0.000 C 
ATOM     27  O   UNL     1       0.703  15.945  18.804  0.00  0.00    +0.000 OA
ATOM     28  C   UNL     1      -0.340  15.049  19.225  0.00  0.00    +0.000 C 
ATOM     29  C   UNL     1      -0.260  13.735  18.446  0.00  0.00    +0.000 C 
ENDBRANCH   8  24
TORSDOF 5
ENDMDL
MODEL 2
REMARK VINA RESULT:      -8.5      2.125      3.205
REMARK  Name = 
REMARK  6 active torsions:
REMARK  status: ('A' for Active; 'I' for Inactive)
REMARK    1  A    between atoms: C_1  and  O_2
REMARK    2  A    between atoms: O_2  and  C_3
REMARK    3  A    between atoms: C_3  and  C_5
REMARK    4  A    between atoms: C_6  and  C_7
REMARK    5  A    between atoms: C_11  and  C_12
REMARK    6  A    between atoms: C_19  and  N_20
REMARK                            x       y       z     vdW  Elec       q    Type
REMARK                         _______ _______ _______ _____ _____    ______ ____
ROOT
ATOM      1  C   UNL     1       2.148   7.965  18.877  0.00  0.00    +0.000 A 
ATOM      2  C   UNL     1       2.343   8.868  17.809  0.00  0.00    +0.000 A 
ATOM      3  C   UNL     1       1.928  10.183  17.888  0.00  0.00    +0.000 A 
ATOM      4  C   UNL     1       1.266  10.608  19.032  0.00  0.00    +0.000 A 
ATOM      5  C   UNL     1       0.614  11.897  18.990  0.00  0.00    +0.000 A 
ATOM      6  O   UNL     1       0.865  12.749  18.151  0.00  0.00    +0.000 OA
ATOM      7  C   UNL     1      -0.397  12.128  20.002  0.00  0.00    +0.000 A 
ATOM      8  C   UNL     1      -0.274  11.509  21.185  0.00  0.00    +0.000 A 
ATOM      9  O   UNL     1       0.489  10.313  21.304  0.00  0.00    +0.000 OA
ATOM     10  C   UNL     1       1.084   9.800  20.149  0.00  0.00    +0.000 A 
ATOM     11  C   UNL     1       1.525   8.463  20.063  0.00  0.00    +0.000 A 
ENDROOT
BRANCH   1  16
ATOM     12  C   UNL     1       3.931   4.906  17.397  0.00  0.00    +0.000 A 
ATOM     13  C   UNL     1       3.319   3.875  18.112  0.00  0.00    +0.000 A 
ATOM     14  C   UNL     1       2.366   4.160  19.091  0.00  0.00    +0.000 A 
ATOM     15  C   UNL     1       1.998   5.484  19.368  0.00  0.00    +0.000 A 
ATOM     16  C   UNL     1       2.583   6.554  18.677  0.00  0.00    +0.000 A 
ATOM     17  C   UNL     1       3.554   6.228  17.691  0.00  0.00    +0.000 A 
BRANCH  12  19
ATOM     18  C   UNL     1       5.978   5.256  15.998  0.00  0.00    +0.000 C 
ATOM     19  C   UNL     1       4.872   4.559  16.319  0.00  0.00    +0.000 C 
BRANCH  18  20
ATOM     20  C   UNL     1       6.829   4.815  14.875  0.00  0.00    +0.000 C 
ATOM     21  O   UNL     1       7.827   5.390  14.480  0.00  0.00    +0.000 OA
BRANCH  20  23
ATOM     22  C   UNL     1       6.151   3.657  12.961  0.00  0.00    +0.000 C 
ATOM     23  O   UNL     1       6.311   3.658  14.378  0.00  0.00    +0.000 OA
ENDBRANCH  20  23
ENDBRANCH  18  20
ENDBRANCH  12  19
ENDBRANCH   1  16
BRANCH   8  24
ATOM     24  N   UNL     1      -0.888  12.070  22.316  0.00  0.00    +0.000 N 
ATOM     25  C   UNL     1      -1.693  11.362  23.323  0.00  0.00    +0.000 C 
ATOM     26  C   UNL     1      -3.069  12.054  23.404  0.00  0.00    +0.000 C 
ATOM     27  O   UNL     1      -2.962  13.461  23.715  0.00  0.00    +0.000 OA
ATOM     28  C   UNL     1      -2.120  14.137  22.766  0.00  0.00    +0.000 C 
ATOM     29  C   UNL     1      -0.733  13.493  22.729  0.00  0.00    +0.000 C 
ENDBRANCH   8  24
TORSDOF 5
ENDMDL
MODEL 3
REMARK VINA RESULT:      -8.5      2.585      3.620
REMARK  Name = 
REMARK  6 active torsions:
REMARK  status: ('A' for Active; 'I' for Inactive)
REMARK    1  A    between atoms: C_1  and  O_2
REMARK    2  A    between atoms: O_2  and  C_3
REMARK    3  A    between atoms: C_3  and  C_5
REMARK    4  A    between atoms: C_6  and  C_7
REMARK    5  A    between atoms: C_11  and  C_12
REMARK    6  A    between atoms: C_19  and  N_20
REMARK                            x       y       z     vdW  Elec       q    Type
REMARK                         _______ _______ _______ _____ _____    ______ ____
ROOT
ATOM      1  C   UNL     1       1.813   7.726  19.931  0.00  0.00    +0.000 A 
ATOM      2  C   UNL     1       1.959   8.420  18.710  0.00  0.00    +0.000 A 
ATOM      3  C   UNL     1       1.479   9.705  18.546  0.00  0.00    +0.000 A 
ATOM      4  C   UNL     1       0.800  10.304  19.598  0.00  0.00    +0.000 A 
ATOM      5  C   UNL     1       0.084  11.530  19.322  0.00  0.00    +0.000 A 
ATOM      6  O   UNL     1       0.289  12.220  18.336  0.00  0.00    +0.000 OA
ATOM      7  C   UNL     1      -0.934  11.897  20.286  0.00  0.00    +0.000 A 
ATOM      8  C   UNL     1      -0.777  11.519  21.563  0.00  0.00    +0.000 A 
ATOM      9  O   UNL     1       0.046  10.405  21.894  0.00  0.00    +0.000 OA
ATOM     10  C   UNL     1       0.662   9.713  20.849  0.00  0.00    +0.000 A 
ATOM     11  C   UNL     1       1.169   8.407  21.010  0.00  0.00    +0.000 A 
ENDROOT
BRANCH   1  16
ATOM     12  C   UNL     1       3.888   4.591  19.158  0.00  0.00    +0.000 A 
ATOM     13  C   UNL     1       3.213   3.636  19.919  0.00  0.00    +0.000 A 
ATOM     14  C   UNL     1       2.119   4.001  20.706  0.00  0.00    +0.000 A 
ATOM     15  C   UNL     1       1.673   5.329  20.740  0.00  0.00    +0.000 A 
ATOM     16  C   UNL     1       2.317   6.325  19.994  0.00  0.00    +0.000 A 
ATOM     17  C   UNL     1       3.430   5.920  19.208  0.00  0.00    +0.000 A 
BRANCH  12  19
ATOM     18  C   UNL     1       5.959   4.946  17.796  0.00  0.00    +0.000 C 
ATOM     19  C   UNL     1       4.987   4.152  18.281  0.00  0.00    +0.000 C 
BRANCH  18  20
ATOM     20  C   UNL     1       6.993   4.385  16.903  0.00  0.00    +0.000 C 
ATOM     21  O   UNL     1       8.170   4.251  17.187  0.00  0.00    +0.000 OA
BRANCH  20  23
ATOM     22  C   UNL     1       6.844   4.802  14.608  0.00  0.00    +0.000 C 
ATOM     23  O   UNL     1       6.399   4.040  15.729  0.00  0.00    +0.000 OA
ENDBRANCH  20  23
ENDBRANCH  18  20
ENDBRANCH  12  19
ENDBRANCH   1  16
BRANCH   8  24
ATOM     24  N   UNL     1      -1.414  12.252  22.576  0.00  0.00    +0.000 N 
ATOM     25  C   UNL     1      -2.557  11.816  23.392  0.00  0.00    +0.000 C 
ATOM     26  C   UNL     1      -3.680  12.863  23.235  0.00  0.00    +0.000 C 
ATOM     27  O   UNL     1      -3.251  14.192  23.604  0.00  0.00    +0.000 OA
ATOM     28  C   UNL     1      -2.093  14.588  22.851  0.00  0.00    +0.000 C 
ATOM     29  C   UNL     1      -0.955  13.586  23.055  0.00  0.00    +0.000 C 
ENDBRANCH   8  24
TORSDOF 5
ENDMDL
MODEL 4
REMARK VINA RESULT:      -8.2      1.728      2.496
REMARK  Name = 
REMARK  6 active torsions:
REMARK  status: ('A' for Active; 'I' for Inactive)
REMARK    1  A    between atoms: C_1  and  O_2
REMARK    2  A    between atoms: O_2  and  C_3
REMARK    3  A    between atoms: C_3  and  C_5
REMARK    4  A    between atoms: C_6  and  C_7
REMARK    5  A    between atoms: C_11  and  C_12
REMARK    6  A    between atoms: C_19  and  N_20
REMARK                            x       y       z     vdW  Elec       q    Type
REMARK                         _______ _______ _______ _____ _____    ______ ____
ROOT
ATOM      1  C   UNL     1       3.783   6.634  18.169  0.00  0.00    +0.000 A 
ATOM      2  C   UNL     1       3.302   6.029  19.351  0.00  0.00    +0.000 A 
ATOM      3  C   UNL     1       2.322   6.624  20.121  0.00  0.00    +0.000 A 
ATOM      4  C   UNL     1       1.833   7.865  19.739  0.00  0.00    +0.000 A 
ATOM      5  C   UNL     1       1.010   8.583  20.687  0.00  0.00    +0.000 A 
ATOM      6  O   UNL     1       0.472   8.052  21.645  0.00  0.00    +0.000 OA
ATOM      7  C   UNL     1       0.870  10.006  20.452  0.00  0.00    +0.000 A 
ATOM      8  C   UNL     1       0.943  10.460  19.193  0.00  0.00    +0.000 A 
ATOM      9  O   UNL     1       1.616   9.709  18.188  0.00  0.00    +0.000 OA
ATOM     10  C   UNL     1       2.211   8.501  18.562  0.00  0.00    +0.000 A 
ATOM     11  C   UNL     1       3.202   7.879  17.775  0.00  0.00    +0.000 A 
ENDROOT
BRANCH   1  16
ATOM     12  C   UNL     1       5.621   4.646  15.448  0.00  0.00    +0.000 A 
ATOM     13  C   UNL     1       6.858   4.445  16.062  0.00  0.00    +0.000 A 
ATOM     14  C   UNL     1       7.116   4.975  17.327  0.00  0.00    +0.000 A 
ATOM     15  C   UNL     1       6.137   5.710  18.008  0.00  0.00    +0.000 A 
ATOM     16  C   UNL     1       4.879   5.940  17.435  0.00  0.00    +0.000 A 
ATOM     17  C   UNL     1       4.651   5.391  16.144  0.00  0.00    +0.000 A 
BRANCH  12  19
ATOM     18  C   UNL     1       6.297   3.702  13.230  0.00  0.00    +0.000 C 
ATOM     19  C   UNL     1       5.361   4.004  14.148  0.00  0.00    +0.000 C 
BRANCH  18  20
ATOM     20  C   UNL     1       5.902   3.078  11.951  0.00  0.00    +0.000 C 
ATOM     21  O   UNL     1       4.797   3.151  11.444  0.00  0.00    +0.000 OA
BRANCH  20  23
ATOM     22  C   UNL     1       6.709   1.098  11.008  0.00  0.00    +0.000 C 
ATOM     23  O   UNL     1       6.984   2.427  11.444  0.00  0.00    +0.000 OA
ENDBRANCH  20  23
ENDBRANCH  18  20
ENDBRANCH  12  19
ENDBRANCH   1  16
BRANCH   8  24
ATOM     24  N   UNL     1       0.324  11.677  18.868  0.00  0.00    +0.000 N 
ATOM     25  C   UNL     1       0.984  12.976  18.670  0.00  0.00    +0.000 C 
ATOM     26  C   UNL     1       0.336  13.991  19.635  0.00  0.00    +0.000 C 
ATOM     27  O   UNL     1      -1.092  14.097  19.446  0.00  0.00    +0.000 OA
ATOM     28  C   UNL     1      -1.727  12.813  19.575  0.00  0.00    +0.000 C 
ATOM     29  C   UNL     1      -1.130  11.820  18.576  0.00  0.00    +0.000 C 
ENDBRANCH   8  24
TORSDOF 5
ENDMDL
MODEL 5
REMARK VINA RESULT:      -8.2      2.904      4.055
REMARK  Name = 
REMARK  6 active torsions:
REMARK  status: ('A' for Active; 'I' for Inactive)
REMARK    1  A    between atoms: C_1  and  O_2
REMARK    2  A    between atoms: O_2  and  C_3
REMARK    3  A    between atoms: C_3  and  C_5
REMARK    4  A    between atoms: C_6  and  C_7
REMARK    5  A    between atoms: C_11  and  C_12
REMARK    6  A    between atoms: C_19  and  N_20
REMARK                            x       y       z     vdW  Elec       q    Type
REMARK                         _______ _______ _______ _____ _____    ______ ____
ROOT
ATOM      1  C   UNL     1       1.550   8.180  19.912  0.00  0.00    +0.000 A 
ATOM      2  C   UNL     1       1.478   8.829  18.660  0.00  0.00    +0.000 A 
ATOM      3  C   UNL     1       0.842  10.047  18.513  0.00  0.00    +0.000 A 
ATOM      4  C   UNL     1       0.226  10.618  19.618  0.00  0.00    +0.000 A 
ATOM      5  C   UNL     1      -0.649  11.746  19.391  0.00  0.00    +0.000 A 
ATOM      6  O   UNL     1      -0.636  12.409  18.365  0.00  0.00    +0.000 OA
ATOM      7  C   UNL     1      -1.584  12.046  20.456  0.00  0.00    +0.000 A 
ATOM      8  C   UNL     1      -1.240  11.745  21.716  0.00  0.00    +0.000 A 
ATOM      9  O   UNL     1      -0.266  10.741  21.983  0.00  0.00    +0.000 OA
ATOM     10  C   UNL     1       0.299  10.072  20.895  0.00  0.00    +0.000 A 
ATOM     11  C   UNL     1       0.963   8.836  21.037  0.00  0.00    +0.000 A 
ENDROOT
BRANCH   1  16
ATOM     12  C   UNL     1       4.100   5.382  19.279  0.00  0.00    +0.000 A 
ATOM     13  C   UNL     1       3.439   4.292  19.846  0.00  0.00    +0.000 A 
ATOM     14  C   UNL     1       2.198   4.458  20.463  0.00  0.00    +0.000 A 
ATOM     15  C   UNL     1       1.588   5.719  20.515  0.00  0.00    +0.000 A 
ATOM     16  C   UNL     1       2.211   6.845  19.959  0.00  0.00    +0.000 A 
ATOM     17  C   UNL     1       3.476   6.641  19.345  0.00  0.00    +0.000 A 
BRANCH  12  19
ATOM     18  C   UNL     1       5.876   5.940  17.604  0.00  0.00    +0.000 C 
ATOM     19  C   UNL     1       5.370   5.150  18.569  0.00  0.00    +0.000 C 
BRANCH  18  20
ATOM     20  C   UNL     1       7.152   5.583  16.952  0.00  0.00    +0.000 C 
ATOM     21  O   UNL     1       7.585   4.452  16.825  0.00  0.00    +0.000 OA
BRANCH  20  23
ATOM     22  C   UNL     1       7.737   7.784  17.475  0.00  0.00    +0.000 C 
ATOM     23  O   UNL     1       7.741   6.729  16.515  0.00  0.00    +0.000 OA
ENDBRANCH  20  23
ENDBRANCH  18  20
ENDBRANCH  12  19
ENDBRANCH   1  16
BRANCH   8  24
ATOM     24  N   UNL     1      -1.834  12.451  22.774  0.00  0.00    +0.000 N 
ATOM     25  C   UNL     1      -3.008  12.038  23.559  0.00  0.00    +0.000 C 
ATOM     26  C   UNL     1      -4.060  13.163  23.469  0.00  0.00    +0.000 C 
ATOM     27  O   UNL     1      -3.548  14.435  23.923  0.00  0.00    +0.000 OA
ATOM     28  C   UNL     1      -2.363  14.804  23.198  0.00  0.00    +0.000 C 
ATOM     29  C   UNL     1      -1.293  13.719  23.338  0.00  0.00    +0.000 C 
ENDBRANCH   8  24
TORSDOF 5
ENDMDL
MODEL 6
REMARK VINA RESULT:      -8.0      1.420      1.819
REMARK  Name = 
REMARK  6 active torsions:
REMARK  status: ('A' for Active; 'I' for Inactive)
REMARK    1  A    between atoms: C_1  and  O_2
REMARK    2  A    between atoms: O_2  and  C_3
REMARK    3  A    between atoms: C_3  and  C_5
REMARK    4  A    between atoms: C_6  and  C_7
REMARK    5  A    between atoms: C_11  and  C_12
REMARK    6  A    between atoms: C_19  and  N_20
REMARK                            x       y       z     vdW  Elec       q    Type
REMARK                         _______ _______ _______ _____ _____    ______ ____
ROOT
ATOM      1  C   UNL     1       1.635   7.201  20.304  0.00  0.00    +0.000 A 
ATOM      2  C   UNL     1       0.825   7.354  21.451  0.00  0.00    +0.000 A 
ATOM      3  C   UNL     1       0.250   8.568  21.773  0.00  0.00    +0.000 A 
ATOM      4  C   UNL     1       0.512   9.667  20.967  0.00  0.00    +0.000 A 
ATOM      5  C   UNL     1       0.122  10.969  21.461  0.00  0.00    +0.000 A 
ATOM      6  O   UNL     1      -0.682  11.130  22.366  0.00  0.00    +0.000 OA
ATOM      7  C   UNL     1       0.765  12.103  20.829  0.00  0.00    +0.000 A 
ATOM      8  C   UNL     1       1.155  11.992  19.551  0.00  0.00    +0.000 A 
ATOM      9  O   UNL     1       1.404  10.713  18.977  0.00  0.00    +0.000 OA
ATOM     10  C   UNL     1       1.250   9.589  19.791  0.00  0.00    +0.000 A 
ATOM     11  C   UNL     1       1.822   8.342  19.464  0.00  0.00    +0.000 A 
ENDROOT
BRANCH   1  16
ATOM     12  C   UNL     1       4.142   4.526  19.170  0.00  0.00    +0.000 A 
ATOM     13  C   UNL     1       3.416   3.362  19.422  0.00  0.00    +0.000 A 
ATOM     14  C   UNL     1       2.142   3.430  19.988  0.00  0.00    +0.000 A 
ATOM     15  C   UNL     1       1.565   4.668  20.304  0.00  0.00    +0.000 A 
ATOM     16  C   UNL     1       2.254   5.866  20.070  0.00  0.00    +0.000 A 
ATOM     17  C   UNL     1       3.551   5.759  19.498  0.00  0.00    +0.000 A 
BRANCH  12  19
ATOM     18  C   UNL     1       5.856   5.165  17.459  0.00  0.00    +0.000 C 
ATOM     19  C   UNL     1       5.450   4.415  18.500  0.00  0.00    +0.000 C 
BRANCH  18  20
ATOM     20  C   UNL     1       7.186   4.938  16.860  0.00  0.00    +0.000 C 
ATOM     21  O   UNL     1       8.104   4.340  17.392  0.00  0.00    +0.000 OA
BRANCH  20  23
ATOM     22  C   UNL     1       6.087   5.118  14.805  0.00  0.00    +0.000 C 
ATOM     23  O   UNL     1       7.195   5.498  15.619  0.00  0.00    +0.000 OA
ENDBRANCH  20  23
ENDBRANCH  18  20
ENDBRANCH  12  19
ENDBRANCH   1  16
BRANCH   8  24
ATOM     24  N   UNL     1       1.289  13.153  18.774  0.00  0.00    +0.000 N 
ATOM     25  C   UNL     1       2.485  13.585  18.035  0.00  0.00    +0.000 C 
ATOM     26  C   UNL     1       2.855  15.004  18.516  0.00  0.00    +0.000 C 
ATOM     27  O   UNL     1       1.770  15.943  18.349  0.00  0.00    +0.000 OA
ATOM     28  C   UNL     1       0.583  15.485  19.017  0.00  0.00    +0.000 C 
ATOM     29  C   UNL     1       0.176  14.105  18.497  0.00  0.00    +0.000 C 
ENDBRANCH   8  24
TORSDOF 5
ENDMDL
MODEL 7
REMARK VINA RESULT:      -8.0      1.900      2.769
REMARK  Name = 
REMARK  6 active torsions:
REMARK  status: ('A' for Active; 'I' for Inactive)
REMARK    1  A    between atoms: C_1  and  O_2
REMARK    2  A    between atoms: O_2  and  C_3
REMARK    3  A    between atoms: C_3  and  C_5
REMARK    4  A    between atoms: C_6  and  C_7
REMARK    5  A    between atoms: C_11  and  C_12
REMARK    6  A    between atoms: C_19  and  N_20
REMARK                            x       y       z     vdW  Elec       q    Type
REMARK                         _______ _______ _______ _____ _____    ______ ____
ROOT
ATOM      1  C   UNL     1       4.059   6.336  18.381  0.00  0.00    +0.000 A 
ATOM      2  C   UNL     1       3.580   5.702  19.549  0.00  0.00    +0.000 A 
ATOM      3  C   UNL     1       2.506   6.206  20.256  0.00  0.00    +0.000 A 
ATOM      4  C   UNL     1       1.915   7.385  19.825  0.00  0.00    +0.000 A 
ATOM      5  C   UNL     1       0.976   8.030  20.716  0.00  0.00    +0.000 A 
ATOM      6  O   UNL     1       0.444   7.460  21.656  0.00  0.00    +0.000 OA
ATOM      7  C   UNL     1       0.706   9.427  20.446  0.00  0.00    +0.000 A 
ATOM      8  C   UNL     1       0.799   9.868  19.184  0.00  0.00    +0.000 A 
ATOM      9  O   UNL     1       1.596   9.175  18.229  0.00  0.00    +0.000 OA
ATOM     10  C   UNL     1       2.289   8.040  18.657  0.00  0.00    +0.000 A 
ATOM     11  C   UNL     1       3.378   7.509  17.934  0.00  0.00    +0.000 A 
ENDROOT
BRANCH   1  16
ATOM     12  C   UNL     1       6.362   4.956  15.638  0.00  0.00    +0.000 A 
ATOM     13  C   UNL     1       7.417   4.462  16.406  0.00  0.00    +0.000 A 
ATOM     14  C   UNL     1       7.410   4.603  17.795  0.00  0.00    +0.000 A 
ATOM     15  C   UNL     1       6.339   5.233  18.444  0.00  0.00    +0.000 A 
ATOM     16  C   UNL     1       5.256   5.746  17.718  0.00  0.00    +0.000 A 
ATOM     17  C   UNL     1       5.299   5.591  16.306  0.00  0.00    +0.000 A 
BRANCH  12  19
ATOM     18  C   UNL     1       6.096   3.543  13.588  0.00  0.00    +0.000 C 
ATOM     19  C   UNL     1       6.370   4.718  14.184  0.00  0.00    +0.000 C 
BRANCH  18  20
ATOM     20  C   UNL     1       6.163   3.429  12.117  0.00  0.00    +0.000 C 
ATOM     21  O   UNL     1       7.009   3.943  11.409  0.00  0.00    +0.000 OA
BRANCH  20  23
ATOM     22  C   UNL     1       4.039   3.375  11.142  0.00  0.00    +0.000 C 
ATOM     23  O   UNL     1       5.128   2.646  11.705  0.00  0.00    +0.000 OA
ENDBRANCH  20  23
ENDBRANCH  18  20
ENDBRANCH  12  19
ENDBRANCH   1  16
BRANCH   8  24
ATOM     24  N   UNL     1       0.078  11.011  18.804  0.00  0.00    +0.000 N 
ATOM     25  C   UNL     1       0.525  12.409  18.905  0.00  0.00    +0.000 C 
ATOM     26  C   UNL     1      -0.519  13.184  19.735  0.00  0.00    +0.000 C 
ATOM     27  O   UNL     1      -1.846  13.099  19.170  0.00  0.00    +0.000 OA
ATOM     28  C   UNL     1      -2.254  11.730  19.011  0.00  0.00    +0.000 C 
ATOM     29  C   UNL     1      -1.253  10.973  18.135  0.00  0.00    +0.000 C 
ENDBRANCH   8  24
TORSDOF 5
ENDMDL
MODEL 8
REMARK VINA RESULT:      -8.0      3.736      9.528
REMARK  Name = 
REMARK  6 active torsions:
REMARK  status: ('A' for Active; 'I' for Inactive)
REMARK    1  A    between atoms: C_1  and  O_2
REMARK    2  A    between atoms: O_2  and  C_3
REMARK    3  A    between atoms: C_3  and  C_5
REMARK    4  A    between atoms: C_6  and  C_7
REMARK    5  A    between atoms: C_11  and  C_12
REMARK    6  A    between atoms: C_19  and  N_20
REMARK                            x       y       z     vdW  Elec       q    Type
REMARK                         _______ _______ _______ _____ _____    ______ ____
ROOT
ATOM      1  C   UNL     1       1.163   9.162  19.436  0.00  0.00    +0.000 A 
ATOM      2  C   UNL     1       0.764   8.457  20.593  0.00  0.00    +0.000 A 
ATOM      3  C   UNL     1       1.304   7.226  20.911  0.00  0.00    +0.000 A 
ATOM      4  C   UNL     1       2.228   6.657  20.046  0.00  0.00    +0.000 A 
ATOM      5  C   UNL     1       2.578   5.269  20.256  0.00  0.00    +0.000 A 
ATOM      6  O   UNL     1       2.363   4.674  21.301  0.00  0.00    +0.000 OA
ATOM      7  C   UNL     1       3.190   4.594  19.131  0.00  0.00    +0.000 A 
ATOM      8  C   UNL     1       3.919   5.316  18.267  0.00  0.00    +0.000 A 
ATOM      9  O   UNL     1       3.711   6.719  18.136  0.00  0.00    +0.000 OA
ATOM     10  C   UNL     1       2.715   7.308  18.919  0.00  0.00    +0.000 A 
ATOM     11  C   UNL     1       2.168   8.571  18.610  0.00  0.00    +0.000 A 
ENDROOT
BRANCH   1  16
ATOM     12  C   UNL     1      -1.618  11.715  18.748  0.00  0.00    +0.000 A 
ATOM     13  C   UNL     1      -0.864  12.845  18.428  0.00  0.00    +0.000 A 
ATOM     14  C   UNL     1       0.530  12.800  18.469  0.00  0.00    +0.000 A 
ATOM     15  C   UNL     1       1.199  11.620  18.821  0.00  0.00    +0.000 A 
ATOM     16  C   UNL     1       0.486  10.459  19.151  0.00  0.00    +0.000 A 
ATOM     17  C   UNL     1      -0.932  10.541  19.104  0.00  0.00    +0.000 A 
BRANCH  12  19
ATOM     18  C   UNL     1      -3.777  11.504  17.496  0.00  0.00    +0.000 C 
ATOM     19  C   UNL     1      -3.084  11.781  18.616  0.00  0.00    +0.000 C 
BRANCH  18  20
ATOM     20  C   UNL     1      -5.249  11.631  17.488  0.00  0.00    +0.000 C 
ATOM     21  O   UNL     1      -5.874  12.531  16.957  0.00  0.00    +0.000 OA
BRANCH  20  23
ATOM     22  C   UNL     1      -6.846  10.908  19.034  0.00  0.00    +0.000 C 
ATOM     23  O   UNL     1      -5.770  10.569  18.161  0.00  0.00    +0.000 OA
ENDBRANCH  20  23
ENDBRANCH  18  20
ENDBRANCH  12  19
ENDBRANCH   1  16
BRANCH   8  24
ATOM     24  N   UNL     1       4.911   4.676  17.508  0.00  0.00    +0.000 N 
ATOM     25  C   UNL     1       6.299   4.411  17.918  0.00  0.00    +0.000 C 
ATOM     26  C   UNL     1       7.234   5.041  16.865  0.00  0.00    +0.000 C 
ATOM     27  O   UNL     1       6.979   4.545  15.533  0.00  0.00    +0.000 OA
ATOM     28  C   UNL     1       5.605   4.747  15.161  0.00  0.00    +0.000 C 
ATOM     29  C   UNL     1       4.674   4.068  16.169  0.00  0.00    +0.000 C 
ENDBRANCH   8  24
TORSDOF 5
ENDMDL
MODEL 9
REMARK VINA RESULT:      -7.9      2.778      3.901
REMARK  Name = 
REMARK  6 active torsions:
REMARK  status: ('A' for Active; 'I' for Inactive)
REMARK    1  A    between atoms: C_1  and  O_2
REMARK    2  A    between atoms: O_2  and  C_3
REMARK    3  A    between atoms: C_3  and  C_5
REMARK    4  A    between atoms: C_6  and  C_7
REMARK    5  A    between atoms: C_11  and  C_12
REMARK    6  A    between atoms: C_19  and  N_20
REMARK                            x       y       z     vdW  Elec       q    Type
REMARK                         _______ _______ _______ _____ _____    ______ ____
ROOT
ATOM      1  C   UNL     1       1.452   8.587  19.429  0.00  0.00    +0.000 A 
ATOM      2  C   UNL     1       1.228   9.261  18.208  0.00  0.00    +0.000 A 
ATOM      3  C   UNL     1       0.506  10.437  18.153  0.00  0.00    +0.000 A 
ATOM      4  C   UNL     1      -0.044  10.940  19.324  0.00  0.00    +0.000 A 
ATOM      5  C   UNL     1      -1.006  12.013  19.207  0.00  0.00    +0.000 A 
ATOM      6  O   UNL     1      -1.126  12.700  18.205  0.00  0.00    +0.000 OA
ATOM      7  C   UNL     1      -1.859  12.226  20.359  0.00  0.00    +0.000 A 
ATOM      8  C   UNL     1      -1.387  11.917  21.575  0.00  0.00    +0.000 A 
ATOM      9  O   UNL     1      -0.331  10.973  21.726  0.00  0.00    +0.000 OA
ATOM     10  C   UNL     1       0.176  10.370  20.573  0.00  0.00    +0.000 A 
ATOM     11  C   UNL     1       0.927   9.176  20.620  0.00  0.00    +0.000 A 
ENDROOT
BRANCH   1  16
ATOM     12  C   UNL     1       3.826   5.827  18.214  0.00  0.00    +0.000 A 
ATOM     13  C   UNL     1       3.516   4.802  19.109  0.00  0.00    +0.000 A 
ATOM     14  C   UNL     1       2.577   5.006  20.121  0.00  0.00    +0.000 A 
ATOM     15  C   UNL     1       1.921   6.238  20.252  0.00  0.00    +0.000 A 
ATOM     16  C   UNL     1       2.198   7.298  19.378  0.00  0.00    +0.000 A 
ATOM     17  C   UNL     1       3.163   7.059  18.364  0.00  0.00    +0.000 A 
BRANCH  12  19
ATOM     18  C   UNL     1       5.314   4.348  16.846  0.00  0.00    +0.000 C 
ATOM     19  C   UNL     1       4.764   5.547  17.113  0.00  0.00    +0.000 C 
BRANCH  18  20
ATOM     20  C   UNL     1       6.261   4.204  15.722  0.00  0.00    +0.000 C 
ATOM     21  O   UNL     1       5.985   3.763  14.622  0.00  0.00    +0.000 OA
BRANCH  20  23
ATOM     22  C   UNL     1       7.721   4.489  17.526  0.00  0.00    +0.000 C 
ATOM     23  O   UNL     1       7.477   4.660  16.131  0.00  0.00    +0.000 OA
ENDBRANCH  20  23
ENDBRANCH  18  20
ENDBRANCH  12  19
ENDBRANCH   1  16
BRANCH   8  24
ATOM     24  N   UNL     1      -1.928  12.557  22.701  0.00  0.00    +0.000 N 
ATOM     25  C   UNL     1      -3.155  12.185  23.420  0.00  0.00    +0.000 C 
ATOM     26  C   UNL     1      -4.082  13.418  23.450  0.00  0.00    +0.000 C 
ATOM     27  O   UNL     1      -3.450  14.568  24.054  0.00  0.00    +0.000 OA
ATOM     28  C   UNL     1      -2.216  14.889  23.390  0.00  0.00    +0.000 C 
ATOM     29  C   UNL     1      -1.269  13.687  23.414  0.00  0.00    +0.000 C 
ENDBRANCH   8  24
TORSDOF 5
ENDMDL
