MODEL 1
REMARK VINA RESULT:      -7.3      0.000      0.000
REMARK  Name = 
REMARK  5 active torsions:
REMARK  status: ('A' for Active; 'I' for Inactive)
REMARK    1  A    between atoms: C_1  and  O_2
REMARK    2  A    between atoms: O_2  and  C_3
REMARK    3  A    between atoms: C_8  and  C_9
REMARK    4  A    between atoms: C_9  and  C_10
REMARK    5  A    between atoms: C_12  and  C_13
REMARK                            x       y       z     vdW  Elec       q    Type
REMARK                         _______ _______ _______ _____ _____    ______ ____
ROOT
ATOM      1  C   UNL     1       0.643   8.896  20.361  0.00  0.00    +0.000 A 
ATOM      2  C   UNL     1       0.709   9.907  19.396  0.00  0.00    +0.000 A 
ATOM      3  C   UNL     1       1.559   9.799  18.296  0.00  0.00    +0.000 A 
ATOM      4  C   UNL     1       2.373   8.674  18.123  0.00  0.00    +0.000 A 
ATOM      5  C   UNL     1       2.335   7.630  19.072  0.00  0.00    +0.000 A 
ATOM      6  C   UNL     1       3.006   6.363  19.227  0.00  0.00    +0.000 A 
ATOM      7  C   UNL     1       2.515   5.792  20.388  0.00  0.00    +0.000 A 
ATOM      8  N   UNL     1       1.597   6.647  20.935  0.00  0.00    +0.000 N 
ATOM      9  C   UNL     1       1.467   7.775  20.160  0.00  0.00    +0.000 A 
ATOM     10  H   UNL     1       1.080   6.499  21.792  0.00  0.00    +0.000 HD
ENDROOT
BRANCH   1  12
ATOM     11  C   UNL     1       0.370   9.596  22.614  0.00  0.00    +0.000 C 
ATOM     12  O   UNL     1      -0.145   8.906  21.480  0.00  0.00    +0.000 OA
ENDBRANCH   1  12
BRANCH   6  13
ATOM     13  C   UNL     1       4.021   5.759  18.391  0.00  0.00    +0.000 C 
ATOM     14  C   UNL     1       4.333   6.246  17.168  0.00  0.00    +0.000 C 
BRANCH  14  15
ATOM     15  C   UNL     1       5.287   5.656  16.221  0.00  0.00    +0.000 A 
ATOM     16  C   UNL     1       4.884   4.725  15.262  0.00  0.00    +0.000 A 
ATOM     17  C   UNL     1       5.832   4.169  14.403  0.00  0.00    +0.000 A 
ATOM     18  C   UNL     1       7.154   4.564  14.535  0.00  0.00    +0.000 A 
ATOM     19  N   UNL     1       7.581   5.459  15.451  0.00  0.00    +0.000 NA
ATOM     20  C   UNL     1       6.639   5.987  16.267  0.00  0.00    +0.000 A 
ENDBRANCH  14  15
BRANCH  13  21
ATOM     21  C   UNL     1       4.682   4.585  18.884  0.00  0.00    +0.000 C 
ATOM     22  N   UNL     1       5.228   3.645  19.293  0.00  0.00    +0.000 NA
ENDBRANCH  13  21
ENDBRANCH   6  13
TORSDOF 4
ENDMDL
MODEL 2
REMARK VINA RESULT:      -7.3      2.727      3.787
REMARK  Name = 
REMARK  5 active torsions:
REMARK  status: ('A' for Active; 'I' for Inactive)
REMARK    1  A    between atoms: C_1  and  O_2
REMARK    2  A    between atoms: O_2  and  C_3
REMARK    3  A    between atoms: C_8  and  C_9
REMARK    4  A    between atoms: C_9  and  C_10
REMARK    5  A    between atoms: C_12  and  C_13
REMARK                            x       y       z     vdW  Elec       q    Type
REMARK                         _______ _______ _______ _____ _____    ______ ____
ROOT
ATOM      1  C   UNL     1       1.775   4.233  20.235  0.00  0.00    +0.000 A 
ATOM      2  C   UNL     1       1.765   5.616  20.446  0.00  0.00    +0.000 A 
ATOM      3  C   UNL     1       2.592   6.464  19.710  0.00  0.00    +0.000 A 
ATOM      4  C   UNL     1       3.457   5.956  18.734  0.00  0.00    +0.000 A 
ATOM      5  C   UNL     1       3.497   4.567  18.488  0.00  0.00    +0.000 A 
ATOM      6  C   UNL     1       4.235   3.707  17.597  0.00  0.00    +0.000 A 
ATOM      7  C   UNL     1       3.803   2.416  17.843  0.00  0.00    +0.000 A 
ATOM      8  N   UNL     1       2.857   2.457  18.830  0.00  0.00    +0.000 N 
ATOM      9  C   UNL     1       2.650   3.751  19.245  0.00  0.00    +0.000 A 
ATOM     10  H   UNL     1       2.369   1.662  19.225  0.00  0.00    +0.000 HD
ENDROOT
BRANCH   1  12
ATOM     11  C   UNL     1       1.677   2.562  21.918  0.00  0.00    +0.000 C 
ATOM     12  O   UNL     1       1.015   3.314  20.907  0.00  0.00    +0.000 OA
ENDBRANCH   1  12
BRANCH   6  13
ATOM     13  C   UNL     1       5.258   4.052  16.633  0.00  0.00    +0.000 C 
ATOM     14  C   UNL     1       5.009   4.107  15.305  0.00  0.00    +0.000 C 
BRANCH  14  15
ATOM     15  C   UNL     1       5.997   4.368  14.251  0.00  0.00    +0.000 A 
ATOM     16  C   UNL     1       5.995   3.652  13.054  0.00  0.00    +0.000 A 
ATOM     17  C   UNL     1       6.972   3.914  12.094  0.00  0.00    +0.000 A 
ATOM     18  C   UNL     1       7.921   4.887  12.367  0.00  0.00    +0.000 A 
ATOM     19  N   UNL     1       7.957   5.598  13.514  0.00  0.00    +0.000 NA
ATOM     20  C   UNL     1       6.992   5.326  14.425  0.00  0.00    +0.000 A 
ENDBRANCH  14  15
BRANCH  13  21
ATOM     21  C   UNL     1       6.581   4.309  17.125  0.00  0.00    +0.000 C 
ATOM     22  N   UNL     1       7.652   4.531  17.514  0.00  0.00    +0.000 NA
ENDBRANCH  13  21
ENDBRANCH   6  13
TORSDOF 4
ENDMDL
MODEL 3
REMARK VINA RESULT:      -7.1      2.514      3.822
REMARK  Name = 
REMARK  5 active torsions:
REMARK  status: ('A' for Active; 'I' for Inactive)
REMARK    1  A    between atoms: C_1  and  O_2
REMARK    2  A    between atoms: O_2  and  C_3
REMARK    3  A    between atoms: C_8  and  C_9
REMARK    4  A    between atoms: C_9  and  C_10
REMARK    5  A    between atoms: C_12  and  C_13
REMARK                            x       y       z     vdW  Elec       q    Type
REMARK                         _______ _______ _______ _____ _____    ______ ____
ROOT
ATOM      1  C   UNL     1       0.414  10.816  20.346  0.00  0.00    +0.000 A 
ATOM      2  C   UNL     1       0.216  10.326  21.641  0.00  0.00    +0.000 A 
ATOM      3  C   UNL     1       0.632   9.044  21.998  0.00  0.00    +0.000 A 
ATOM      4  C   UNL     1       1.263   8.207  21.070  0.00  0.00    +0.000 A 
ATOM      5  C   UNL     1       1.484   8.664  19.753  0.00  0.00    +0.000 A 
ATOM      6  C   UNL     1       2.078   8.107  18.564  0.00  0.00    +0.000 A 
ATOM      7  C   UNL     1       1.993   9.081  17.584  0.00  0.00    +0.000 A 
ATOM      8  N   UNL     1       1.379  10.180  18.119  0.00  0.00    +0.000 N 
ATOM      9  C   UNL     1       1.055   9.958  19.436  0.00  0.00    +0.000 A 
ATOM     10  H   UNL     1       1.172  11.044  17.634  0.00  0.00    +0.000 HD
ENDROOT
BRANCH   1  12
ATOM     11  C   UNL     1      -1.340  12.215  19.569  0.00  0.00    +0.000 C 
ATOM     12  O   UNL     1       0.037  12.050  19.890  0.00  0.00    +0.000 OA
ENDBRANCH   1  12
BRANCH   6  13
ATOM     13  C   UNL     1       2.643   6.792  18.355  0.00  0.00    +0.000 C 
ATOM     14  C   UNL     1       2.042   5.668  18.806  0.00  0.00    +0.000 C 
BRANCH  14  15
ATOM     15  C   UNL     1       2.577   4.303  18.712  0.00  0.00    +0.000 A 
ATOM     16  C   UNL     1       2.216   3.447  17.672  0.00  0.00    +0.000 A 
ATOM     17  C   UNL     1       2.725   2.149  17.641  0.00  0.00    +0.000 A 
ATOM     18  C   UNL     1       3.582   1.752  18.656  0.00  0.00    +0.000 A 
ATOM     19  N   UNL     1       3.952   2.552  19.679  0.00  0.00    +0.000 NA
ATOM     20  C   UNL     1       3.446   3.808  19.681  0.00  0.00    +0.000 A 
ENDBRANCH  14  15
BRANCH  13  21
ATOM     21  C   UNL     1       3.901   6.705  17.670  0.00  0.00    +0.000 C 
ATOM     22  N   UNL     1       4.926   6.628  17.130  0.00  0.00    +0.000 NA
ENDBRANCH  13  21
ENDBRANCH   6  13
TORSDOF 4
ENDMDL
MODEL 4
REMARK VINA RESULT:      -7.1      3.583      4.342
REMARK  Name = 
REMARK  5 active torsions:
REMARK  status: ('A' for Active; 'I' for Inactive)
REMARK    1  A    between atoms: C_1  and  O_2
REMARK    2  A    between atoms: O_2  and  C_3
REMARK    3  A    between atoms: C_8  and  C_9
REMARK    4  A    between atoms: C_9  and  C_10
REMARK    5  A    between atoms: C_12  and  C_13
REMARK                            x       y       z     vdW  Elec       q    Type
REMARK                         _______ _______ _______ _____ _____    ______ ____
ROOT
ATOM      1  C   UNL     1       1.895   3.271  19.994  0.00  0.00    +0.000 A 
ATOM      2  C   UNL     1       1.322   2.254  19.222  0.00  0.00    +0.000 A 
ATOM      3  C   UNL     1       1.865   1.890  17.991  0.00  0.00    +0.000 A 
ATOM      4  C   UNL     1       3.005   2.530  17.489  0.00  0.00    +0.000 A 
ATOM      5  C   UNL     1       3.615   3.560  18.238  0.00  0.00    +0.000 A 
ATOM      6  C   UNL     1       4.757   4.420  18.052  0.00  0.00    +0.000 A 
ATOM      7  C   UNL     1       4.833   5.228  19.172  0.00  0.00    +0.000 A 
ATOM      8  N   UNL     1       3.800   4.903  20.010  0.00  0.00    +0.000 N 
ATOM      9  C   UNL     1       3.040   3.893  19.469  0.00  0.00    +0.000 A 
ATOM     10  H   UNL     1       3.597   5.334  20.902  0.00  0.00    +0.000 HD
ENDROOT
BRANCH   1  12
ATOM     11  C   UNL     1       1.373   2.747  22.250  0.00  0.00    +0.000 C 
ATOM     12  O   UNL     1       1.436   3.712  21.205  0.00  0.00    +0.000 OA
ENDBRANCH   1  12
BRANCH   6  13
ATOM     13  C   UNL     1       5.669   4.498  16.931  0.00  0.00    +0.000 C 
ATOM     14  C   UNL     1       5.237   4.639  15.657  0.00  0.00    +0.000 C 
BRANCH  14  15
ATOM     15  C   UNL     1       6.079   4.648  14.454  0.00  0.00    +0.000 A 
ATOM     16  C   UNL     1       5.852   3.767  13.397  0.00  0.00    +0.000 A 
ATOM     17  C   UNL     1       6.698   3.792  12.288  0.00  0.00    +0.000 A 
ATOM     18  C   UNL     1       7.745   4.700  12.276  0.00  0.00    +0.000 A 
ATOM     19  N   UNL     1       7.996   5.566  13.281  0.00  0.00    +0.000 NA
ATOM     20  C   UNL     1       7.156   5.524  14.343  0.00  0.00    +0.000 A 
ENDBRANCH  14  15
BRANCH  13  21
ATOM     21  C   UNL     1       7.074   4.388  17.202  0.00  0.00    +0.000 C 
ATOM     22  N   UNL     1       8.214   4.304  17.405  0.00  0.00    +0.000 NA
ENDBRANCH  13  21
ENDBRANCH   6  13
TORSDOF 4
ENDMDL
MODEL 5
REMARK VINA RESULT:      -7.0      4.051      4.802
REMARK  Name = 
REMARK  5 active torsions:
REMARK  status: ('A' for Active; 'I' for Inactive)
REMARK    1  A    between atoms: C_1  and  O_2
REMARK    2  A    between atoms: O_2  and  C_3
REMARK    3  A    between atoms: C_8  and  C_9
REMARK    4  A    between atoms: C_9  and  C_10
REMARK    5  A    between atoms: C_12  and  C_13
REMARK                            x       y       z     vdW  Elec       q    Type
REMARK                         _______ _______ _______ _____ _____    ______ ____
ROOT
ATOM      1  C   UNL     1       2.704   2.648  20.101  0.00  0.00    +0.000 A 
ATOM      2  C   UNL     1       1.613   2.170  19.366  0.00  0.00    +0.000 A 
ATOM      3  C   UNL     1       1.553   2.324  17.982  0.00  0.00    +0.000 A 
ATOM      4  C   UNL     1       2.585   2.961  17.283  0.00  0.00    +0.000 A 
ATOM      5  C   UNL     1       3.705   3.456  17.986  0.00  0.00    +0.000 A 
ATOM      6  C   UNL     1       4.917   4.147  17.623  0.00  0.00    +0.000 A 
ATOM      7  C   UNL     1       5.624   4.351  18.794  0.00  0.00    +0.000 A 
ATOM      8  N   UNL     1       4.902   3.829  19.832  0.00  0.00    +0.000 N 
ATOM      9  C   UNL     1       3.728   3.279  19.374  0.00  0.00    +0.000 A 
ATOM     10  H   UNL     1       5.166   3.839  20.809  0.00  0.00    +0.000 HD
ENDROOT
BRANCH   1  12
ATOM     11  C   UNL     1       1.681   2.730  22.242  0.00  0.00    +0.000 C 
ATOM     12  O   UNL     1       2.857   2.559  21.458  0.00  0.00    +0.000 OA
ENDBRANCH   1  12
BRANCH   6  13
ATOM     13  C   UNL     1       5.358   4.594  16.319  0.00  0.00    +0.000 C 
ATOM     14  C   UNL     1       5.950   3.762  15.433  0.00  0.00    +0.000 C 
BRANCH  14  15
ATOM     15  C   UNL     1       6.499   4.141  14.125  0.00  0.00    +0.000 A 
ATOM     16  C   UNL     1       6.098   3.503  12.951  0.00  0.00    +0.000 A 
ATOM     17  C   UNL     1       6.671   3.877  11.735  0.00  0.00    +0.000 A 
ATOM     18  C   UNL     1       7.629   4.879  11.737  0.00  0.00    +0.000 A 
ATOM     19  N   UNL     1       8.043   5.517  12.852  0.00  0.00    +0.000 NA
ATOM     20  C   UNL     1       7.466   5.138  14.017  0.00  0.00    +0.000 A 
ENDBRANCH  14  15
BRANCH  13  21
ATOM     21  C   UNL     1       5.179   5.980  15.991  0.00  0.00    +0.000 C 
ATOM     22  N   UNL     1       5.043   7.098  15.711  0.00  0.00    +0.000 NA
ENDBRANCH  13  21
ENDBRANCH   6  13
TORSDOF 4
ENDMDL
MODEL 6
REMARK VINA RESULT:      -7.0      2.570      3.922
REMARK  Name = 
REMARK  5 active torsions:
REMARK  status: ('A' for Active; 'I' for Inactive)
REMARK    1  A    between atoms: C_1  and  O_2
REMARK    2  A    between atoms: O_2  and  C_3
REMARK    3  A    between atoms: C_8  and  C_9
REMARK    4  A    between atoms: C_9  and  C_10
REMARK    5  A    between atoms: C_12  and  C_13
REMARK                            x       y       z     vdW  Elec       q    Type
REMARK                         _______ _______ _______ _____ _____    ______ ____
ROOT
ATOM      1  C   UNL     1       0.453  10.777  20.271  0.00  0.00    +0.000 A 
ATOM      2  C   UNL     1       0.251  10.315  21.576  0.00  0.00    +0.000 A 
ATOM      3  C   UNL     1       0.660   9.039  21.960  0.00  0.00    +0.000 A 
ATOM      4  C   UNL     1       1.291   8.181  21.052  0.00  0.00    +0.000 A 
ATOM      5  C   UNL     1       1.516   8.609  19.726  0.00  0.00    +0.000 A 
ATOM      6  C   UNL     1       2.111   8.025  18.550  0.00  0.00    +0.000 A 
ATOM      7  C   UNL     1       2.032   8.977  17.550  0.00  0.00    +0.000 A 
ATOM      8  N   UNL     1       1.420  10.090  18.059  0.00  0.00    +0.000 N 
ATOM      9  C   UNL     1       1.093   9.897  19.381  0.00  0.00    +0.000 A 
ATOM     10  H   UNL     1       1.218  10.944  17.556  0.00  0.00    +0.000 HD
ENDROOT
BRANCH   1  12
ATOM     11  C   UNL     1      -1.295  12.165  19.461  0.00  0.00    +0.000 C 
ATOM     12  O   UNL     1       0.081  12.003  19.788  0.00  0.00    +0.000 OA
ENDBRANCH   1  12
BRANCH   6  13
ATOM     13  C   UNL     1       2.672   6.703  18.370  0.00  0.00    +0.000 C 
ATOM     14  C   UNL     1       2.063   5.591  18.840  0.00  0.00    +0.000 C 
BRANCH  14  15
ATOM     15  C   UNL     1       2.593   4.223  18.776  0.00  0.00    +0.000 A 
ATOM     16  C   UNL     1       3.533   3.759  19.696  0.00  0.00    +0.000 A 
ATOM     17  C   UNL     1       4.031   2.461  19.576  0.00  0.00    +0.000 A 
ATOM     18  C   UNL     1       3.568   1.671  18.536  0.00  0.00    +0.000 A 
ATOM     19  N   UNL     1       2.661   2.085  17.626  0.00  0.00    +0.000 NA
ATOM     20  C   UNL     1       2.191   3.347  17.770  0.00  0.00    +0.000 A 
ENDBRANCH  14  15
BRANCH  13  21
ATOM     21  C   UNL     1       3.934   6.597  17.695  0.00  0.00    +0.000 C 
ATOM     22  N   UNL     1       4.957   6.529  17.150  0.00  0.00    +0.000 NA
ENDBRANCH  13  21
ENDBRANCH   6  13
TORSDOF 4
ENDMDL
MODEL 7
REMARK VINA RESULT:      -6.9      1.441      1.535
REMARK  Name = 
REMARK  5 active torsions:
REMARK  status: ('A' for Active; 'I' for Inactive)
REMARK    1  A    between atoms: C_1  and  O_2
REMARK    2  A    between atoms: O_2  and  C_3
REMARK    3  A    between atoms: C_8  and  C_9
REMARK    4  A    between atoms: C_9  and  C_10
REMARK    5  A    between atoms: C_12  and  C_13
REMARK                            x       y       z     vdW  Elec       q    Type
REMARK                         _______ _______ _______ _____ _____    ______ ____
ROOT
ATOM      1  C   UNL     1       0.782   9.790  20.743  0.00  0.00    +0.000 A 
ATOM      2  C   UNL     1       0.786  10.729  19.706  0.00  0.00    +0.000 A 
ATOM      3  C   UNL     1       1.304  10.414  18.451  0.00  0.00    +0.000 A 
ATOM      4  C   UNL     1       1.836   9.146  18.188  0.00  0.00    +0.000 A 
ATOM      5  C   UNL     1       1.850   8.169  19.207  0.00  0.00    +0.000 A 
ATOM      6  C   UNL     1       2.301   6.804  19.308  0.00  0.00    +0.000 A 
ATOM      7  C   UNL     1       2.019   6.387  20.597  0.00  0.00    +0.000 A 
ATOM      8  N   UNL     1       1.433   7.424  21.269  0.00  0.00    +0.000 N 
ATOM      9  C   UNL     1       1.318   8.524  20.451  0.00  0.00    +0.000 A 
ATOM     10  H   UNL     1       1.126   7.415  22.233  0.00  0.00    +0.000 HD
ENDROOT
BRANCH   1  12
ATOM     11  C   UNL     1      -0.514  11.144  22.201  0.00  0.00    +0.000 C 
ATOM     12  O   UNL     1       0.310   9.999  22.011  0.00  0.00    +0.000 OA
ENDBRANCH   1  12
BRANCH   6  13
ATOM     13  C   UNL     1       2.953   5.981  18.313  0.00  0.00    +0.000 C 
ATOM     14  C   UNL     1       4.191   6.259  17.844  0.00  0.00    +0.000 C 
BRANCH  14  15
ATOM     15  C   UNL     1       4.897   5.532  16.782  0.00  0.00    +0.000 A 
ATOM     16  C   UNL     1       5.224   4.182  16.914  0.00  0.00    +0.000 A 
ATOM     17  C   UNL     1       5.923   3.541  15.891  0.00  0.00    +0.000 A 
ATOM     18  C   UNL     1       6.270   4.275  14.768  0.00  0.00    +0.000 A 
ATOM     19  N   UNL     1       5.973   5.582  14.606  0.00  0.00    +0.000 NA
ATOM     20  C   UNL     1       5.290   6.178  15.612  0.00  0.00    +0.000 A 
ENDBRANCH  14  15
BRANCH  13  21
ATOM     21  C   UNL     1       2.229   4.854  17.797  0.00  0.00    +0.000 C 
ATOM     22  N   UNL     1       1.632   3.953  17.374  0.00  0.00    +0.000 NA
ENDBRANCH  13  21
ENDBRANCH   6  13
TORSDOF 4
ENDMDL
MODEL 8
REMARK VINA RESULT:      -6.8      1.924      2.666
REMARK  Name = 
REMARK  5 active torsions:
REMARK  status: ('A' for Active; 'I' for Inactive)
REMARK    1  A    between atoms: C_1  and  O_2
REMARK    2  A    between atoms: O_2  and  C_3
REMARK    3  A    between atoms: C_8  and  C_9
REMARK    4  A    between atoms: C_9  and  C_10
REMARK    5  A    between atoms: C_12  and  C_13
REMARK                            x       y       z     vdW  Elec       q    Type
REMARK                         _______ _______ _______ _____ _____    ______ ____
ROOT
ATOM      1  C   UNL     1      -0.071  10.300  20.467  0.00  0.00    +0.000 A 
ATOM      2  C   UNL     1      -0.090   9.640  21.700  0.00  0.00    +0.000 A 
ATOM      3  C   UNL     1       0.646   8.475  21.907  0.00  0.00    +0.000 A 
ATOM      4  C   UNL     1       1.430   7.929  20.884  0.00  0.00    +0.000 A 
ATOM      5  C   UNL     1       1.480   8.564  19.625  0.00  0.00    +0.000 A 
ATOM      6  C   UNL     1       2.149   8.305  18.374  0.00  0.00    +0.000 A 
ATOM      7  C   UNL     1       1.786   9.323  17.511  0.00  0.00    +0.000 A 
ATOM      8  N   UNL     1       0.937  10.168  18.172  0.00  0.00    +0.000 N 
ATOM      9  C   UNL     1       0.729   9.733  19.459  0.00  0.00    +0.000 A 
ATOM     10  H   UNL     1       0.502  10.999  17.790  0.00  0.00    +0.000 HD
ENDROOT
BRANCH   1  12
ATOM     11  C   UNL     1      -0.420  12.610  20.892  0.00  0.00    +0.000 C 
ATOM     12  O   UNL     1      -0.762  11.440  20.156  0.00  0.00    +0.000 OA
ENDBRANCH   1  12
BRANCH   6  13
ATOM     13  C   UNL     1       3.017   7.205  18.013  0.00  0.00    +0.000 C 
ATOM     14  C   UNL     1       4.270   7.398  17.543  0.00  0.00    +0.000 C 
BRANCH  14  15
ATOM     15  C   UNL     1       5.190   6.352  17.078  0.00  0.00    +0.000 A 
ATOM     16  C   UNL     1       5.233   5.959  15.740  0.00  0.00    +0.000 A 
ATOM     17  C   UNL     1       6.102   4.940  15.351  0.00  0.00    +0.000 A 
ATOM     18  C   UNL     1       6.899   4.347  16.318  0.00  0.00    +0.000 A 
ATOM     19  N   UNL     1       6.883   4.699  17.621  0.00  0.00    +0.000 NA
ATOM     20  C   UNL     1       6.034   5.695  17.970  0.00  0.00    +0.000 A 
ENDBRANCH  14  15
BRANCH  13  21
ATOM     21  C   UNL     1       2.496   5.873  18.137  0.00  0.00    +0.000 C 
ATOM     22  N   UNL     1       2.090   4.790  18.230  0.00  0.00    +0.000 NA
ENDBRANCH  13  21
ENDBRANCH   6  13
TORSDOF 4
ENDMDL
MODEL 9
REMARK VINA RESULT:      -6.8      3.847      7.473
REMARK  Name = 
REMARK  5 active torsions:
REMARK  status: ('A' for Active; 'I' for Inactive)
REMARK    1  A    between atoms: C_1  and  O_2
REMARK    2  A    between atoms: O_2  and  C_3
REMARK    3  A    between atoms: C_8  and  C_9
REMARK    4  A    between atoms: C_9  and  C_10
REMARK    5  A    between atoms: C_12  and  C_13
REMARK                            x       y       z     vdW  Elec       q    Type
REMARK                         _______ _______ _______ _____ _____    ______ ____
ROOT
ATOM      1  C   UNL     1       7.397   5.064  13.858  0.00  0.00    +0.000 A 
ATOM      2  C   UNL     1       6.677   4.160  13.071  0.00  0.00    +0.000 A 
ATOM      3  C   UNL     1       5.494   3.584  13.533  0.00  0.00    +0.000 A 
ATOM      4  C   UNL     1       4.990   3.896  14.801  0.00  0.00    +0.000 A 
ATOM      5  C   UNL     1       5.685   4.806  15.627  0.00  0.00    +0.000 A 
ATOM      6  C   UNL     1       5.482   5.349  16.946  0.00  0.00    +0.000 A 
ATOM      7  C   UNL     1       6.536   6.213  17.186  0.00  0.00    +0.000 A 
ATOM      8  N   UNL     1       7.355   6.211  16.090  0.00  0.00    +0.000 N 
ATOM      9  C   UNL     1       6.865   5.363  15.125  0.00  0.00    +0.000 A 
ATOM     10  H   UNL     1       8.210   6.742  15.982  0.00  0.00    +0.000 HD
ENDROOT
BRANCH   1  12
ATOM     11  C   UNL     1       8.636   6.212  12.189  0.00  0.00    +0.000 C 
ATOM     12  O   UNL     1       8.570   5.676  13.506  0.00  0.00    +0.000 OA
ENDBRANCH   1  12
BRANCH   6  13
ATOM     13  C   UNL     1       4.428   5.070  17.898  0.00  0.00    +0.000 C 
ATOM     14  C   UNL     1       4.212   3.830  18.392  0.00  0.00    +0.000 C 
BRANCH  14  15
ATOM     15  C   UNL     1       3.122   3.438  19.295  0.00  0.00    +0.000 A 
ATOM     16  C   UNL     1       1.815   3.277  18.837  0.00  0.00    +0.000 A 
ATOM     17  C   UNL     1       0.807   2.933  19.738  0.00  0.00    +0.000 A 
ATOM     18  C   UNL     1       1.145   2.762  21.072  0.00  0.00    +0.000 A 
ATOM     19  N   UNL     1       2.398   2.911  21.552  0.00  0.00    +0.000 NA
ATOM     20  C   UNL     1       3.357   3.239  20.654  0.00  0.00    +0.000 A 
ENDBRANCH  14  15
BRANCH  13  21
ATOM     21  C   UNL     1       3.577   6.156  18.291  0.00  0.00    +0.000 C 
ATOM     22  N   UNL     1       2.879   7.024  18.619  0.00  0.00    +0.000 NA
ENDBRANCH  13  21
ENDBRANCH   6  13
TORSDOF 4
ENDMDL
