MODEL 1
REMARK VINA RESULT:      -7.1      0.000      0.000
REMARK  Name = 
REMARK  9 active torsions:
REMARK  status: ('A' for Active; 'I' for Inactive)
REMARK    1  A    between atoms: C_1  and  O_2
REMARK    2  A    between atoms: O_2  and  C_3
REMARK    3  A    between atoms: N_5  and  C_6
REMARK    4  A    between atoms: C_8  and  C_9
REMARK    5  A    between atoms: N_11  and  C_12
REMARK    6  A    between atoms: C_14  and  C_15
REMARK    7  A    between atoms: C_19  and  N_20
REMARK    8  A    between atoms: C_23  and  O_24
REMARK    9  A    between atoms: O_24  and  C_25
REMARK                            x       y       z     vdW  Elec       q    Type
REMARK                         _______ _______ _______ _____ _____    ______ ____
ROOT
ATOM      1  C   UNL     1      -1.569  13.735  20.860  0.00  0.00    +0.000 A 
ATOM      2  C   UNL     1      -2.190  14.925  21.259  0.00  0.00    +0.000 A 
ATOM      3  C   UNL     1      -1.728  15.615  22.370  0.00  0.00    +0.000 A 
ATOM      4  C   UNL     1      -0.674  15.061  23.070  0.00  0.00    +0.000 A 
ATOM      5  N   UNL     1      -0.067  13.891  22.738  0.00  0.00    +0.000 NA
ATOM      6  C   UNL     1      -0.494  13.229  21.631  0.00  0.00    +0.000 A 
ENDROOT
BRANCH   6   7
ATOM      7  N   UNL     1       0.134  12.030  21.305  0.00  0.00    +0.000 N 
ATOM      8  C   UNL     1       1.234  12.072  20.347  0.00  0.00    +0.000 C 
ATOM      9  C   UNL     1       0.845  11.375  19.055  0.00  0.00    +0.000 C 
ATOM     10  C   UNL     1       0.424   9.921  19.321  0.00  0.00    +0.000 C 
ATOM     11  C   UNL     1      -0.802   9.975  20.235  0.00  0.00    +0.000 C 
ATOM     12  C   UNL     1      -0.520  10.736  21.525  0.00  0.00    +0.000 C 
BRANCH  10  13
ATOM     13  O   UNL     1       1.437   9.128  19.977  0.00  0.00    +0.000 OA
BRANCH  13  14
ATOM     14  C   UNL     1       2.066   8.158  19.241  0.00  0.00    +0.000 A 
ATOM     15  C   UNL     1       2.664   8.392  18.004  0.00  0.00    +0.000 A 
ATOM     16  C   UNL     1       3.342   7.378  17.327  0.00  0.00    +0.000 A 
ATOM     17  C   UNL     1       3.421   6.114  17.886  0.00  0.00    +0.000 A 
ATOM     18  F   UNL     1       4.080   5.151  17.230  0.00  0.00    +0.000 F 
ATOM     19  C   UNL     1       2.832   5.843  19.114  0.00  0.00    +0.000 A 
ATOM     20  C   UNL     1       2.161   6.866  19.785  0.00  0.00    +0.000 A 
ATOM     21  F   UNL     1       1.593   6.583  20.968  0.00  0.00    +0.000 F 
ENDBRANCH  13  14
ENDBRANCH  10  13
ENDBRANCH   6   7
BRANCH   1  24
ATOM     22  C   UNL     1      -3.302  12.457  19.597  0.00  0.00    +0.000 C 
ATOM     23  O   UNL     1      -4.187  12.498  20.445  0.00  0.00    +0.000 OA
ATOM     24  N   UNL     1      -2.043  13.001  19.743  0.00  0.00    +0.000 N 
ATOM     25  H   UNL     1      -1.429  12.999  18.936  0.00  0.00    +0.000 HD
BRANCH  22  31
ATOM     26  C   UNL     1      -4.748  11.633  17.583  0.00  0.00    +0.000 A 
ATOM     27  N   UNL     1      -4.551  11.028  16.414  0.00  0.00    +0.000 NA
ATOM     28  N   UNL     1      -3.232  10.823  16.385  0.00  0.00    +0.000 N 
ATOM     29  C   UNL     1      -2.666  10.082  15.286  0.00  0.00    +0.000 C 
ATOM     30  C   UNL     1      -2.581  11.328  17.468  0.00  0.00    +0.000 A 
ATOM     31  C   UNL     1      -3.558  11.862  18.298  0.00  0.00    +0.000 A 
BRANCH  26  33
ATOM     32  C   UNL     1      -6.676  10.820  18.588  0.00  0.00    +0.000 C 
ATOM     33  O   UNL     1      -6.007  11.927  17.976  0.00  0.00    +0.000 OA
ENDBRANCH  26  33
ENDBRANCH  22  31
ENDBRANCH   1  24
BRANCH   3  34
ATOM     34  C   UNL     1      -2.328  16.852  22.773  0.00  0.00    +0.000 C 
ATOM     35  N   UNL     1      -2.814  17.847  23.104  0.00  0.00    +0.000 NA
ENDBRANCH   3  34
TORSDOF 7
ENDMDL
MODEL 2
REMARK VINA RESULT:      -7.0      1.133      1.471
REMARK  Name = 
REMARK  9 active torsions:
REMARK  status: ('A' for Active; 'I' for Inactive)
REMARK    1  A    between atoms: C_1  and  O_2
REMARK    2  A    between atoms: O_2  and  C_3
REMARK    3  A    between atoms: N_5  and  C_6
REMARK    4  A    between atoms: C_8  and  C_9
REMARK    5  A    between atoms: N_11  and  C_12
REMARK    6  A    between atoms: C_14  and  C_15
REMARK    7  A    between atoms: C_19  and  N_20
REMARK    8  A    between atoms: C_23  and  O_24
REMARK    9  A    between atoms: O_24  and  C_25
REMARK                            x       y       z     vdW  Elec       q    Type
REMARK                         _______ _______ _______ _____ _____    ______ ____
ROOT
ATOM      1  C   UNL     1      -0.981  13.856  20.435  0.00  0.00    +0.000 A 
ATOM      2  C   UNL     1      -1.554  15.093  20.755  0.00  0.00    +0.000 A 
ATOM      3  C   UNL     1      -0.990  15.891  21.739  0.00  0.00    +0.000 A 
ATOM      4  C   UNL     1       0.117  15.397  22.401  0.00  0.00    +0.000 A 
ATOM      5  N   UNL     1       0.682  14.188  22.147  0.00  0.00    +0.000 NA
ATOM      6  C   UNL     1       0.154  13.418  21.161  0.00  0.00    +0.000 A 
ENDROOT
BRANCH   6   7
ATOM      7  N   UNL     1       0.742  12.180  20.914  0.00  0.00    +0.000 N 
ATOM      8  C   UNL     1       1.553  12.035  19.710  0.00  0.00    +0.000 C 
ATOM      9  C   UNL     1       0.883  11.096  18.722  0.00  0.00    +0.000 C 
ATOM     10  C   UNL     1       0.625   9.722  19.360  0.00  0.00    +0.000 C 
ATOM     11  C   UNL     1      -0.326   9.951  20.538  0.00  0.00    +0.000 C 
ATOM     12  C   UNL     1       0.237  10.952  21.539  0.00  0.00    +0.000 C 
BRANCH  10  13
ATOM     13  O   UNL     1       1.815   9.076  19.865  0.00  0.00    +0.000 OA
BRANCH  13  14
ATOM     14  C   UNL     1       1.945   7.727  19.662  0.00  0.00    +0.000 A 
ATOM     15  C   UNL     1       1.633   6.767  20.623  0.00  0.00    +0.000 A 
ATOM     16  C   UNL     1       1.730   5.405  20.339  0.00  0.00    +0.000 A 
ATOM     17  C   UNL     1       2.148   4.993  19.085  0.00  0.00    +0.000 A 
ATOM     18  F   UNL     1       2.230   3.683  18.822  0.00  0.00    +0.000 F 
ATOM     19  C   UNL     1       2.472   5.921  18.105  0.00  0.00    +0.000 A 
ATOM     20  C   UNL     1       2.367   7.282  18.398  0.00  0.00    +0.000 A 
ATOM     21  F   UNL     1       2.691   8.164  17.439  0.00  0.00    +0.000 F 
ENDBRANCH  13  14
ENDBRANCH  10  13
ENDBRANCH   6   7
BRANCH   1  24
ATOM     22  C   UNL     1      -2.778  12.376  19.534  0.00  0.00    +0.000 C 
ATOM     23  O   UNL     1      -3.525  12.416  20.505  0.00  0.00    +0.000 OA
ATOM     24  N   UNL     1      -1.558  13.015  19.451  0.00  0.00    +0.000 N 
ATOM     25  H   UNL     1      -1.074  12.998  18.560  0.00  0.00    +0.000 HD
BRANCH  22  31
ATOM     26  C   UNL     1      -4.391  11.074  17.945  0.00  0.00    +0.000 A 
ATOM     27  N   UNL     1      -4.338  10.502  16.744  0.00  0.00    +0.000 NA
ATOM     28  N   UNL     1      -3.073  10.692  16.361  0.00  0.00    +0.000 N 
ATOM     29  C   UNL     1      -2.623  10.102  15.126  0.00  0.00    +0.000 C 
ATOM     30  C   UNL     1      -2.340  11.414  17.251  0.00  0.00    +0.000 A 
ATOM     31  C   UNL     1      -3.178  11.674  18.328  0.00  0.00    +0.000 A 
BRANCH  26  33
ATOM     32  C   UNL     1      -6.627  11.684  18.052  0.00  0.00    +0.000 C 
ATOM     33  O   UNL     1      -5.531  11.002  18.666  0.00  0.00    +0.000 OA
ENDBRANCH  26  33
ENDBRANCH  22  31
ENDBRANCH   1  24
BRANCH   3  34
ATOM     34  C   UNL     1      -1.542  17.174  22.055  0.00  0.00    +0.000 C 
ATOM     35  N   UNL     1      -1.982  18.211  22.315  0.00  0.00    +0.000 NA
ENDBRANCH   3  34
TORSDOF 7
ENDMDL
MODEL 3
REMARK VINA RESULT:      -6.9      0.963      1.056
REMARK  Name = 
REMARK  9 active torsions:
REMARK  status: ('A' for Active; 'I' for Inactive)
REMARK    1  A    between atoms: C_1  and  O_2
REMARK    2  A    between atoms: O_2  and  C_3
REMARK    3  A    between atoms: N_5  and  C_6
REMARK    4  A    between atoms: C_8  and  C_9
REMARK    5  A    between atoms: N_11  and  C_12
REMARK    6  A    between atoms: C_14  and  C_15
REMARK    7  A    between atoms: C_19  and  N_20
REMARK    8  A    between atoms: C_23  and  O_24
REMARK    9  A    between atoms: O_24  and  C_25
REMARK                            x       y       z     vdW  Elec       q    Type
REMARK                         _______ _______ _______ _____ _____    ______ ____
ROOT
ATOM      1  C   UNL     1      -0.934  14.001  20.546  0.00  0.00    +0.000 A 
ATOM      2  C   UNL     1      -1.500  15.217  20.948  0.00  0.00    +0.000 A 
ATOM      3  C   UNL     1      -0.888  15.982  21.930  0.00  0.00    +0.000 A 
ATOM      4  C   UNL     1       0.262  15.476  22.505  0.00  0.00    +0.000 A 
ATOM      5  N   UNL     1       0.824  14.286  22.170  0.00  0.00    +0.000 NA
ATOM      6  C   UNL     1       0.247  13.549  21.186  0.00  0.00    +0.000 A 
ENDROOT
BRANCH   6   7
ATOM      7  N   UNL     1       0.832  12.330  20.854  0.00  0.00    +0.000 N 
ATOM      8  C   UNL     1       1.631  12.262  19.636  0.00  0.00    +0.000 C 
ATOM      9  C   UNL     1       0.951  11.387  18.597  0.00  0.00    +0.000 C 
ATOM     10  C   UNL     1       0.700   9.976  19.149  0.00  0.00    +0.000 C 
ATOM     11  C   UNL     1      -0.239  10.129  20.348  0.00  0.00    +0.000 C 
ATOM     12  C   UNL     1       0.334  11.065  21.406  0.00  0.00    +0.000 C 
BRANCH  10  13
ATOM     13  O   UNL     1       1.894   9.300  19.600  0.00  0.00    +0.000 OA
BRANCH  13  14
ATOM     14  C   UNL     1       1.974   7.945  19.407  0.00  0.00    +0.000 A 
ATOM     15  C   UNL     1       2.355   7.357  18.202  0.00  0.00    +0.000 A 
ATOM     16  C   UNL     1       2.475   5.973  18.082  0.00  0.00    +0.000 A 
ATOM     17  C   UNL     1       2.208   5.163  19.173  0.00  0.00    +0.000 A 
ATOM     18  F   UNL     1       2.333   3.837  19.047  0.00  0.00    +0.000 F 
ATOM     19  C   UNL     1       1.821   5.714  20.387  0.00  0.00    +0.000 A 
ATOM     20  C   UNL     1       1.708   7.101  20.498  0.00  0.00    +0.000 A 
ATOM     21  F   UNL     1       1.326   7.614  21.678  0.00  0.00    +0.000 F 
ENDBRANCH  13  14
ENDBRANCH  10  13
ENDBRANCH   6   7
BRANCH   1  24
ATOM     22  C   UNL     1      -2.718  12.463  19.722  0.00  0.00    +0.000 C 
ATOM     23  O   UNL     1      -3.357  12.379  20.764  0.00  0.00    +0.000 OA
ATOM     24  N   UNL     1      -1.558  13.193  19.563  0.00  0.00    +0.000 N 
ATOM     25  H   UNL     1      -1.174  13.274  18.628  0.00  0.00    +0.000 HD
BRANCH  22  31
ATOM     26  C   UNL     1      -4.471  11.346  18.139  0.00  0.00    +0.000 A 
ATOM     27  N   UNL     1      -4.490  10.791  16.929  0.00  0.00    +0.000 NA
ATOM     28  N   UNL     1      -3.218  10.866  16.529  0.00  0.00    +0.000 N 
ATOM     29  C   UNL     1      -2.845  10.256  15.278  0.00  0.00    +0.000 C 
ATOM     30  C   UNL     1      -2.407  11.501  17.418  0.00  0.00    +0.000 A 
ATOM     31  C   UNL     1      -3.201  11.822  18.512  0.00  0.00    +0.000 A 
BRANCH  26  33
ATOM     32  C   UNL     1      -6.786  11.502  18.085  0.00  0.00    +0.000 C 
ATOM     33  O   UNL     1      -5.602  11.371  18.877  0.00  0.00    +0.000 OA
ENDBRANCH  26  33
ENDBRANCH  22  31
ENDBRANCH   1  24
BRANCH   3  34
ATOM     34  C   UNL     1      -1.434  17.244  22.329  0.00  0.00    +0.000 C 
ATOM     35  N   UNL     1      -1.880  18.263  22.647  0.00  0.00    +0.000 NA
ENDBRANCH   3  34
TORSDOF 7
ENDMDL
MODEL 4
REMARK VINA RESULT:      -6.9      1.125      1.453
REMARK  Name = 
REMARK  9 active torsions:
REMARK  status: ('A' for Active; 'I' for Inactive)
REMARK    1  A    between atoms: C_1  and  O_2
REMARK    2  A    between atoms: O_2  and  C_3
REMARK    3  A    between atoms: N_5  and  C_6
REMARK    4  A    between atoms: C_8  and  C_9
REMARK    5  A    between atoms: N_11  and  C_12
REMARK    6  A    between atoms: C_14  and  C_15
REMARK    7  A    between atoms: C_19  and  N_20
REMARK    8  A    between atoms: C_23  and  O_24
REMARK    9  A    between atoms: O_24  and  C_25
REMARK                            x       y       z     vdW  Elec       q    Type
REMARK                         _______ _______ _______ _____ _____    ______ ____
ROOT
ATOM      1  C   UNL     1      -2.006  13.360  21.440  0.00  0.00    +0.000 A 
ATOM      2  C   UNL     1      -2.812  14.361  21.997  0.00  0.00    +0.000 A 
ATOM      3  C   UNL     1      -2.458  14.953  23.201  0.00  0.00    +0.000 A 
ATOM      4  C   UNL     1      -1.319  14.487  23.828  0.00  0.00    +0.000 A 
ATOM      5  N   UNL     1      -0.530  13.494  23.341  0.00  0.00    +0.000 NA
ATOM      6  C   UNL     1      -0.853  12.935  22.146  0.00  0.00    +0.000 A 
ENDROOT
BRANCH   6   7
ATOM      7  N   UNL     1      -0.038  11.916  21.660  0.00  0.00    +0.000 N 
ATOM      8  C   UNL     1       0.882  12.235  20.573  0.00  0.00    +0.000 C 
ATOM      9  C   UNL     1       0.471  11.519  19.298  0.00  0.00    +0.000 C 
ATOM     10  C   UNL     1       0.409  10.000  19.517  0.00  0.00    +0.000 C 
ATOM     11  C   UNL     1      -0.660   9.748  20.583  0.00  0.00    +0.000 C 
ATOM     12  C   UNL     1      -0.366  10.502  21.874  0.00  0.00    +0.000 C 
BRANCH  10  13
ATOM     13  O   UNL     1       1.649   9.422  19.981  0.00  0.00    +0.000 OA
BRANCH  13  14
ATOM     14  C   UNL     1       1.858   8.087  19.752  0.00  0.00    +0.000 A 
ATOM     15  C   UNL     1       1.624   7.094  20.703  0.00  0.00    +0.000 A 
ATOM     16  C   UNL     1       1.798   5.746  20.394  0.00  0.00    +0.000 A 
ATOM     17  C   UNL     1       2.217   5.380  19.126  0.00  0.00    +0.000 A 
ATOM     18  F   UNL     1       2.374   4.082  18.840  0.00  0.00    +0.000 F 
ATOM     19  C   UNL     1       2.465   6.342  18.156  0.00  0.00    +0.000 A 
ATOM     20  C   UNL     1       2.282   7.689  18.474  0.00  0.00    +0.000 A 
ATOM     21  F   UNL     1       2.534   8.605  17.525  0.00  0.00    +0.000 F 
ENDBRANCH  13  14
ENDBRANCH  10  13
ENDBRANCH   6   7
BRANCH   1  24
ATOM     22  C   UNL     1      -3.621  12.278  19.875  0.00  0.00    +0.000 C 
ATOM     23  O   UNL     1      -4.610  12.331  20.597  0.00  0.00    +0.000 OA
ATOM     24  N   UNL     1      -2.364  12.725  20.224  0.00  0.00    +0.000 N 
ATOM     25  H   UNL     1      -1.645  12.726  19.509  0.00  0.00    +0.000 HD
BRANCH  22  31
ATOM     26  C   UNL     1      -4.750  11.875  17.553  0.00  0.00    +0.000 A 
ATOM     27  N   UNL     1      -4.463  11.242  16.418  0.00  0.00    +0.000 NA
ATOM     28  N   UNL     1      -3.271  10.690  16.658  0.00  0.00    +0.000 N 
ATOM     29  C   UNL     1      -2.691   9.827  15.661  0.00  0.00    +0.000 C 
ATOM     30  C   UNL     1      -2.768  11.000  17.883  0.00  0.00    +0.000 A 
ATOM     31  C   UNL     1      -3.730  11.775  18.518  0.00  0.00    +0.000 A 
BRANCH  26  33
ATOM     32  C   UNL     1      -6.973  11.630  18.170  0.00  0.00    +0.000 C 
ATOM     33  O   UNL     1      -5.942  12.495  17.687  0.00  0.00    +0.000 OA
ENDBRANCH  26  33
ENDBRANCH  22  31
ENDBRANCH   1  24
BRANCH   3  34
ATOM     34  C   UNL     1      -3.251  16.002  23.768  0.00  0.00    +0.000 C 
ATOM     35  N   UNL     1      -3.892  16.852  24.218  0.00  0.00    +0.000 NA
ENDBRANCH   3  34
TORSDOF 7
ENDMDL
MODEL 5
REMARK VINA RESULT:      -6.9      1.203      1.225
REMARK  Name = 
REMARK  9 active torsions:
REMARK  status: ('A' for Active; 'I' for Inactive)
REMARK    1  A    between atoms: C_1  and  O_2
REMARK    2  A    between atoms: O_2  and  C_3
REMARK    3  A    between atoms: N_5  and  C_6
REMARK    4  A    between atoms: C_8  and  C_9
REMARK    5  A    between atoms: N_11  and  C_12
REMARK    6  A    between atoms: C_14  and  C_15
REMARK    7  A    between atoms: C_19  and  N_20
REMARK    8  A    between atoms: C_23  and  O_24
REMARK    9  A    between atoms: O_24  and  C_25
REMARK                            x       y       z     vdW  Elec       q    Type
REMARK                         _______ _______ _______ _____ _____    ______ ____
ROOT
ATOM      1  C   UNL     1      -2.420  13.590  21.703  0.00  0.00    +0.000 A 
ATOM      2  C   UNL     1      -3.275  14.496  22.343  0.00  0.00    +0.000 A 
ATOM      3  C   UNL     1      -2.936  15.022  23.580  0.00  0.00    +0.000 A 
ATOM      4  C   UNL     1      -1.757  14.587  24.154  0.00  0.00    +0.000 A 
ATOM      5  N   UNL     1      -0.917  13.684  23.584  0.00  0.00    +0.000 NA
ATOM      6  C   UNL     1      -1.228  13.191  22.358  0.00  0.00    +0.000 A 
ENDROOT
BRANCH   6   7
ATOM      7  N   UNL     1      -0.361  12.264  21.787  0.00  0.00    +0.000 N 
ATOM      8  C   UNL     1       0.568  12.734  20.764  0.00  0.00    +0.000 C 
ATOM      9  C   UNL     1       0.215  12.145  19.410  0.00  0.00    +0.000 C 
ATOM     10  C   UNL     1       0.213  10.609  19.463  0.00  0.00    +0.000 C 
ATOM     11  C   UNL     1      -0.867  10.202  20.468  0.00  0.00    +0.000 C 
ATOM     12  C   UNL     1      -0.634  10.823  21.840  0.00  0.00    +0.000 C 
BRANCH  10  13
ATOM     13  O   UNL     1       1.466  10.035  19.895  0.00  0.00    +0.000 OA
BRANCH  13  14
ATOM     14  C   UNL     1       1.810   8.805  19.398  0.00  0.00    +0.000 A 
ATOM     15  C   UNL     1       2.224   8.590  18.084  0.00  0.00    +0.000 A 
ATOM     16  C   UNL     1       2.620   7.325  17.650  0.00  0.00    +0.000 A 
ATOM     17  C   UNL     1       2.597   6.259  18.533  0.00  0.00    +0.000 A 
ATOM     18  F   UNL     1       2.985   5.051  18.107  0.00  0.00    +0.000 F 
ATOM     19  C   UNL     1       2.185   6.434  19.847  0.00  0.00    +0.000 A 
ATOM     20  C   UNL     1       1.796   7.706  20.273  0.00  0.00    +0.000 A 
ATOM     21  F   UNL     1       1.395   7.854  21.545  0.00  0.00    +0.000 F 
ENDBRANCH  13  14
ENDBRANCH  10  13
ENDBRANCH   6   7
BRANCH   1  24
ATOM     22  C   UNL     1      -3.959  12.416  20.127  0.00  0.00    +0.000 C 
ATOM     23  O   UNL     1      -4.892  12.248  20.903  0.00  0.00    +0.000 OA
ATOM     24  N   UNL     1      -2.762  13.021  20.450  0.00  0.00    +0.000 N 
ATOM     25  H   UNL     1      -2.103  13.200  19.700  0.00  0.00    +0.000 HD
BRANCH  22  31
ATOM     26  C   UNL     1      -5.187  11.996  17.859  0.00  0.00    +0.000 A 
ATOM     27  N   UNL     1      -4.881  11.547  16.644  0.00  0.00    +0.000 NA
ATOM     28  N   UNL     1      -3.584  11.244  16.738  0.00  0.00    +0.000 N 
ATOM     29  C   UNL     1      -2.931  10.622  15.615  0.00  0.00    +0.000 C 
ATOM     30  C   UNL     1      -3.045  11.541  17.952  0.00  0.00    +0.000 A 
ATOM     31  C   UNL     1      -4.084  12.029  18.733  0.00  0.00    +0.000 A 
BRANCH  26  33
ATOM     32  C   UNL     1      -6.989  13.334  17.270  0.00  0.00    +0.000 C 
ATOM     33  O   UNL     1      -6.465  12.330  18.143  0.00  0.00    +0.000 OA
ENDBRANCH  26  33
ENDBRANCH  22  31
ENDBRANCH   1  24
BRANCH   3  34
ATOM     34  C   UNL     1      -3.781  15.976  24.234  0.00  0.00    +0.000 C 
ATOM     35  N   UNL     1      -4.466  16.740  24.766  0.00  0.00    +0.000 NA
ENDBRANCH   3  34
TORSDOF 7
ENDMDL
MODEL 6
REMARK VINA RESULT:      -6.8      2.300      3.179
REMARK  Name = 
REMARK  9 active torsions:
REMARK  status: ('A' for Active; 'I' for Inactive)
REMARK    1  A    between atoms: C_1  and  O_2
REMARK    2  A    between atoms: O_2  and  C_3
REMARK    3  A    between atoms: N_5  and  C_6
REMARK    4  A    between atoms: C_8  and  C_9
REMARK    5  A    between atoms: N_11  and  C_12
REMARK    6  A    between atoms: C_14  and  C_15
REMARK    7  A    between atoms: C_19  and  N_20
REMARK    8  A    between atoms: C_23  and  O_24
REMARK    9  A    between atoms: O_24  and  C_25
REMARK                            x       y       z     vdW  Elec       q    Type
REMARK                         _______ _______ _______ _____ _____    ______ ____
ROOT
ATOM      1  C   UNL     1       0.011  12.112  18.790  0.00  0.00    +0.000 A 
ATOM      2  C   UNL     1       0.006  13.459  19.175  0.00  0.00    +0.000 A 
ATOM      3  C   UNL     1       0.889  13.911  20.145  0.00  0.00    +0.000 A 
ATOM      4  C   UNL     1       1.727  12.978  20.725  0.00  0.00    +0.000 A 
ATOM      5  N   UNL     1       1.739  11.658  20.407  0.00  0.00    +0.000 NA
ATOM      6  C   UNL     1       0.899  11.217  19.435  0.00  0.00    +0.000 A 
ENDROOT
BRANCH   6   7
ATOM      7  N   UNL     1       0.920   9.860  19.121  0.00  0.00    +0.000 N 
ATOM      8  C   UNL     1       0.704   8.904  20.201  0.00  0.00    +0.000 C 
ATOM      9  C   UNL     1       1.971   8.112  20.476  0.00  0.00    +0.000 C 
ATOM     10  C   UNL     1       2.450   7.387  19.209  0.00  0.00    +0.000 C 
ATOM     11  C   UNL     1       2.765   8.467  18.172  0.00  0.00    +0.000 C 
ATOM     12  C   UNL     1       1.564   9.365  17.899  0.00  0.00    +0.000 C 
BRANCH  10  13
ATOM     13  O   UNL     1       1.470   6.491  18.639  0.00  0.00    +0.000 OA
BRANCH  13  14
ATOM     14  C   UNL     1       1.787   5.160  18.564  0.00  0.00    +0.000 A 
ATOM     15  C   UNL     1       2.477   4.589  17.495  0.00  0.00    +0.000 A 
ATOM     16  C   UNL     1       2.825   3.239  17.501  0.00  0.00    +0.000 A 
ATOM     17  C   UNL     1       2.476   2.445  18.580  0.00  0.00    +0.000 A 
ATOM     18  F   UNL     1       2.821   1.151  18.576  0.00  0.00    +0.000 F 
ATOM     19  C   UNL     1       1.783   2.978  19.658  0.00  0.00    +0.000 A 
ATOM     20  C   UNL     1       1.445   4.332  19.645  0.00  0.00    +0.000 A 
ATOM     21  F   UNL     1       0.770   4.828  20.694  0.00  0.00    +0.000 F 
ENDBRANCH  13  14
ENDBRANCH  10  13
ENDBRANCH   6   7
BRANCH   1  24
ATOM     22  C   UNL     1      -2.260  11.453  17.990  0.00  0.00    +0.000 C 
ATOM     23  O   UNL     1      -2.869  11.662  19.033  0.00  0.00    +0.000 OA
ATOM     24  N   UNL     1      -0.902  11.626  17.820  0.00  0.00    +0.000 N 
ATOM     25  H   UNL     1      -0.524  11.524  16.884  0.00  0.00    +0.000 HD
BRANCH  22  31
ATOM     26  C   UNL     1      -4.347  10.935  16.506  0.00  0.00    +0.000 A 
ATOM     27  N   UNL     1      -4.592  10.509  15.269  0.00  0.00    +0.000 NA
ATOM     28  N   UNL     1      -3.375  10.308  14.759  0.00  0.00    +0.000 N 
ATOM     29  C   UNL     1      -3.258   9.736  13.441  0.00  0.00    +0.000 C 
ATOM     30  C   UNL     1      -2.369  10.648  15.609  0.00  0.00    +0.000 A 
ATOM     31  C   UNL     1      -2.974  11.056  16.790  0.00  0.00    +0.000 A 
BRANCH  26  33
ATOM     32  C   UNL     1      -5.922  12.485  17.214  0.00  0.00    +0.000 C 
ATOM     33  O   UNL     1      -5.379  11.169  17.346  0.00  0.00    +0.000 OA
ENDBRANCH  26  33
ENDBRANCH  22  31
ENDBRANCH   1  24
BRANCH   3  34
ATOM     34  C   UNL     1       0.923  15.291  20.526  0.00  0.00    +0.000 C 
ATOM     35  N   UNL     1       0.958  16.405  20.834  0.00  0.00    +0.000 NA
ENDBRANCH   3  34
TORSDOF 7
ENDMDL
MODEL 7
REMARK VINA RESULT:      -6.8      3.500      5.008
REMARK  Name = 
REMARK  9 active torsions:
REMARK  status: ('A' for Active; 'I' for Inactive)
REMARK    1  A    between atoms: C_1  and  O_2
REMARK    2  A    between atoms: O_2  and  C_3
REMARK    3  A    between atoms: N_5  and  C_6
REMARK    4  A    between atoms: C_8  and  C_9
REMARK    5  A    between atoms: N_11  and  C_12
REMARK    6  A    between atoms: C_14  and  C_15
REMARK    7  A    between atoms: C_19  and  N_20
REMARK    8  A    between atoms: C_23  and  O_24
REMARK    9  A    between atoms: O_24  and  C_25
REMARK                            x       y       z     vdW  Elec       q    Type
REMARK                         _______ _______ _______ _____ _____    ______ ____
ROOT
ATOM      1  C   UNL     1      -0.280  13.307  21.772  0.00  0.00    +0.000 A 
ATOM      2  C   UNL     1      -1.091  14.262  22.400  0.00  0.00    +0.000 A 
ATOM      3  C   UNL     1      -2.113  13.860  23.249  0.00  0.00    +0.000 A 
ATOM      4  C   UNL     1      -2.310  12.503  23.408  0.00  0.00    +0.000 A 
ATOM      5  N   UNL     1      -1.570  11.545  22.790  0.00  0.00    +0.000 NA
ATOM      6  C   UNL     1      -0.548  11.932  21.985  0.00  0.00    +0.000 A 
ENDROOT
BRANCH   6   7
ATOM      7  N   UNL     1       0.200  10.941  21.355  0.00  0.00    +0.000 N 
ATOM      8  C   UNL     1      -0.494  10.032  20.449  0.00  0.00    +0.000 C 
ATOM      9  C   UNL     1      -0.524   8.625  21.020  0.00  0.00    +0.000 C 
ATOM     10  C   UNL     1       0.898   8.116  21.301  0.00  0.00    +0.000 C 
ATOM     11  C   UNL     1       1.507   9.054  22.346  0.00  0.00    +0.000 C 
ATOM     12  C   UNL     1       1.498  10.506  21.884  0.00  0.00    +0.000 C 
BRANCH  10  13
ATOM     13  O   UNL     1       1.761   8.117  20.142  0.00  0.00    +0.000 OA
BRANCH  13  14
ATOM     14  C   UNL     1       2.207   6.907  19.677  0.00  0.00    +0.000 A 
ATOM     15  C   UNL     1       2.061   5.709  20.373  0.00  0.00    +0.000 A 
ATOM     16  C   UNL     1       2.482   4.499  19.823  0.00  0.00    +0.000 A 
ATOM     17  C   UNL     1       3.062   4.482  18.565  0.00  0.00    +0.000 A 
ATOM     18  F   UNL     1       3.456   3.313  18.045  0.00  0.00    +0.000 F 
ATOM     19  C   UNL     1       3.229   5.656  17.845  0.00  0.00    +0.000 A 
ATOM     20  C   UNL     1       2.799   6.862  18.403  0.00  0.00    +0.000 A 
ATOM     21  F   UNL     1       2.975   7.988  17.694  0.00  0.00    +0.000 F 
ENDBRANCH  13  14
ENDBRANCH  10  13
ENDBRANCH   6   7
BRANCH   1  24
ATOM     22  C   UNL     1       1.952  14.281  21.226  0.00  0.00    +0.000 C 
ATOM     23  O   UNL     1       2.281  14.587  22.366  0.00  0.00    +0.000 OA
ATOM     24  N   UNL     1       0.751  13.697  20.881  0.00  0.00    +0.000 N 
ATOM     25  H   UNL     1       0.631  13.392  19.921  0.00  0.00    +0.000 HD
BRANCH  22  31
ATOM     26  C   UNL     1       2.858  14.007  18.791  0.00  0.00    +0.000 A 
ATOM     27  N   UNL     1       3.928  14.381  18.092  0.00  0.00    +0.000 NA
ATOM     28  N   UNL     1       4.667  15.047  18.982  0.00  0.00    +0.000 N 
ATOM     29  C   UNL     1       5.972  15.517  18.591  0.00  0.00    +0.000 C 
ATOM     30  C   UNL     1       4.077  15.157  20.203  0.00  0.00    +0.000 A 
ATOM     31  C   UNL     1       2.876  14.464  20.122  0.00  0.00    +0.000 A 
BRANCH  26  33
ATOM     32  C   UNL     1       2.241  11.843  18.225  0.00  0.00    +0.000 C 
ATOM     33  O   UNL     1       1.917  13.235  18.205  0.00  0.00    +0.000 OA
ENDBRANCH  26  33
ENDBRANCH  22  31
ENDBRANCH   1  24
BRANCH   3  34
ATOM     34  C   UNL     1      -2.929  14.822  23.926  0.00  0.00    +0.000 C 
ATOM     35  N   UNL     1      -3.586  15.595  24.480  0.00  0.00    +0.000 NA
ENDBRANCH   3  34
TORSDOF 7
ENDMDL
MODEL 8
REMARK VINA RESULT:      -6.7      1.836      2.655
REMARK  Name = 
REMARK  9 active torsions:
REMARK  status: ('A' for Active; 'I' for Inactive)
REMARK    1  A    between atoms: C_1  and  O_2
REMARK    2  A    between atoms: O_2  and  C_3
REMARK    3  A    between atoms: N_5  and  C_6
REMARK    4  A    between atoms: C_8  and  C_9
REMARK    5  A    between atoms: N_11  and  C_12
REMARK    6  A    between atoms: C_14  and  C_15
REMARK    7  A    between atoms: C_19  and  N_20
REMARK    8  A    between atoms: C_23  and  O_24
REMARK    9  A    between atoms: O_24  and  C_25
REMARK                            x       y       z     vdW  Elec       q    Type
REMARK                         _______ _______ _______ _____ _____    ______ ____
ROOT
ATOM      1  C   UNL     1      -2.821  14.298  21.909  0.00  0.00    +0.000 A 
ATOM      2  C   UNL     1      -3.315  15.321  22.728  0.00  0.00    +0.000 A 
ATOM      3  C   UNL     1      -2.628  15.692  23.874  0.00  0.00    +0.000 A 
ATOM      4  C   UNL     1      -1.479  14.990  24.181  0.00  0.00    +0.000 A 
ATOM      5  N   UNL     1      -0.985  13.968  23.434  0.00  0.00    +0.000 NA
ATOM      6  C   UNL     1      -1.635  13.624  22.293  0.00  0.00    +0.000 A 
ENDROOT
BRANCH   6   7
ATOM      7  N   UNL     1      -1.120  12.573  21.539  0.00  0.00    +0.000 N 
ATOM      8  C   UNL     1      -1.354  11.212  22.011  0.00  0.00    +0.000 C 
ATOM      9  C   UNL     1      -0.052  10.569  22.455  0.00  0.00    +0.000 C 
ATOM     10  C   UNL     1       0.977  10.568  21.313  0.00  0.00    +0.000 C 
ATOM     11  C   UNL     1       1.252  12.033  20.963  0.00  0.00    +0.000 C 
ATOM     12  C   UNL     1      -0.023  12.778  20.586  0.00  0.00    +0.000 C 
BRANCH  10  13
ATOM     13  O   UNL     1       0.525   9.899  20.116  0.00  0.00    +0.000 OA
BRANCH  13  14
ATOM     14  C   UNL     1       1.312   8.899  19.606  0.00  0.00    +0.000 A 
ATOM     15  C   UNL     1       1.656   7.749  20.314  0.00  0.00    +0.000 A 
ATOM     16  C   UNL     1       2.412   6.737  19.723  0.00  0.00    +0.000 A 
ATOM     17  C   UNL     1       2.836   6.874  18.412  0.00  0.00    +0.000 A 
ATOM     18  F   UNL     1       3.556   5.893  17.854  0.00  0.00    +0.000 F 
ATOM     19  C   UNL     1       2.518   8.009  17.679  0.00  0.00    +0.000 A 
ATOM     20  C   UNL     1       1.757   9.013  18.278  0.00  0.00    +0.000 A 
ATOM     21  F   UNL     1       1.464  10.106  17.555  0.00  0.00    +0.000 F 
ENDBRANCH  13  14
ENDBRANCH  10  13
ENDBRANCH   6   7
BRANCH   1  24
ATOM     22  C   UNL     1      -4.530  12.948  20.691  0.00  0.00    +0.000 C 
ATOM     23  O   UNL     1      -4.938  12.297  21.647  0.00  0.00    +0.000 OA
ATOM     24  N   UNL     1      -3.522  13.888  20.747  0.00  0.00    +0.000 N 
ATOM     25  H   UNL     1      -3.341  14.439  19.916  0.00  0.00    +0.000 HD
BRANCH  22  31
ATOM     26  C   UNL     1      -4.897  11.958  18.301  0.00  0.00    +0.000 A 
ATOM     27  N   UNL     1      -5.701  12.171  17.262  0.00  0.00    +0.000 NA
ATOM     28  N   UNL     1      -6.462  13.195  17.657  0.00  0.00    +0.000 N 
ATOM     29  C   UNL     1      -7.397  13.768  16.724  0.00  0.00    +0.000 C 
ATOM     30  C   UNL     1      -6.206  13.599  18.931  0.00  0.00    +0.000 A 
ATOM     31  C   UNL     1      -5.158  12.811  19.390  0.00  0.00    +0.000 A 
BRANCH  26  33
ATOM     32  C   UNL     1      -3.156  11.121  17.014  0.00  0.00    +0.000 C 
ATOM     33  O   UNL     1      -3.930  11.019  18.213  0.00  0.00    +0.000 OA
ENDBRANCH  26  33
ENDBRANCH  22  31
ENDBRANCH   1  24
BRANCH   3  34
ATOM     34  C   UNL     1      -3.100  16.759  24.705  0.00  0.00    +0.000 C 
ATOM     35  N   UNL     1      -3.474  17.621  25.378  0.00  0.00    +0.000 NA
ENDBRANCH   3  34
TORSDOF 7
ENDMDL
MODEL 9
REMARK VINA RESULT:      -6.7      2.511      3.204
REMARK  Name = 
REMARK  9 active torsions:
REMARK  status: ('A' for Active; 'I' for Inactive)
REMARK    1  A    between atoms: C_1  and  O_2
REMARK    2  A    between atoms: O_2  and  C_3
REMARK    3  A    between atoms: N_5  and  C_6
REMARK    4  A    between atoms: C_8  and  C_9
REMARK    5  A    between atoms: N_11  and  C_12
REMARK    6  A    between atoms: C_14  and  C_15
REMARK    7  A    between atoms: C_19  and  N_20
REMARK    8  A    between atoms: C_23  and  O_24
REMARK    9  A    between atoms: O_24  and  C_25
REMARK                            x       y       z     vdW  Elec       q    Type
REMARK                         _______ _______ _______ _____ _____    ______ ____
ROOT
ATOM      1  C   UNL     1       0.211  13.894  18.746  0.00  0.00    +0.000 A 
ATOM      2  C   UNL     1       0.065  15.254  18.440  0.00  0.00    +0.000 A 
ATOM      3  C   UNL     1       1.129  16.127  18.612  0.00  0.00    +0.000 A 
ATOM      4  C   UNL     1       2.302  15.606  19.124  0.00  0.00    +0.000 A 
ATOM      5  N   UNL     1       2.474  14.303  19.467  0.00  0.00    +0.000 NA
ATOM      6  C   UNL     1       1.446  13.438  19.270  0.00  0.00    +0.000 A 
ENDROOT
BRANCH   6   7
ATOM      7  N   UNL     1       1.635  12.106  19.628  0.00  0.00    +0.000 N 
ATOM      8  C   UNL     1       2.085  11.176  18.597  0.00  0.00    +0.000 C 
ATOM      9  C   UNL     1       0.994  10.172  18.268  0.00  0.00    +0.000 C 
ATOM     10  C   UNL     1       0.559   9.404  19.526  0.00  0.00    +0.000 C 
ATOM     11  C   UNL     1      -0.008  10.437  20.502  0.00  0.00    +0.000 C 
ATOM     12  C   UNL     1       1.000  11.534  20.821  0.00  0.00    +0.000 C 
BRANCH  10  13
ATOM     13  O   UNL     1       1.634   8.704  20.189  0.00  0.00    +0.000 OA
BRANCH  13  14
ATOM     14  C   UNL     1       1.794   7.371  19.914  0.00  0.00    +0.000 A 
ATOM     15  C   UNL     1       1.289   6.350  20.718  0.00  0.00    +0.000 A 
ATOM     16  C   UNL     1       1.433   5.011  20.358  0.00  0.00    +0.000 A 
ATOM     17  C   UNL     1       2.093   4.682  19.185  0.00  0.00    +0.000 A 
ATOM     18  F   UNL     1       2.218   3.394  18.847  0.00  0.00    +0.000 F 
ATOM     19  C   UNL     1       2.614   5.672  18.364  0.00  0.00    +0.000 A 
ATOM     20  C   UNL     1       2.460   7.010  18.731  0.00  0.00    +0.000 A 
ATOM     21  F   UNL     1       2.976   7.953  17.927  0.00  0.00    +0.000 F 
ENDBRANCH  13  14
ENDBRANCH  10  13
ENDBRANCH   6   7
BRANCH   1  24
ATOM     22  C   UNL     1      -2.022  12.967  19.365  0.00  0.00    +0.000 C 
ATOM     23  O   UNL     1      -2.250  13.709  20.314  0.00  0.00    +0.000 OA
ATOM     24  N   UNL     1      -0.873  12.992  18.603  0.00  0.00    +0.000 N 
ATOM     25  H   UNL     1      -0.839  12.403  17.778  0.00  0.00    +0.000 HD
BRANCH  22  31
ATOM     26  C   UNL     1      -3.008  11.030  17.916  0.00  0.00    +0.000 A 
ATOM     27  N   UNL     1      -4.160  10.371  17.809  0.00  0.00    +0.000 NA
ATOM     28  N   UNL     1      -4.943  10.956  18.718  0.00  0.00    +0.000 N 
ATOM     29  C   UNL     1      -6.324  10.555  18.809  0.00  0.00    +0.000 C 
ATOM     30  C   UNL     1      -4.310  11.923  19.436  0.00  0.00    +0.000 A 
ATOM     31  C   UNL     1      -3.023  12.014  18.921  0.00  0.00    +0.000 A 
BRANCH  26  33
ATOM     32  C   UNL     1      -2.440  10.298  15.788  0.00  0.00    +0.000 C 
ATOM     33  O   UNL     1      -1.993  10.738  17.074  0.00  0.00    +0.000 OA
ENDBRANCH  26  33
ENDBRANCH  22  31
ENDBRANCH   1  24
BRANCH   3  34
ATOM     34  C   UNL     1       1.009  17.512  18.272  0.00  0.00    +0.000 C 
ATOM     35  N   UNL     1       0.906  18.630  17.993  0.00  0.00    +0.000 NA
ENDBRANCH   3  34
TORSDOF 7
ENDMDL
