MODEL 1
REMARK VINA RESULT:      -8.1      0.000      0.000
REMARK  Name = 
REMARK  7 active torsions:
REMARK  status: ('A' for Active; 'I' for Inactive)
REMARK    1  A    between atoms: C_2  and  C_17
REMARK    2  A    between atoms: N_3  and  C_4
REMARK    3  A    between atoms: C_4  and  C_5
REMARK    4  A    between atoms: C_5  and  C_6
REMARK    5  A    between atoms: C_6  and  N_7
REMARK    6  A    between atoms: C_20  and  C_21
REMARK    7  A    between atoms: C_21  and  N_22
REMARK                            x       y       z     vdW  Elec       q    Type
REMARK                         _______ _______ _______ _____ _____    ______ ____
ROOT
ATOM      1  O   UNL     1       3.361   5.086  20.571  0.00  0.00    +0.000 OA
ATOM      2  C   UNL     1       2.360   5.411  19.952  0.00  0.00    +0.000 C 
ATOM      3  N   UNL     1       1.473   4.488  19.432  0.00  0.00    +0.000 N 
ATOM      4  H   UNL     1       0.636   4.790  18.955  0.00  0.00    +0.000 HD
ENDROOT
BRANCH   2   5
ATOM      5  C   UNL     1       2.025   6.845  19.778  0.00  0.00    +0.000 A 
ATOM      6  C   UNL     1       1.356   7.623  20.730  0.00  0.00    +0.000 A 
ATOM      7  C   UNL     1       1.023   8.953  20.435  0.00  0.00    +0.000 A 
ATOM      8  C   UNL     1       1.392   9.530  19.208  0.00  0.00    +0.000 A 
ATOM      9  C   UNL     1       2.123   8.758  18.297  0.00  0.00    +0.000 A 
ATOM     10  C   UNL     1       2.410   7.419  18.562  0.00  0.00    +0.000 A 
BRANCH   8  11
ATOM     11  C   UNL     1       0.932  10.918  18.810  0.00  0.00    +0.000 C 
BRANCH  11  12
ATOM     12  N   UNL     1       1.753  12.078  19.156  0.00  0.00    +0.000 NA
ATOM     13  C   UNL     1       1.545  12.656  20.480  0.00  0.00    +0.000 C 
ATOM     14  C   UNL     1       0.648  13.854  20.245  0.00  0.00    +0.000 C 
ATOM     15  C   UNL     1       1.105  14.373  18.893  0.00  0.00    +0.000 C 
ATOM     16  C   UNL     1       1.749  13.180  18.196  0.00  0.00    +0.000 C 
ENDBRANCH  11  12
ENDBRANCH   8  11
ENDBRANCH   2   5
BRANCH   3  17
ATOM     17  C   UNL     1       1.683   3.076  19.666  0.00  0.00    +0.000 C 
BRANCH  17  18
ATOM     18  C   UNL     1       1.724   2.248  18.383  0.00  0.00    +0.000 C 
BRANCH  18  19
ATOM     19  C   UNL     1       2.943   2.605  17.539  0.00  0.00    +0.000 C 
BRANCH  19  20
ATOM     20  N   UNL     1       4.125   2.696  18.389  0.00  0.00    +0.000 N 
ATOM     21  C   UNL     1       4.887   3.797  18.223  0.00  0.00    +0.000 A 
ATOM     22  N   UNL     1       4.707   4.808  17.408  0.00  0.00    +0.000 NA
ATOM     23  C   UNL     1       5.774   5.643  17.626  0.00  0.00    +0.000 A 
ATOM     24  C   UNL     1       6.093   6.860  17.012  0.00  0.00    +0.000 A 
ATOM     25  C   UNL     1       7.246   7.537  17.433  0.00  0.00    +0.000 A 
ATOM     26  C   UNL     1       8.058   7.012  18.442  0.00  0.00    +0.000 A 
ATOM     27  C   UNL     1       7.758   5.793  19.062  0.00  0.00    +0.000 A 
ATOM     28  C   UNL     1       6.608   5.138  18.618  0.00  0.00    +0.000 A 
ATOM     29  N   UNL     1       6.018   3.957  18.975  0.00  0.00    +0.000 N 
ATOM     30  H   UNL     1       4.626   1.812  18.453  0.00  0.00    +0.000 HD
ATOM     31  H   UNL     1       6.328   3.321  19.692  0.00  0.00    +0.000 HD
ENDBRANCH  19  20
ENDBRANCH  18  19
ENDBRANCH  17  18
ENDBRANCH   3  17
TORSDOF 7
ENDMDL
MODEL 2
REMARK VINA RESULT:      -7.8      0.896      1.472
REMARK  Name = 
REMARK  7 active torsions:
REMARK  status: ('A' for Active; 'I' for Inactive)
REMARK    1  A    between atoms: C_2  and  C_17
REMARK    2  A    between atoms: N_3  and  C_4
REMARK    3  A    between atoms: C_4  and  C_5
REMARK    4  A    between atoms: C_5  and  C_6
REMARK    5  A    between atoms: C_6  and  N_7
REMARK    6  A    between atoms: C_20  and  C_21
REMARK    7  A    between atoms: C_21  and  N_22
REMARK                            x       y       z     vdW  Elec       q    Type
REMARK                         _______ _______ _______ _____ _____    ______ ____
ROOT
ATOM      1  O   UNL     1       2.666   4.553  21.185  0.00  0.00    +0.000 OA
ATOM      2  C   UNL     1       2.026   4.914  20.210  0.00  0.00    +0.000 C 
ATOM      3  N   UNL     1       1.321   4.032  19.413  0.00  0.00    +0.000 N 
ATOM      4  H   UNL     1       0.774   4.368  18.634  0.00  0.00    +0.000 HD
ENDROOT
BRANCH   2   5
ATOM      5  C   UNL     1       1.938   6.355  19.868  0.00  0.00    +0.000 A 
ATOM      6  C   UNL     1       1.565   7.360  20.768  0.00  0.00    +0.000 A 
ATOM      7  C   UNL     1       1.443   8.685  20.323  0.00  0.00    +0.000 A 
ATOM      8  C   UNL     1       1.734   9.023  18.991  0.00  0.00    +0.000 A 
ATOM      9  C   UNL     1       2.174   8.017  18.123  0.00  0.00    +0.000 A 
ATOM     10  C   UNL     1       2.245   6.689  18.546  0.00  0.00    +0.000 A 
BRANCH   8  11
ATOM     11  C   UNL     1       1.484  10.418  18.452  0.00  0.00    +0.000 C 
BRANCH  11  12
ATOM     12  N   UNL     1       0.784  11.398  19.282  0.00  0.00    +0.000 NA
ATOM     13  C   UNL     1      -0.618  11.644  18.962  0.00  0.00    +0.000 C 
ATOM     14  C   UNL     1      -0.613  12.921  18.147  0.00  0.00    +0.000 C 
ATOM     15  C   UNL     1       0.517  13.725  18.764  0.00  0.00    +0.000 C 
ATOM     16  C   UNL     1       1.431  12.700  19.426  0.00  0.00    +0.000 C 
ENDBRANCH  11  12
ENDBRANCH   8  11
ENDBRANCH   2   5
BRANCH   3  17
ATOM     17  C   UNL     1       1.274   2.629  19.759  0.00  0.00    +0.000 C 
BRANCH  17  18
ATOM     18  C   UNL     1       1.960   1.728  18.734  0.00  0.00    +0.000 C 
BRANCH  18  19
ATOM     19  C   UNL     1       3.448   2.046  18.634  0.00  0.00    +0.000 C 
BRANCH  19  20
ATOM     20  N   UNL     1       3.673   3.048  17.597  0.00  0.00    +0.000 N 
ATOM     21  C   UNL     1       4.672   3.924  17.831  0.00  0.00    +0.000 A 
ATOM     22  N   UNL     1       5.481   3.996  18.860  0.00  0.00    +0.000 NA
ATOM     23  C   UNL     1       6.293   5.072  18.609  0.00  0.00    +0.000 A 
ATOM     24  C   UNL     1       7.324   5.612  19.386  0.00  0.00    +0.000 A 
ATOM     25  C   UNL     1       8.024   6.720  18.890  0.00  0.00    +0.000 A 
ATOM     26  C   UNL     1       7.703   7.274  17.647  0.00  0.00    +0.000 A 
ATOM     27  C   UNL     1       6.670   6.751  16.859  0.00  0.00    +0.000 A 
ATOM     28  C   UNL     1       5.986   5.652  17.382  0.00  0.00    +0.000 A 
ATOM     29  N   UNL     1       4.945   4.901  16.913  0.00  0.00    +0.000 N 
ATOM     30  H   UNL     1       2.804   3.445  17.247  0.00  0.00    +0.000 HD
ATOM     31  H   UNL     1       4.473   5.009  16.030  0.00  0.00    +0.000 HD
ENDBRANCH  19  20
ENDBRANCH  18  19
ENDBRANCH  17  18
ENDBRANCH   3  17
TORSDOF 7
ENDMDL
MODEL 3
REMARK VINA RESULT:      -7.8      1.401      1.953
REMARK  Name = 
REMARK  7 active torsions:
REMARK  status: ('A' for Active; 'I' for Inactive)
REMARK    1  A    between atoms: C_2  and  C_17
REMARK    2  A    between atoms: N_3  and  C_4
REMARK    3  A    between atoms: C_4  and  C_5
REMARK    4  A    between atoms: C_5  and  C_6
REMARK    5  A    between atoms: C_6  and  N_7
REMARK    6  A    between atoms: C_20  and  C_21
REMARK    7  A    between atoms: C_21  and  N_22
REMARK                            x       y       z     vdW  Elec       q    Type
REMARK                         _______ _______ _______ _____ _____    ______ ____
ROOT
ATOM      1  O   UNL     1       3.732   5.779  19.910  0.00  0.00    +0.000 OA
ATOM      2  C   UNL     1       2.549   6.059  20.022  0.00  0.00    +0.000 C 
ATOM      3  N   UNL     1       1.621   5.177  20.543  0.00  0.00    +0.000 N 
ATOM      4  H   UNL     1       0.656   5.453  20.654  0.00  0.00    +0.000 HD
ENDROOT
BRANCH   2   5
ATOM      5  C   UNL     1       2.063   7.407  19.639  0.00  0.00    +0.000 A 
ATOM      6  C   UNL     1       2.220   7.972  18.368  0.00  0.00    +0.000 A 
ATOM      7  C   UNL     1       1.788   9.286  18.132  0.00  0.00    +0.000 A 
ATOM      8  C   UNL     1       1.157  10.028  19.146  0.00  0.00    +0.000 A 
ATOM      9  C   UNL     1       0.945   9.420  20.388  0.00  0.00    +0.000 A 
ATOM     10  C   UNL     1       1.422   8.134  20.646  0.00  0.00    +0.000 A 
BRANCH   8  11
ATOM     11  C   UNL     1       0.801  11.489  18.958  0.00  0.00    +0.000 C 
BRANCH  11  12
ATOM     12  N   UNL     1       0.637  12.348  20.130  0.00  0.00    +0.000 NA
ATOM     13  C   UNL     1      -0.719  12.800  20.426  0.00  0.00    +0.000 C 
ATOM     14  C   UNL     1      -0.790  14.208  19.870  0.00  0.00    +0.000 C 
ATOM     15  C   UNL     1       0.609  14.747  20.106  0.00  0.00    +0.000 C 
ATOM     16  C   UNL     1       1.508  13.519  20.197  0.00  0.00    +0.000 C 
ENDBRANCH  11  12
ENDBRANCH   8  11
ENDBRANCH   2   5
BRANCH   3  17
ATOM     17  C   UNL     1       2.051   3.889  21.040  0.00  0.00    +0.000 C 
BRANCH  17  18
ATOM     18  C   UNL     1       1.453   2.713  20.270  0.00  0.00    +0.000 C 
BRANCH  18  19
ATOM     19  C   UNL     1       2.537   1.923  19.547  0.00  0.00    +0.000 C 
BRANCH  19  20
ATOM     20  N   UNL     1       3.843   2.520  19.805  0.00  0.00    +0.000 N 
ATOM     21  C   UNL     1       4.446   3.099  18.746  0.00  0.00    +0.000 A 
ATOM     22  N   UNL     1       4.017   3.209  17.512  0.00  0.00    +0.000 NA
ATOM     23  C   UNL     1       5.017   3.863  16.838  0.00  0.00    +0.000 A 
ATOM     24  C   UNL     1       5.093   4.226  15.487  0.00  0.00    +0.000 A 
ATOM     25  C   UNL     1       6.230   4.913  15.044  0.00  0.00    +0.000 A 
ATOM     26  C   UNL     1       7.266   5.232  15.928  0.00  0.00    +0.000 A 
ATOM     27  C   UNL     1       7.210   4.872  17.280  0.00  0.00    +0.000 A 
ATOM     28  C   UNL     1       6.068   4.182  17.691  0.00  0.00    +0.000 A 
ATOM     29  N   UNL     1       5.676   3.676  18.900  0.00  0.00    +0.000 N 
ATOM     30  H   UNL     1       4.432   1.929  20.386  0.00  0.00    +0.000 HD
ATOM     31  H   UNL     1       6.177   3.742  19.771  0.00  0.00    +0.000 HD
ENDBRANCH  19  20
ENDBRANCH  18  19
ENDBRANCH  17  18
ENDBRANCH   3  17
TORSDOF 7
ENDMDL
MODEL 4
REMARK VINA RESULT:      -7.8      1.521      2.038
REMARK  Name = 
REMARK  7 active torsions:
REMARK  status: ('A' for Active; 'I' for Inactive)
REMARK    1  A    between atoms: C_2  and  C_17
REMARK    2  A    between atoms: N_3  and  C_4
REMARK    3  A    between atoms: C_4  and  C_5
REMARK    4  A    between atoms: C_5  and  C_6
REMARK    5  A    between atoms: C_6  and  N_7
REMARK    6  A    between atoms: C_20  and  C_21
REMARK    7  A    between atoms: C_21  and  N_22
REMARK                            x       y       z     vdW  Elec       q    Type
REMARK                         _______ _______ _______ _____ _____    ______ ____
ROOT
ATOM      1  O   UNL     1       3.093   6.320  19.084  0.00  0.00    +0.000 OA
ATOM      2  C   UNL     1       2.219   6.700  19.848  0.00  0.00    +0.000 C 
ATOM      3  N   UNL     1       1.696   5.893  20.840  0.00  0.00    +0.000 N 
ATOM      4  H   UNL     1       0.999   6.248  21.478  0.00  0.00    +0.000 HD
ENDROOT
BRANCH   2   5
ATOM      5  C   UNL     1       1.713   8.091  19.769  0.00  0.00    +0.000 A 
ATOM      6  C   UNL     1       1.043   8.750  20.807  0.00  0.00    +0.000 A 
ATOM      7  C   UNL     1       0.540  10.043  20.602  0.00  0.00    +0.000 A 
ATOM      8  C   UNL     1       0.739  10.705  19.378  0.00  0.00    +0.000 A 
ATOM      9  C   UNL     1       1.473  10.058  18.377  0.00  0.00    +0.000 A 
ATOM     10  C   UNL     1       1.928   8.751  18.556  0.00  0.00    +0.000 A 
BRANCH   8  11
ATOM     11  C   UNL     1       0.095  12.046  19.085  0.00  0.00    +0.000 C 
BRANCH  11  12
ATOM     12  N   UNL     1       0.660  13.262  19.668  0.00  0.00    +0.000 NA
ATOM     13  C   UNL     1       0.845  14.395  18.767  0.00  0.00    +0.000 C 
ATOM     14  C   UNL     1       2.313  14.361  18.395  0.00  0.00    +0.000 C 
ATOM     15  C   UNL     1       2.984  13.861  19.662  0.00  0.00    +0.000 C 
ATOM     16  C   UNL     1       1.902  13.099  20.420  0.00  0.00    +0.000 C 
ENDBRANCH  11  12
ENDBRANCH   8  11
ENDBRANCH   2   5
BRANCH   3  17
ATOM     17  C   UNL     1       2.227   4.563  21.043  0.00  0.00    +0.000 C 
BRANCH  17  18
ATOM     18  C   UNL     1       1.473   3.485  20.269  0.00  0.00    +0.000 C 
BRANCH  18  19
ATOM     19  C   UNL     1       2.433   2.453  19.688  0.00  0.00    +0.000 C 
BRANCH  19  20
ATOM     20  N   UNL     1       3.810   2.904  19.860  0.00  0.00    +0.000 N 
ATOM     21  C   UNL     1       4.424   3.358  18.749  0.00  0.00    +0.000 A 
ATOM     22  N   UNL     1       3.952   3.461  17.530  0.00  0.00    +0.000 NA
ATOM     23  C   UNL     1       4.987   3.962  16.782  0.00  0.00    +0.000 A 
ATOM     24  C   UNL     1       5.040   4.250  15.412  0.00  0.00    +0.000 A 
ATOM     25  C   UNL     1       6.227   4.779  14.887  0.00  0.00    +0.000 A 
ATOM     26  C   UNL     1       7.333   5.014  15.709  0.00  0.00    +0.000 A 
ATOM     27  C   UNL     1       7.301   4.725  17.078  0.00  0.00    +0.000 A 
ATOM     28  C   UNL     1       6.108   4.194  17.572  0.00  0.00    +0.000 A 
ATOM     29  N   UNL     1       5.719   3.794  18.821  0.00  0.00    +0.000 N 
ATOM     30  H   UNL     1       4.354   2.275  20.445  0.00  0.00    +0.000 HD
ATOM     31  H   UNL     1       6.265   3.840  19.666  0.00  0.00    +0.000 HD
ENDBRANCH  19  20
ENDBRANCH  18  19
ENDBRANCH  17  18
ENDBRANCH   3  17
TORSDOF 7
ENDMDL
MODEL 5
REMARK VINA RESULT:      -7.7      0.781      1.647
REMARK  Name = 
REMARK  7 active torsions:
REMARK  status: ('A' for Active; 'I' for Inactive)
REMARK    1  A    between atoms: C_2  and  C_17
REMARK    2  A    between atoms: N_3  and  C_4
REMARK    3  A    between atoms: C_4  and  C_5
REMARK    4  A    between atoms: C_5  and  C_6
REMARK    5  A    between atoms: C_6  and  N_7
REMARK    6  A    between atoms: C_20  and  C_21
REMARK    7  A    between atoms: C_21  and  N_22
REMARK                            x       y       z     vdW  Elec       q    Type
REMARK                         _______ _______ _______ _____ _____    ______ ____
ROOT
ATOM      1  O   UNL     1       3.037   5.053  20.948  0.00  0.00    +0.000 OA
ATOM      2  C   UNL     1       2.213   5.273  20.074  0.00  0.00    +0.000 C 
ATOM      3  N   UNL     1       1.384   4.290  19.568  0.00  0.00    +0.000 N 
ATOM      4  H   UNL     1       0.689   4.512  18.870  0.00  0.00    +0.000 HD
ENDROOT
BRANCH   2   5
ATOM      5  C   UNL     1       2.033   6.648  19.548  0.00  0.00    +0.000 A 
ATOM      6  C   UNL     1       2.419   7.062  18.269  0.00  0.00    +0.000 A 
ATOM      7  C   UNL     1       2.271   8.407  17.896  0.00  0.00    +0.000 A 
ATOM      8  C   UNL     1       1.696   9.337  18.779  0.00  0.00    +0.000 A 
ATOM      9  C   UNL     1       1.250   8.889  20.028  0.00  0.00    +0.000 A 
ATOM     10  C   UNL     1       1.445   7.565  20.425  0.00  0.00    +0.000 A 
BRANCH   8  11
ATOM     11  C   UNL     1       1.645  10.816  18.454  0.00  0.00    +0.000 C 
BRANCH  11  12
ATOM     12  N   UNL     1       1.032  11.744  19.404  0.00  0.00    +0.000 NA
ATOM     13  C   UNL     1      -0.329  12.181  19.106  0.00  0.00    +0.000 C 
ATOM     14  C   UNL     1      -0.168  13.549  18.476  0.00  0.00    +0.000 C 
ATOM     15  C   UNL     1       1.025  14.135  19.211  0.00  0.00    +0.000 C 
ATOM     16  C   UNL     1       1.809  12.936  19.733  0.00  0.00    +0.000 C 
ENDBRANCH  11  12
ENDBRANCH   8  11
ENDBRANCH   2   5
BRANCH   3  17
ATOM     17  C   UNL     1       1.431   2.954  20.119  0.00  0.00    +0.000 C 
BRANCH  17  18
ATOM     18  C   UNL     1       1.796   1.887  19.089  0.00  0.00    +0.000 C 
BRANCH  18  19
ATOM     19  C   UNL     1       3.291   1.900  18.791  0.00  0.00    +0.000 C 
BRANCH  19  20
ATOM     20  N   UNL     1       3.564   2.781  17.660  0.00  0.00    +0.000 N 
ATOM     21  C   UNL     1       4.553   3.681  17.839  0.00  0.00    +0.000 A 
ATOM     22  N   UNL     1       5.316   3.869  18.889  0.00  0.00    +0.000 NA
ATOM     23  C   UNL     1       6.140   4.913  18.555  0.00  0.00    +0.000 A 
ATOM     24  C   UNL     1       7.137   5.540  19.312  0.00  0.00    +0.000 A 
ATOM     25  C   UNL     1       7.861   6.587  18.727  0.00  0.00    +0.000 A 
ATOM     26  C   UNL     1       7.596   6.998  17.417  0.00  0.00    +0.000 A 
ATOM     27  C   UNL     1       6.598   6.388  16.647  0.00  0.00    +0.000 A 
ATOM     28  C   UNL     1       5.890   5.352  17.259  0.00  0.00    +0.000 A 
ATOM     29  N   UNL     1       4.868   4.550  16.831  0.00  0.00    +0.000 N 
ATOM     30  H   UNL     1       2.712   3.134  17.229  0.00  0.00    +0.000 HD
ATOM     31  H   UNL     1       4.436   4.558  15.921  0.00  0.00    +0.000 HD
ENDBRANCH  19  20
ENDBRANCH  18  19
ENDBRANCH  17  18
ENDBRANCH   3  17
TORSDOF 7
ENDMDL
MODEL 6
REMARK VINA RESULT:      -7.7      1.968      4.342
REMARK  Name = 
REMARK  7 active torsions:
REMARK  status: ('A' for Active; 'I' for Inactive)
REMARK    1  A    between atoms: C_2  and  C_17
REMARK    2  A    between atoms: N_3  and  C_4
REMARK    3  A    between atoms: C_4  and  C_5
REMARK    4  A    between atoms: C_5  and  C_6
REMARK    5  A    between atoms: C_6  and  N_7
REMARK    6  A    between atoms: C_20  and  C_21
REMARK    7  A    between atoms: C_21  and  N_22
REMARK                            x       y       z     vdW  Elec       q    Type
REMARK                         _______ _______ _______ _____ _____    ______ ____
ROOT
ATOM      1  O   UNL     1       2.634   5.948  17.458  0.00  0.00    +0.000 OA
ATOM      2  C   UNL     1       3.138   6.957  17.929  0.00  0.00    +0.000 C 
ATOM      3  N   UNL     1       4.465   7.288  17.733  0.00  0.00    +0.000 N 
ATOM      4  H   UNL     1       4.841   8.147  18.106  0.00  0.00    +0.000 HD
ENDROOT
BRANCH   2   5
ATOM      5  C   UNL     1       2.308   7.911  18.704  0.00  0.00    +0.000 A 
ATOM      6  C   UNL     1       1.956   7.742  20.048  0.00  0.00    +0.000 A 
ATOM      7  C   UNL     1       1.105   8.669  20.668  0.00  0.00    +0.000 A 
ATOM      8  C   UNL     1       0.636   9.793  19.967  0.00  0.00    +0.000 A 
ATOM      9  C   UNL     1       1.056   9.983  18.645  0.00  0.00    +0.000 A 
ATOM     10  C   UNL     1       1.858   9.035  18.007  0.00  0.00    +0.000 A 
BRANCH   8  11
ATOM     11  C   UNL     1      -0.387  10.736  20.569  0.00  0.00    +0.000 C 
BRANCH  11  12
ATOM     12  N   UNL     1      -0.141  11.323  21.886  0.00  0.00    +0.000 NA
ATOM     13  C   UNL     1      -0.900  10.769  23.002  0.00  0.00    +0.000 C 
ATOM     14  C   UNL     1      -2.042  11.741  23.215  0.00  0.00    +0.000 C 
ATOM     15  C   UNL     1      -1.421  13.087  22.887  0.00  0.00    +0.000 C 
ATOM     16  C   UNL     1      -0.242  12.778  21.972  0.00  0.00    +0.000 C 
ENDBRANCH  11  12
ENDBRANCH   8  11
ENDBRANCH   2   5
BRANCH   3  17
ATOM     17  C   UNL     1       5.298   6.458  16.892  0.00  0.00    +0.000 C 
BRANCH  17  18
ATOM     18  C   UNL     1       6.672   6.170  17.494  0.00  0.00    +0.000 C 
BRANCH  18  19
ATOM     19  C   UNL     1       6.801   4.705  17.892  0.00  0.00    +0.000 C 
BRANCH  19  20
ATOM     20  N   UNL     1       5.692   3.939  17.332  0.00  0.00    +0.000 N 
ATOM     21  C   UNL     1       4.670   3.682  18.174  0.00  0.00    +0.000 A 
ATOM     22  N   UNL     1       4.526   4.035  19.428  0.00  0.00    +0.000 NA
ATOM     23  C   UNL     1       3.322   3.506  19.818  0.00  0.00    +0.000 A 
ATOM     24  C   UNL     1       2.684   3.562  21.063  0.00  0.00    +0.000 A 
ATOM     25  C   UNL     1       1.432   2.948  21.200  0.00  0.00    +0.000 A 
ATOM     26  C   UNL     1       0.831   2.295  20.120  0.00  0.00    +0.000 A 
ATOM     27  C   UNL     1       1.457   2.223  18.869  0.00  0.00    +0.000 A 
ATOM     28  C   UNL     1       2.706   2.838  18.765  0.00  0.00    +0.000 A 
ATOM     29  N   UNL     1       3.593   2.964  17.731  0.00  0.00    +0.000 N 
ATOM     30  H   UNL     1       6.009   3.157  16.764  0.00  0.00    +0.000 HD
ATOM     31  H   UNL     1       3.474   2.624  16.790  0.00  0.00    +0.000 HD
ENDBRANCH  19  20
ENDBRANCH  18  19
ENDBRANCH  17  18
ENDBRANCH   3  17
TORSDOF 7
ENDMDL
MODEL 7
REMARK VINA RESULT:      -7.6      1.877      4.390
REMARK  Name = 
REMARK  7 active torsions:
REMARK  status: ('A' for Active; 'I' for Inactive)
REMARK    1  A    between atoms: C_2  and  C_17
REMARK    2  A    between atoms: N_3  and  C_4
REMARK    3  A    between atoms: C_4  and  C_5
REMARK    4  A    between atoms: C_5  and  C_6
REMARK    5  A    between atoms: C_6  and  N_7
REMARK    6  A    between atoms: C_20  and  C_21
REMARK    7  A    between atoms: C_21  and  N_22
REMARK                            x       y       z     vdW  Elec       q    Type
REMARK                         _______ _______ _______ _____ _____    ______ ____
ROOT
ATOM      1  O   UNL     1       3.660   5.986  17.058  0.00  0.00    +0.000 OA
ATOM      2  C   UNL     1       3.897   7.019  17.665  0.00  0.00    +0.000 C 
ATOM      3  N   UNL     1       5.178   7.513  17.821  0.00  0.00    +0.000 N 
ATOM      4  H   UNL     1       5.336   8.388  18.299  0.00  0.00    +0.000 HD
ENDROOT
BRANCH   2   5
ATOM      5  C   UNL     1       2.786   7.825  18.226  0.00  0.00    +0.000 A 
ATOM      6  C   UNL     1       2.116   8.839  17.532  0.00  0.00    +0.000 A 
ATOM      7  C   UNL     1       1.126   9.592  18.181  0.00  0.00    +0.000 A 
ATOM      8  C   UNL     1       0.766   9.310  19.510  0.00  0.00    +0.000 A 
ATOM      9  C   UNL     1       1.397   8.245  20.164  0.00  0.00    +0.000 A 
ATOM     10  C   UNL     1       2.420   7.529  19.542  0.00  0.00    +0.000 A 
BRANCH   8  11
ATOM     11  C   UNL     1      -0.203  10.189  20.276  0.00  0.00    +0.000 C 
BRANCH  11  12
ATOM     12  N   UNL     1       0.223  10.811  21.530  0.00  0.00    +0.000 NA
ATOM     13  C   UNL     1      -0.349  10.266  22.757  0.00  0.00    +0.000 C 
ATOM     14  C   UNL     1      -1.469  11.219  23.120  0.00  0.00    +0.000 C 
ATOM     15  C   UNL     1      -0.937  12.570  22.676  0.00  0.00    +0.000 C 
ATOM     16  C   UNL     1       0.100  12.265  21.602  0.00  0.00    +0.000 C 
ENDBRANCH  11  12
ENDBRANCH   8  11
ENDBRANCH   2   5
BRANCH   3  17
ATOM     17  C   UNL     1       6.293   6.834  17.200  0.00  0.00    +0.000 C 
BRANCH  17  18
ATOM     18  C   UNL     1       7.359   6.384  18.197  0.00  0.00    +0.000 C 
BRANCH  18  19
ATOM     19  C   UNL     1       7.554   4.873  18.147  0.00  0.00    +0.000 C 
BRANCH  19  20
ATOM     20  N   UNL     1       6.506   4.264  17.334  0.00  0.00    +0.000 N 
ATOM     21  C   UNL     1       5.427   3.812  18.006  0.00  0.00    +0.000 A 
ATOM     22  N   UNL     1       5.181   3.852  19.293  0.00  0.00    +0.000 NA
ATOM     23  C   UNL     1       3.961   3.244  19.448  0.00  0.00    +0.000 A 
ATOM     24  C   UNL     1       3.229   2.998  20.616  0.00  0.00    +0.000 A 
ATOM     25  C   UNL     1       1.982   2.369  20.502  0.00  0.00    +0.000 A 
ATOM     26  C   UNL     1       1.478   1.995  19.252  0.00  0.00    +0.000 A 
ATOM     27  C   UNL     1       2.199   2.227  18.075  0.00  0.00    +0.000 A 
ATOM     28  C   UNL     1       3.441   2.849  18.220  0.00  0.00    +0.000 A 
ATOM     29  N   UNL     1       4.401   3.221  17.320  0.00  0.00    +0.000 N 
ATOM     30  H   UNL     1       6.880   3.642  16.621  0.00  0.00    +0.000 HD
ATOM     31  H   UNL     1       4.362   3.118  16.319  0.00  0.00    +0.000 HD
ENDBRANCH  19  20
ENDBRANCH  18  19
ENDBRANCH  17  18
ENDBRANCH   3  17
TORSDOF 7
ENDMDL
MODEL 8
REMARK VINA RESULT:      -7.5      2.218      4.581
REMARK  Name = 
REMARK  7 active torsions:
REMARK  status: ('A' for Active; 'I' for Inactive)
REMARK    1  A    between atoms: C_2  and  C_17
REMARK    2  A    between atoms: N_3  and  C_4
REMARK    3  A    between atoms: C_4  and  C_5
REMARK    4  A    between atoms: C_5  and  C_6
REMARK    5  A    between atoms: C_6  and  N_7
REMARK    6  A    between atoms: C_20  and  C_21
REMARK    7  A    between atoms: C_21  and  N_22
REMARK                            x       y       z     vdW  Elec       q    Type
REMARK                         _______ _______ _______ _____ _____    ______ ____
ROOT
ATOM      1  O   UNL     1       4.507   7.095  15.780  0.00  0.00    +0.000 OA
ATOM      2  C   UNL     1       4.648   7.092  16.994  0.00  0.00    +0.000 C 
ATOM      3  N   UNL     1       5.850   6.791  17.604  0.00  0.00    +0.000 N 
ATOM      4  H   UNL     1       5.942   6.832  18.608  0.00  0.00    +0.000 HD
ENDROOT
BRANCH   2   5
ATOM      5  C   UNL     1       3.517   7.473  17.875  0.00  0.00    +0.000 A 
ATOM      6  C   UNL     1       2.644   8.538  17.626  0.00  0.00    +0.000 A 
ATOM      7  C   UNL     1       1.650   8.859  18.562  0.00  0.00    +0.000 A 
ATOM      8  C   UNL     1       1.492   8.095  19.731  0.00  0.00    +0.000 A 
ATOM      9  C   UNL     1       2.329   6.990  19.929  0.00  0.00    +0.000 A 
ATOM     10  C   UNL     1       3.354   6.699  19.028  0.00  0.00    +0.000 A 
BRANCH   8  11
ATOM     11  C   UNL     1       0.517   8.498  20.819  0.00  0.00    +0.000 C 
BRANCH  11  12
ATOM     12  N   UNL     1       0.849   9.609  21.711  0.00  0.00    +0.000 NA
ATOM     13  C   UNL     1       0.362   9.515  23.084  0.00  0.00    +0.000 C 
ATOM     14  C   UNL     1      -0.883  10.377  23.114  0.00  0.00    +0.000 C 
ATOM     15  C   UNL     1      -0.549  11.506  22.155  0.00  0.00    +0.000 C 
ATOM     16  C   UNL     1       0.521  10.946  21.225  0.00  0.00    +0.000 C 
ENDBRANCH  11  12
ENDBRANCH   8  11
ENDBRANCH   2   5
BRANCH   3  17
ATOM     17  C   UNL     1       7.020   6.522  16.797  0.00  0.00    +0.000 C 
BRANCH  17  18
ATOM     18  C   UNL     1       7.404   5.044  16.758  0.00  0.00    +0.000 C 
BRANCH  18  19
ATOM     19  C   UNL     1       6.184   4.155  16.969  0.00  0.00    +0.000 C 
BRANCH  19  20
ATOM     20  N   UNL     1       6.080   3.780  18.376  0.00  0.00    +0.000 N 
ATOM     21  C   UNL     1       4.832   3.565  18.838  0.00  0.00    +0.000 A 
ATOM     22  N   UNL     1       3.691   3.636  18.195  0.00  0.00    +0.000 NA
ATOM     23  C   UNL     1       2.730   3.344  19.129  0.00  0.00    +0.000 A 
ATOM     24  C   UNL     1       1.337   3.296  18.991  0.00  0.00    +0.000 A 
ATOM     25  C   UNL     1       0.568   2.949  20.109  0.00  0.00    +0.000 A 
ATOM     26  C   UNL     1       1.173   2.657  21.335  0.00  0.00    +0.000 A 
ATOM     27  C   UNL     1       2.563   2.707  21.493  0.00  0.00    +0.000 A 
ATOM     28  C   UNL     1       3.304   3.062  20.364  0.00  0.00    +0.000 A 
ATOM     29  N   UNL     1       4.645   3.216  20.148  0.00  0.00    +0.000 N 
ATOM     30  H   UNL     1       6.687   4.339  18.972  0.00  0.00    +0.000 HD
ATOM     31  H   UNL     1       5.385   3.067  20.815  0.00  0.00    +0.000 HD
ENDBRANCH  19  20
ENDBRANCH  18  19
ENDBRANCH  17  18
ENDBRANCH   3  17
TORSDOF 7
ENDMDL
MODEL 9
REMARK VINA RESULT:      -7.5      3.331      4.158
REMARK  Name = 
REMARK  7 active torsions:
REMARK  status: ('A' for Active; 'I' for Inactive)
REMARK    1  A    between atoms: C_2  and  C_17
REMARK    2  A    between atoms: N_3  and  C_4
REMARK    3  A    between atoms: C_4  and  C_5
REMARK    4  A    between atoms: C_5  and  C_6
REMARK    5  A    between atoms: C_6  and  N_7
REMARK    6  A    between atoms: C_20  and  C_21
REMARK    7  A    between atoms: C_21  and  N_22
REMARK                            x       y       z     vdW  Elec       q    Type
REMARK                         _______ _______ _______ _____ _____    ______ ____
ROOT
ATOM      1  O   UNL     1       1.754   8.651  19.400  0.00  0.00    +0.000 OA
ATOM      2  C   UNL     1       1.238   8.327  20.458  0.00  0.00    +0.000 C 
ATOM      3  N   UNL     1       1.351   7.053  20.983  0.00  0.00    +0.000 N 
ATOM      4  H   UNL     1       0.941   6.827  21.877  0.00  0.00    +0.000 HD
ENDROOT
BRANCH   2   5
ATOM      5  C   UNL     1       0.495   9.327  21.261  0.00  0.00    +0.000 A 
ATOM      6  C   UNL     1       0.009   9.101  22.554  0.00  0.00    +0.000 A 
ATOM      7  C   UNL     1      -0.746  10.091  23.200  0.00  0.00    +0.000 A 
ATOM      8  C   UNL     1      -0.985  11.330  22.579  0.00  0.00    +0.000 A 
ATOM      9  C   UNL     1      -0.431  11.564  21.315  0.00  0.00    +0.000 A 
ATOM     10  C   UNL     1       0.275  10.563  20.646  0.00  0.00    +0.000 A 
BRANCH   8  11
ATOM     11  C   UNL     1      -1.905  12.364  23.196  0.00  0.00    +0.000 C 
BRANCH  11  12
ATOM     12  N   UNL     1      -3.353  12.173  23.130  0.00  0.00    +0.000 NA
ATOM     13  C   UNL     1      -4.041  12.759  21.984  0.00  0.00    +0.000 C 
ATOM     14  C   UNL     1      -4.630  14.054  22.505  0.00  0.00    +0.000 C 
ATOM     15  C   UNL     1      -5.002  13.717  23.938  0.00  0.00    +0.000 C 
ATOM     16  C   UNL     1      -4.107  12.545  24.325  0.00  0.00    +0.000 C 
ENDBRANCH  11  12
ENDBRANCH   8  11
ENDBRANCH   2   5
BRANCH   3  17
ATOM     17  C   UNL     1       2.158   6.063  20.304  0.00  0.00    +0.000 C 
BRANCH  17  18
ATOM     18  C   UNL     1       2.181   4.711  21.013  0.00  0.00    +0.000 C 
BRANCH  18  19
ATOM     19  C   UNL     1       2.587   3.596  20.056  0.00  0.00    +0.000 C 
BRANCH  19  20
ATOM     20  N   UNL     1       4.042   3.521  19.972  0.00  0.00    +0.000 N 
ATOM     21  C   UNL     1       4.585   3.901  18.797  0.00  0.00    +0.000 A 
ATOM     22  N   UNL     1       3.986   4.341  17.717  0.00  0.00    +0.000 NA
ATOM     23  C   UNL     1       4.992   4.567  16.811  0.00  0.00    +0.000 A 
ATOM     24  C   UNL     1       4.917   5.024  15.490  0.00  0.00    +0.000 A 
ATOM     25  C   UNL     1       6.108   5.190  14.773  0.00  0.00    +0.000 A 
ATOM     26  C   UNL     1       7.345   4.908  15.360  0.00  0.00    +0.000 A 
ATOM     27  C   UNL     1       7.439   4.444  16.678  0.00  0.00    +0.000 A 
ATOM     28  C   UNL     1       6.235   4.281  17.365  0.00  0.00    +0.000 A 
ATOM     29  N   UNL     1       5.942   3.854  18.631  0.00  0.00    +0.000 N 
ATOM     30  H   UNL     1       4.410   2.663  20.376  0.00  0.00    +0.000 HD
ATOM     31  H   UNL     1       6.600   3.583  19.343  0.00  0.00    +0.000 HD
ENDBRANCH  19  20
ENDBRANCH  18  19
ENDBRANCH  17  18
ENDBRANCH   3  17
TORSDOF 7
ENDMDL
