MODEL 1
REMARK VINA RESULT:      -6.6      0.000      0.000
REMARK  Name = 
REMARK  7 active torsions:
REMARK  status: ('A' for Active; 'I' for Inactive)
REMARK    1  A    between atoms: C_1  and  C_2
REMARK    2  A    between atoms: C_5  and  N_6
REMARK    3  A    between atoms: N_9  and  C_10
REMARK    4  A    between atoms: C_10  and  C_11
REMARK    5  A    between atoms: C_11  and  O_12
REMARK    6  A    between atoms: O_12  and  C_13
REMARK    7  A    between atoms: C_13  and  C_14
REMARK                            x       y       z     vdW  Elec       q    Type
REMARK                         _______ _______ _______ _____ _____    ______ ____
ROOT
ATOM      1  C   UNL     1       4.668   5.910  18.451  0.00  0.00    +0.000 C 
ENDROOT
BRANCH   1   7
ATOM      2  C   UNL     1       3.815   3.496  16.791  0.00  0.00    +0.000 C 
ATOM      3  C   UNL     1       5.131   4.186  16.687  0.00  0.00    +0.000 A 
ATOM      4  N   UNL     1       6.111   3.817  15.884  0.00  0.00    +0.000 NA
ATOM      5  C   UNL     1       7.138   4.697  16.109  0.00  0.00    +0.000 A 
ATOM      6  C   UNL     1       6.771   5.623  17.053  0.00  0.00    +0.000 A 
ATOM      7  N   UNL     1       5.488   5.297  17.427  0.00  0.00    +0.000 N 
BRANCH   6   8
ATOM      8  N   UNL     1       7.549   6.705  17.552  0.00  0.00    +0.000 N 
ATOM      9  O   UNL     1       8.014   6.572  18.689  0.00  0.00    +0.000 OA
ATOM     10  O   UNL     1       7.712   7.688  16.819  0.00  0.00    +0.000 OA
ENDBRANCH   6   8
ENDBRANCH   1   7
BRANCH   1  11
ATOM     11  C   UNL     1       3.659   6.917  17.900  0.00  0.00    +0.000 C 
BRANCH  11  12
ATOM     12  O   UNL     1       2.329   6.629  18.336  0.00  0.00    +0.000 OA
BRANCH  12  13
ATOM     13  C   UNL     1       2.232   6.478  19.756  0.00  0.00    +0.000 C 
BRANCH  13  14
ATOM     14  C   UNL     1       1.923   5.050  20.123  0.00  0.00    +0.000 A 
ATOM     15  C   UNL     1       1.259   4.230  19.197  0.00  0.00    +0.000 A 
ATOM     16  C   UNL     1       0.976   2.899  19.503  0.00  0.00    +0.000 A 
ATOM     17  C   UNL     1       1.367   2.369  20.729  0.00  0.00    +0.000 A 
ATOM     18  C   UNL     1       2.047   3.168  21.648  0.00  0.00    +0.000 A 
ATOM     19  C   UNL     1       2.330   4.500  21.345  0.00  0.00    +0.000 A 
ENDBRANCH  13  14
ENDBRANCH  12  13
ENDBRANCH  11  12
ENDBRANCH   1  11
TORSDOF 6
ENDMDL
MODEL 2
REMARK VINA RESULT:      -6.5      1.545      2.079
REMARK  Name = 
REMARK  7 active torsions:
REMARK  status: ('A' for Active; 'I' for Inactive)
REMARK    1  A    between atoms: C_1  and  C_2
REMARK    2  A    between atoms: C_5  and  N_6
REMARK    3  A    between atoms: N_9  and  C_10
REMARK    4  A    between atoms: C_10  and  C_11
REMARK    5  A    between atoms: C_11  and  O_12
REMARK    6  A    between atoms: O_12  and  C_13
REMARK    7  A    between atoms: C_13  and  C_14
REMARK                            x       y       z     vdW  Elec       q    Type
REMARK                         _______ _______ _______ _____ _____    ______ ____
ROOT
ATOM      1  C   UNL     1       4.288   5.207  16.832  0.00  0.00    +0.000 C 
ENDROOT
BRANCH   1   7
ATOM      2  C   UNL     1       5.980   5.117  14.294  0.00  0.00    +0.000 C 
ATOM      3  C   UNL     1       6.490   4.879  15.674  0.00  0.00    +0.000 A 
ATOM      4  N   UNL     1       7.737   4.564  15.969  0.00  0.00    +0.000 NA
ATOM      5  C   UNL     1       7.779   4.418  17.331  0.00  0.00    +0.000 A 
ATOM      6  C   UNL     1       6.542   4.662  17.873  0.00  0.00    +0.000 A 
ATOM      7  N   UNL     1       5.714   4.954  16.815  0.00  0.00    +0.000 N 
BRANCH   6   8
ATOM      8  N   UNL     1       6.176   4.623  19.248  0.00  0.00    +0.000 N 
ATOM      9  O   UNL     1       6.721   5.450  19.987  0.00  0.00    +0.000 OA
ATOM     10  O   UNL     1       5.343   3.780  19.603  0.00  0.00    +0.000 OA
ENDBRANCH   6   8
ENDBRANCH   1   7
BRANCH   1  11
ATOM     11  C   UNL     1       3.912   6.513  17.534  0.00  0.00    +0.000 C 
BRANCH  11  12
ATOM     12  O   UNL     1       2.646   6.417  18.190  0.00  0.00    +0.000 OA
BRANCH  12  13
ATOM     13  C   UNL     1       1.962   5.194  17.899  0.00  0.00    +0.000 C 
BRANCH  13  14
ATOM     14  C   UNL     1       1.847   4.339  19.134  0.00  0.00    +0.000 A 
ATOM     15  C   UNL     1       1.453   2.997  19.010  0.00  0.00    +0.000 A 
ATOM     16  C   UNL     1       1.357   2.178  20.134  0.00  0.00    +0.000 A 
ATOM     17  C   UNL     1       1.666   2.686  21.393  0.00  0.00    +0.000 A 
ATOM     18  C   UNL     1       2.080   4.011  21.527  0.00  0.00    +0.000 A 
ATOM     19  C   UNL     1       2.176   4.832  20.403  0.00  0.00    +0.000 A 
ENDBRANCH  13  14
ENDBRANCH  12  13
ENDBRANCH  11  12
ENDBRANCH   1  11
TORSDOF 6
ENDMDL
MODEL 3
REMARK VINA RESULT:      -6.5      2.103      2.897
REMARK  Name = 
REMARK  7 active torsions:
REMARK  status: ('A' for Active; 'I' for Inactive)
REMARK    1  A    between atoms: C_1  and  C_2
REMARK    2  A    between atoms: C_5  and  N_6
REMARK    3  A    between atoms: N_9  and  C_10
REMARK    4  A    between atoms: C_10  and  C_11
REMARK    5  A    between atoms: C_11  and  O_12
REMARK    6  A    between atoms: O_12  and  C_13
REMARK    7  A    between atoms: C_13  and  C_14
REMARK                            x       y       z     vdW  Elec       q    Type
REMARK                         _______ _______ _______ _____ _____    ______ ____
ROOT
ATOM      1  C   UNL     1       5.198   6.670  16.814  0.00  0.00    +0.000 C 
ENDROOT
BRANCH   1   7
ATOM      2  C   UNL     1       7.661   8.323  17.531  0.00  0.00    +0.000 C 
ATOM      3  C   UNL     1       7.350   6.970  18.070  0.00  0.00    +0.000 A 
ATOM      4  N   UNL     1       8.122   6.298  18.903  0.00  0.00    +0.000 NA
ATOM      5  C   UNL     1       7.485   5.106  19.133  0.00  0.00    +0.000 A 
ATOM      6  C   UNL     1       6.302   5.058  18.440  0.00  0.00    +0.000 A 
ATOM      7  N   UNL     1       6.213   6.249  17.757  0.00  0.00    +0.000 N 
BRANCH   6   8
ATOM      8  N   UNL     1       5.351   4.000  18.423  0.00  0.00    +0.000 N 
ATOM      9  O   UNL     1       4.860   3.717  17.325  0.00  0.00    +0.000 OA
ATOM     10  O   UNL     1       5.090   3.437  19.493  0.00  0.00    +0.000 OA
ENDBRANCH   6   8
ENDBRANCH   1   7
BRANCH   1  11
ATOM     11  C   UNL     1       4.035   7.417  17.468  0.00  0.00    +0.000 C 
BRANCH  11  12
ATOM     12  O   UNL     1       2.945   6.543  17.771  0.00  0.00    +0.000 OA
BRANCH  12  13
ATOM     13  C   UNL     1       2.686   6.448  19.175  0.00  0.00    +0.000 C 
BRANCH  13  14
ATOM     14  C   UNL     1       2.103   5.102  19.520  0.00  0.00    +0.000 A 
ATOM     15  C   UNL     1       1.687   4.246  18.488  0.00  0.00    +0.000 A 
ATOM     16  C   UNL     1       1.161   2.988  18.778  0.00  0.00    +0.000 A 
ATOM     17  C   UNL     1       1.059   2.564  20.101  0.00  0.00    +0.000 A 
ATOM     18  C   UNL     1       1.489   3.397  21.133  0.00  0.00    +0.000 A 
ATOM     19  C   UNL     1       2.015   4.657  20.845  0.00  0.00    +0.000 A 
ENDBRANCH  13  14
ENDBRANCH  12  13
ENDBRANCH  11  12
ENDBRANCH   1  11
TORSDOF 6
ENDMDL
MODEL 4
REMARK VINA RESULT:      -6.4      1.543      1.935
REMARK  Name = 
REMARK  7 active torsions:
REMARK  status: ('A' for Active; 'I' for Inactive)
REMARK    1  A    between atoms: C_1  and  C_2
REMARK    2  A    between atoms: C_5  and  N_6
REMARK    3  A    between atoms: N_9  and  C_10
REMARK    4  A    between atoms: C_10  and  C_11
REMARK    5  A    between atoms: C_11  and  O_12
REMARK    6  A    between atoms: O_12  and  C_13
REMARK    7  A    between atoms: C_13  and  C_14
REMARK                            x       y       z     vdW  Elec       q    Type
REMARK                         _______ _______ _______ _____ _____    ______ ____
ROOT
ATOM      1  C   UNL     1       5.003   5.872  17.140  0.00  0.00    +0.000 C 
ENDROOT
BRANCH   1   7
ATOM      2  C   UNL     1       4.936   3.876  19.448  0.00  0.00    +0.000 C 
ATOM      3  C   UNL     1       6.042   4.837  19.176  0.00  0.00    +0.000 A 
ATOM      4  N   UNL     1       7.121   4.970  19.924  0.00  0.00    +0.000 NA
ATOM      5  C   UNL     1       7.867   5.962  19.341  0.00  0.00    +0.000 A 
ATOM      6  C   UNL     1       7.237   6.429  18.214  0.00  0.00    +0.000 A 
ATOM      7  N   UNL     1       6.068   5.713  18.108  0.00  0.00    +0.000 N 
BRANCH   6   8
ATOM      8  N   UNL     1       7.691   7.446  17.328  0.00  0.00    +0.000 N 
ATOM      9  O   UNL     1       7.890   7.108  16.157  0.00  0.00    +0.000 OA
ATOM     10  O   UNL     1       7.845   8.586  17.784  0.00  0.00    +0.000 OA
ENDBRANCH   6   8
ENDBRANCH   1   7
BRANCH   1  11
ATOM     11  C   UNL     1       4.157   7.125  17.367  0.00  0.00    +0.000 C 
BRANCH  11  12
ATOM     12  O   UNL     1       2.785   6.804  17.608  0.00  0.00    +0.000 OA
BRANCH  12  13
ATOM     13  C   UNL     1       2.493   6.630  18.998  0.00  0.00    +0.000 C 
BRANCH  13  14
ATOM     14  C   UNL     1       1.911   5.264  19.254  0.00  0.00    +0.000 A 
ATOM     15  C   UNL     1       1.691   4.394  18.174  0.00  0.00    +0.000 A 
ATOM     16  C   UNL     1       1.171   3.118  18.384  0.00  0.00    +0.000 A 
ATOM     17  C   UNL     1       0.878   2.691  19.676  0.00  0.00    +0.000 A 
ATOM     18  C   UNL     1       1.112   3.537  20.759  0.00  0.00    +0.000 A 
ATOM     19  C   UNL     1       1.632   4.815  20.551  0.00  0.00    +0.000 A 
ENDBRANCH  13  14
ENDBRANCH  12  13
ENDBRANCH  11  12
ENDBRANCH   1  11
TORSDOF 6
ENDMDL
MODEL 5
REMARK VINA RESULT:      -6.4      2.029      2.837
REMARK  Name = 
REMARK  7 active torsions:
REMARK  status: ('A' for Active; 'I' for Inactive)
REMARK    1  A    between atoms: C_1  and  C_2
REMARK    2  A    between atoms: C_5  and  N_6
REMARK    3  A    between atoms: N_9  and  C_10
REMARK    4  A    between atoms: C_10  and  C_11
REMARK    5  A    between atoms: C_11  and  O_12
REMARK    6  A    between atoms: O_12  and  C_13
REMARK    7  A    between atoms: C_13  and  C_14
REMARK                            x       y       z     vdW  Elec       q    Type
REMARK                         _______ _______ _______ _____ _____    ______ ____
ROOT
ATOM      1  C   UNL     1       4.149   5.162  17.144  0.00  0.00    +0.000 C 
ENDROOT
BRANCH   1   7
ATOM      2  C   UNL     1       5.614   4.623  14.521  0.00  0.00    +0.000 C 
ATOM      3  C   UNL     1       6.262   4.737  15.858  0.00  0.00    +0.000 A 
ATOM      4  N   UNL     1       7.553   4.585  16.081  0.00  0.00    +0.000 NA
ATOM      5  C   UNL     1       7.728   4.752  17.430  0.00  0.00    +0.000 A 
ATOM      6  C   UNL     1       6.525   5.024  18.034  0.00  0.00    +0.000 A 
ATOM      7  N   UNL     1       5.585   5.012  17.031  0.00  0.00    +0.000 N 
BRANCH   6   8
ATOM      8  N   UNL     1       6.287   5.269  19.416  0.00  0.00    +0.000 N 
ATOM      9  O   UNL     1       5.105   5.374  19.761  0.00  0.00    +0.000 OA
ATOM     10  O   UNL     1       7.266   5.352  20.167  0.00  0.00    +0.000 OA
ENDBRANCH   6   8
ENDBRANCH   1   7
BRANCH   1  11
ATOM     11  C   UNL     1       3.383   3.857  16.928  0.00  0.00    +0.000 C 
BRANCH  11  12
ATOM     12  O   UNL     1       4.126   2.724  17.383  0.00  0.00    +0.000 OA
BRANCH  12  13
ATOM     13  C   UNL     1       3.294   1.709  17.953  0.00  0.00    +0.000 C 
BRANCH  13  14
ATOM     14  C   UNL     1       2.577   2.228  19.172  0.00  0.00    +0.000 A 
ATOM     15  C   UNL     1       3.295   2.426  20.362  0.00  0.00    +0.000 A 
ATOM     16  C   UNL     1       2.661   2.923  21.499  0.00  0.00    +0.000 A 
ATOM     17  C   UNL     1       1.307   3.243  21.457  0.00  0.00    +0.000 A 
ATOM     18  C   UNL     1       0.587   3.071  20.276  0.00  0.00    +0.000 A 
ATOM     19  C   UNL     1       1.220   2.572  19.136  0.00  0.00    +0.000 A 
ENDBRANCH  13  14
ENDBRANCH  12  13
ENDBRANCH  11  12
ENDBRANCH   1  11
TORSDOF 6
ENDMDL
MODEL 6
REMARK VINA RESULT:      -6.4      1.543      2.202
REMARK  Name = 
REMARK  7 active torsions:
REMARK  status: ('A' for Active; 'I' for Inactive)
REMARK    1  A    between atoms: C_1  and  C_2
REMARK    2  A    between atoms: C_5  and  N_6
REMARK    3  A    between atoms: N_9  and  C_10
REMARK    4  A    between atoms: C_10  and  C_11
REMARK    5  A    between atoms: C_11  and  O_12
REMARK    6  A    between atoms: O_12  and  C_13
REMARK    7  A    between atoms: C_13  and  C_14
REMARK                            x       y       z     vdW  Elec       q    Type
REMARK                         _______ _______ _______ _____ _____    ______ ____
ROOT
ATOM      1  C   UNL     1       4.905   5.822  17.193  0.00  0.00    +0.000 C 
ENDROOT
BRANCH   1   7
ATOM      2  C   UNL     1       4.949   3.988  19.631  0.00  0.00    +0.000 C 
ATOM      3  C   UNL     1       6.049   4.909  19.231  0.00  0.00    +0.000 A 
ATOM      4  N   UNL     1       7.173   5.074  19.904  0.00  0.00    +0.000 NA
ATOM      5  C   UNL     1       7.895   6.011  19.212  0.00  0.00    +0.000 A 
ATOM      6  C   UNL     1       7.206   6.412  18.095  0.00  0.00    +0.000 A 
ATOM      7  N   UNL     1       6.024   5.711  18.106  0.00  0.00    +0.000 N 
BRANCH   6   8
ATOM      8  N   UNL     1       7.620   7.359  17.116  0.00  0.00    +0.000 N 
ATOM      9  O   UNL     1       7.949   6.906  16.015  0.00  0.00    +0.000 OA
ATOM     10  O   UNL     1       7.615   8.556  17.430  0.00  0.00    +0.000 OA
ENDBRANCH   6   8
ENDBRANCH   1   7
BRANCH   1  11
ATOM     11  C   UNL     1       4.113   7.120  17.358  0.00  0.00    +0.000 C 
BRANCH  11  12
ATOM     12  O   UNL     1       2.727   6.868  17.602  0.00  0.00    +0.000 OA
BRANCH  12  13
ATOM     13  C   UNL     1       2.437   6.661  18.988  0.00  0.00    +0.000 C 
BRANCH  13  14
ATOM     14  C   UNL     1       1.913   5.268  19.222  0.00  0.00    +0.000 A 
ATOM     15  C   UNL     1       1.602   4.859  20.528  0.00  0.00    +0.000 A 
ATOM     16  C   UNL     1       1.098   3.583  20.771  0.00  0.00    +0.000 A 
ATOM     17  C   UNL     1       0.884   2.706  19.711  0.00  0.00    +0.000 A 
ATOM     18  C   UNL     1       1.168   3.108  18.407  0.00  0.00    +0.000 A 
ATOM     19  C   UNL     1       1.674   4.385  18.161  0.00  0.00    +0.000 A 
ENDBRANCH  13  14
ENDBRANCH  12  13
ENDBRANCH  11  12
ENDBRANCH   1  11
TORSDOF 6
ENDMDL
MODEL 7
REMARK VINA RESULT:      -6.4      3.068      6.073
REMARK  Name = 
REMARK  7 active torsions:
REMARK  status: ('A' for Active; 'I' for Inactive)
REMARK    1  A    between atoms: C_1  and  C_2
REMARK    2  A    between atoms: C_5  and  N_6
REMARK    3  A    between atoms: N_9  and  C_10
REMARK    4  A    between atoms: C_10  and  C_11
REMARK    5  A    between atoms: C_11  and  O_12
REMARK    6  A    between atoms: O_12  and  C_13
REMARK    7  A    between atoms: C_13  and  C_14
REMARK                            x       y       z     vdW  Elec       q    Type
REMARK                         _______ _______ _______ _____ _____    ______ ____
ROOT
ATOM      1  C   UNL     1       3.998   5.014  19.282  0.00  0.00    +0.000 C 
ENDROOT
BRANCH   1   7
ATOM      2  C   UNL     1       1.491   6.094  20.647  0.00  0.00    +0.000 C 
ATOM      3  C   UNL     1       1.902   4.663  20.615  0.00  0.00    +0.000 A 
ATOM      4  N   UNL     1       1.247   3.681  21.207  0.00  0.00    +0.000 NA
ATOM      5  C   UNL     1       1.961   2.540  20.951  0.00  0.00    +0.000 A 
ATOM      6  C   UNL     1       3.059   2.830  20.180  0.00  0.00    +0.000 A 
ATOM      7  N   UNL     1       3.025   4.188  19.966  0.00  0.00    +0.000 N 
BRANCH   6   8
ATOM      8  N   UNL     1       4.041   1.921  19.695  0.00  0.00    +0.000 N 
ATOM      9  O   UNL     1       3.761   1.309  18.658  0.00  0.00    +0.000 OA
ATOM     10  O   UNL     1       5.096   1.813  20.331  0.00  0.00    +0.000 OA
ENDBRANCH   6   8
ENDBRANCH   1   7
BRANCH   1  11
ATOM     11  C   UNL     1       3.848   4.995  17.760  0.00  0.00    +0.000 C 
BRANCH  11  12
ATOM     12  O   UNL     1       4.766   4.085  17.148  0.00  0.00    +0.000 OA
BRANCH  12  13
ATOM     13  C   UNL     1       5.724   4.743  16.314  0.00  0.00    +0.000 C 
BRANCH  13  14
ATOM     14  C   UNL     1       6.633   5.621  17.134  0.00  0.00    +0.000 A 
ATOM     15  C   UNL     1       6.764   6.978  16.802  0.00  0.00    +0.000 A 
ATOM     16  C   UNL     1       7.584   7.818  17.555  0.00  0.00    +0.000 A 
ATOM     17  C   UNL     1       8.270   7.314  18.658  0.00  0.00    +0.000 A 
ATOM     18  C   UNL     1       8.131   5.973  19.011  0.00  0.00    +0.000 A 
ATOM     19  C   UNL     1       7.312   5.130  18.257  0.00  0.00    +0.000 A 
ENDBRANCH  13  14
ENDBRANCH  12  13
ENDBRANCH  11  12
ENDBRANCH   1  11
TORSDOF 6
ENDMDL
MODEL 8
REMARK VINA RESULT:      -6.4      1.914      2.790
REMARK  Name = 
REMARK  7 active torsions:
REMARK  status: ('A' for Active; 'I' for Inactive)
REMARK    1  A    between atoms: C_1  and  C_2
REMARK    2  A    between atoms: C_5  and  N_6
REMARK    3  A    between atoms: N_9  and  C_10
REMARK    4  A    between atoms: C_10  and  C_11
REMARK    5  A    between atoms: C_11  and  O_12
REMARK    6  A    between atoms: O_12  and  C_13
REMARK    7  A    between atoms: C_13  and  C_14
REMARK                            x       y       z     vdW  Elec       q    Type
REMARK                         _______ _______ _______ _____ _____    ______ ____
ROOT
ATOM      1  C   UNL     1       4.327   4.635  16.709  0.00  0.00    +0.000 C 
ENDROOT
BRANCH   1   7
ATOM      2  C   UNL     1       5.246   4.738  19.617  0.00  0.00    +0.000 C 
ATOM      3  C   UNL     1       6.149   4.670  18.434  0.00  0.00    +0.000 A 
ATOM      4  N   UNL     1       7.467   4.681  18.494  0.00  0.00    +0.000 NA
ATOM      5  C   UNL     1       7.907   4.622  17.197  0.00  0.00    +0.000 A 
ATOM      6  C   UNL     1       6.839   4.560  16.337  0.00  0.00    +0.000 A 
ATOM      7  N   UNL     1       5.713   4.594  17.125  0.00  0.00    +0.000 N 
BRANCH   6   8
ATOM      8  N   UNL     1       6.876   4.478  14.916  0.00  0.00    +0.000 N 
ATOM      9  O   UNL     1       6.241   3.553  14.400  0.00  0.00    +0.000 OA
ATOM     10  O   UNL     1       7.527   5.333  14.303  0.00  0.00    +0.000 OA
ENDBRANCH   6   8
ENDBRANCH   1   7
BRANCH   1  11
ATOM     11  C   UNL     1       3.538   3.384  17.099  0.00  0.00    +0.000 C 
BRANCH  11  12
ATOM     12  O   UNL     1       2.163   3.485  16.722  0.00  0.00    +0.000 OA
BRANCH  12  13
ATOM     13  C   UNL     1       1.419   4.366  17.570  0.00  0.00    +0.000 C 
BRANCH  13  14
ATOM     14  C   UNL     1       1.571   3.970  19.016  0.00  0.00    +0.000 A 
ATOM     15  C   UNL     1       1.950   4.938  19.960  0.00  0.00    +0.000 A 
ATOM     16  C   UNL     1       2.080   4.604  21.307  0.00  0.00    +0.000 A 
ATOM     17  C   UNL     1       1.818   3.303  21.729  0.00  0.00    +0.000 A 
ATOM     18  C   UNL     1       1.420   2.338  20.805  0.00  0.00    +0.000 A 
ATOM     19  C   UNL     1       1.290   2.670  19.456  0.00  0.00    +0.000 A 
ENDBRANCH  13  14
ENDBRANCH  12  13
ENDBRANCH  11  12
ENDBRANCH   1  11
TORSDOF 6
ENDMDL
MODEL 9
REMARK VINA RESULT:      -6.3      1.942      2.880
REMARK  Name = 
REMARK  7 active torsions:
REMARK  status: ('A' for Active; 'I' for Inactive)
REMARK    1  A    between atoms: C_1  and  C_2
REMARK    2  A    between atoms: C_5  and  N_6
REMARK    3  A    between atoms: N_9  and  C_10
REMARK    4  A    between atoms: C_10  and  C_11
REMARK    5  A    between atoms: C_11  and  O_12
REMARK    6  A    between atoms: O_12  and  C_13
REMARK    7  A    between atoms: C_13  and  C_14
REMARK                            x       y       z     vdW  Elec       q    Type
REMARK                         _______ _______ _______ _____ _____    ______ ____
ROOT
ATOM      1  C   UNL     1       4.822   6.601  18.450  0.00  0.00    +0.000 C 
ENDROOT
BRANCH   1   7
ATOM      2  C   UNL     1       7.520   7.634  17.467  0.00  0.00    +0.000 C 
ATOM      3  C   UNL     1       6.988   6.263  17.229  0.00  0.00    +0.000 A 
ATOM      4  N   UNL     1       7.605   5.329  16.530  0.00  0.00    +0.000 NA
ATOM      5  C   UNL     1       6.777   4.237  16.540  0.00  0.00    +0.000 A 
ATOM      6  C   UNL     1       5.645   4.507  17.268  0.00  0.00    +0.000 A 
ATOM      7  N   UNL     1       5.776   5.803  17.708  0.00  0.00    +0.000 N 
BRANCH   6   8
ATOM      8  N   UNL     1       4.551   3.632  17.524  0.00  0.00    +0.000 N 
ATOM      9  O   UNL     1       3.696   3.545  16.637  0.00  0.00    +0.000 OA
ATOM     10  O   UNL     1       4.537   3.021  18.600  0.00  0.00    +0.000 OA
ENDBRANCH   6   8
ENDBRANCH   1   7
BRANCH   1  11
ATOM     11  C   UNL     1       3.619   7.041  17.615  0.00  0.00    +0.000 C 
BRANCH  11  12
ATOM     12  O   UNL     1       2.388   6.851  18.317  0.00  0.00    +0.000 OA
BRANCH  12  13
ATOM     13  C   UNL     1       2.581   6.527  19.697  0.00  0.00    +0.000 C 
BRANCH  13  14
ATOM     14  C   UNL     1       2.123   5.121  19.985  0.00  0.00    +0.000 A 
ATOM     15  C   UNL     1       2.392   4.551  21.239  0.00  0.00    +0.000 A 
ATOM     16  C   UNL     1       1.963   3.259  21.539  0.00  0.00    +0.000 A 
ATOM     17  C   UNL     1       1.247   2.528  20.596  0.00  0.00    +0.000 A 
ATOM     18  C   UNL     1       0.954   3.091  19.354  0.00  0.00    +0.000 A 
ATOM     19  C   UNL     1       1.383   4.383  19.051  0.00  0.00    +0.000 A 
ENDBRANCH  13  14
ENDBRANCH  12  13
ENDBRANCH  11  12
ENDBRANCH   1  11
TORSDOF 6
ENDMDL
