MODEL 1
REMARK VINA RESULT:      -7.9      0.000      0.000
REMARK  Name = 
REMARK  9 active torsions:
REMARK  status: ('A' for Active; 'I' for Inactive)
REMARK    1  A    between atoms: C_1  and  C_2
REMARK    2  A    between atoms: C_2  and  C_3
REMARK    3  A    between atoms: C_2  and  C_4
REMARK    4  A    between atoms: C_2  and  C_5
REMARK    5  A    between atoms: C_8  and  N_9
REMARK    6  A    between atoms: C_10  and  C_12
REMARK    7  A    between atoms: N_16  and  C_17
REMARK    8  A    between atoms: C_17  and  C_18
REMARK    9  A    between atoms: C_18  and  C_19
REMARK                            x       y       z     vdW  Elec       q    Type
REMARK                         _______ _______ _______ _____ _____    ______ ____
ROOT
ATOM      1  N   UNL     1       3.532   6.452  17.480  0.00  0.00    +0.000 N 
ATOM      2  C   UNL     1       4.888   6.583  17.205  0.00  0.00    +0.000 C 
ATOM      3  O   UNL     1       5.618   7.432  17.708  0.00  0.00    +0.000 OA
ATOM      4  H   UNL     1       3.106   5.593  17.143  0.00  0.00    +0.000 HD
ENDROOT
BRANCH   1   8
ATOM      5  C   UNL     1       1.145   9.199  19.705  0.00  0.00    +0.000 A 
ATOM      6  C   UNL     1       1.623   8.013  20.278  0.00  0.00    +0.000 A 
ATOM      7  C   UNL     1       2.421   7.120  19.561  0.00  0.00    +0.000 A 
ATOM      8  C   UNL     1       2.754   7.356  18.231  0.00  0.00    +0.000 A 
ATOM      9  C   UNL     1       2.307   8.539  17.641  0.00  0.00    +0.000 A 
ATOM     10  C   UNL     1       1.496   9.438  18.363  0.00  0.00    +0.000 A 
BRANCH   5  12
ATOM     11  C   UNL     1       1.010  11.448  20.916  0.00  0.00    +0.000 C 
ATOM     12  C   UNL     1       0.255  10.153  20.522  0.00  0.00    +0.000 C 
ATOM     13  C   UNL     1      -0.188   9.437  21.814  0.00  0.00    +0.000 C 
ATOM     14  C   UNL     1      -1.006  10.603  19.754  0.00  0.00    +0.000 C 
ENDBRANCH   5  12
ENDBRANCH   1   8
BRANCH   2  15
ATOM     15  C   UNL     1       5.389   5.587  16.265  0.00  0.00    +0.000 A 
ATOM     16  N   UNL     1       5.875   5.911  15.071  0.00  0.00    +0.000 NA
ATOM     17  C   UNL     1       6.267   4.734  14.495  0.00  0.00    +0.000 A 
ATOM     18  C   UNL     1       6.023   3.676  15.334  0.00  0.00    +0.000 A 
ATOM     19  N   UNL     1       5.453   4.217  16.457  0.00  0.00    +0.000 N 
BRANCH  19  20
ATOM     20  C   UNL     1       4.949   3.474  17.609  0.00  0.00    +0.000 C 
BRANCH  20  21
ATOM     21  C   UNL     1       3.463   3.095  17.539  0.00  0.00    +0.000 C 
BRANCH  21  22
ATOM     22  C   UNL     1       2.690   3.135  18.840  0.00  0.00    +0.000 A 
ATOM     23  C   UNL     1       3.330   2.703  20.009  0.00  0.00    +0.000 A 
ATOM     24  C   UNL     1       2.653   2.771  21.217  0.00  0.00    +0.000 A 
ATOM     25  N   UNL     1       1.397   3.241  21.345  0.00  0.00    +0.000 NA
ATOM     26  C   UNL     1       0.798   3.669  20.215  0.00  0.00    +0.000 A 
ATOM     27  C   UNL     1       1.393   3.644  18.957  0.00  0.00    +0.000 A 
ENDBRANCH  21  22
ENDBRANCH  20  21
ENDBRANCH  19  20
ENDBRANCH   2  15
TORSDOF 6
ENDMDL
MODEL 2
REMARK VINA RESULT:      -7.9      0.136      1.556
REMARK  Name = 
REMARK  9 active torsions:
REMARK  status: ('A' for Active; 'I' for Inactive)
REMARK    1  A    between atoms: C_1  and  C_2
REMARK    2  A    between atoms: C_2  and  C_3
REMARK    3  A    between atoms: C_2  and  C_4
REMARK    4  A    between atoms: C_2  and  C_5
REMARK    5  A    between atoms: C_8  and  N_9
REMARK    6  A    between atoms: C_10  and  C_12
REMARK    7  A    between atoms: N_16  and  C_17
REMARK    8  A    between atoms: C_17  and  C_18
REMARK    9  A    between atoms: C_18  and  C_19
REMARK                            x       y       z     vdW  Elec       q    Type
REMARK                         _______ _______ _______ _____ _____    ______ ____
ROOT
ATOM      1  N   UNL     1       3.498   6.471  17.493  0.00  0.00    +0.000 N 
ATOM      2  C   UNL     1       4.850   6.621  17.214  0.00  0.00    +0.000 C 
ATOM      3  O   UNL     1       5.565   7.495  17.698  0.00  0.00    +0.000 OA
ATOM      4  H   UNL     1       3.088   5.597  17.174  0.00  0.00    +0.000 HD
ENDROOT
BRANCH   1   8
ATOM      5  C   UNL     1       1.127   9.198  19.759  0.00  0.00    +0.000 A 
ATOM      6  C   UNL     1       1.434   9.438  18.412  0.00  0.00    +0.000 A 
ATOM      7  C   UNL     1       2.192   8.540  17.660  0.00  0.00    +0.000 A 
ATOM      8  C   UNL     1       2.703   7.376  18.226  0.00  0.00    +0.000 A 
ATOM      9  C   UNL     1       2.398   7.103  19.560  0.00  0.00    +0.000 A 
ATOM     10  C   UNL     1       1.637   8.013  20.321  0.00  0.00    +0.000 A 
BRANCH   5  12
ATOM     11  C   UNL     1      -0.113   9.664  21.948  0.00  0.00    +0.000 C 
ATOM     12  C   UNL     1       0.300  10.219  20.561  0.00  0.00    +0.000 C 
ATOM     13  C   UNL     1      -0.982  10.553  19.771  0.00  0.00    +0.000 C 
ATOM     14  C   UNL     1       1.065  11.533  20.829  0.00  0.00    +0.000 C 
ENDBRANCH   5  12
ENDBRANCH   1   8
BRANCH   2  15
ATOM     15  C   UNL     1       5.370   5.616  16.294  0.00  0.00    +0.000 A 
ATOM     16  N   UNL     1       5.798   5.918  15.072  0.00  0.00    +0.000 NA
ATOM     17  C   UNL     1       6.230   4.740  14.526  0.00  0.00    +0.000 A 
ATOM     18  C   UNL     1       6.068   3.704  15.412  0.00  0.00    +0.000 A 
ATOM     19  N   UNL     1       5.509   4.259  16.534  0.00  0.00    +0.000 N 
BRANCH  19  20
ATOM     20  C   UNL     1       5.083   3.537  17.730  0.00  0.00    +0.000 C 
BRANCH  20  21
ATOM     21  C   UNL     1       3.639   3.017  17.695  0.00  0.00    +0.000 C 
BRANCH  21  22
ATOM     22  C   UNL     1       2.859   3.091  18.990  0.00  0.00    +0.000 A 
ATOM     23  C   UNL     1       1.530   3.532  18.944  0.00  0.00    +0.000 A 
ATOM     24  C   UNL     1       0.786   3.567  20.113  0.00  0.00    +0.000 A 
ATOM     25  N   UNL     1       1.264   3.191  21.315  0.00  0.00    +0.000 NA
ATOM     26  C   UNL     1       2.539   2.752  21.344  0.00  0.00    +0.000 A 
ATOM     27  C   UNL     1       3.365   2.678  20.226  0.00  0.00    +0.000 A 
ENDBRANCH  21  22
ENDBRANCH  20  21
ENDBRANCH  19  20
ENDBRANCH   2  15
TORSDOF 6
ENDMDL
MODEL 3
REMARK VINA RESULT:      -7.9      4.870      5.948
REMARK  Name = 
REMARK  9 active torsions:
REMARK  status: ('A' for Active; 'I' for Inactive)
REMARK    1  A    between atoms: C_1  and  C_2
REMARK    2  A    between atoms: C_2  and  C_3
REMARK    3  A    between atoms: C_2  and  C_4
REMARK    4  A    between atoms: C_2  and  C_5
REMARK    5  A    between atoms: C_8  and  N_9
REMARK    6  A    between atoms: C_10  and  C_12
REMARK    7  A    between atoms: N_16  and  C_17
REMARK    8  A    between atoms: C_17  and  C_18
REMARK    9  A    between atoms: C_18  and  C_19
REMARK                            x       y       z     vdW  Elec       q    Type
REMARK                         _______ _______ _______ _____ _____    ______ ____
ROOT
ATOM      1  N   UNL     1       7.544   8.437  17.405  0.00  0.00    +0.000 N 
ATOM      2  C   UNL     1       7.575   7.107  17.807  0.00  0.00    +0.000 C 
ATOM      3  O   UNL     1       8.130   6.703  18.825  0.00  0.00    +0.000 OA
ATOM      4  H   UNL     1       6.891   8.644  16.655  0.00  0.00    +0.000 HD
ENDROOT
BRANCH   1   8
ATOM      5  C   UNL     1       9.703  11.664  19.171  0.00  0.00    +0.000 A 
ATOM      6  C   UNL     1       9.718  10.379  19.732  0.00  0.00    +0.000 A 
ATOM      7  C   UNL     1       9.030   9.315  19.147  0.00  0.00    +0.000 A 
ATOM      8  C   UNL     1       8.272   9.491  17.993  0.00  0.00    +0.000 A 
ATOM      9  C   UNL     1       8.254  10.756  17.404  0.00  0.00    +0.000 A 
ATOM     10  C   UNL     1       8.944  11.832  17.997  0.00  0.00    +0.000 A 
BRANCH   5  12
ATOM     11  C   UNL     1      10.278  14.155  19.093  0.00  0.00    +0.000 C 
ATOM     12  C   UNL     1      10.462  12.817  19.852  0.00  0.00    +0.000 C 
ATOM     13  C   UNL     1      11.966  12.477  19.878  0.00  0.00    +0.000 C 
ATOM     14  C   UNL     1       9.994  13.072  21.301  0.00  0.00    +0.000 C 
ENDBRANCH   5  12
ENDBRANCH   1   8
BRANCH   2  15
ATOM     15  C   UNL     1       6.854   6.211  16.910  0.00  0.00    +0.000 A 
ATOM     16  N   UNL     1       7.379   5.760  15.775  0.00  0.00    +0.000 NA
ATOM     17  C   UNL     1       6.433   4.938  15.227  0.00  0.00    +0.000 A 
ATOM     18  C   UNL     1       5.317   4.879  16.024  0.00  0.00    +0.000 A 
ATOM     19  N   UNL     1       5.579   5.700  17.091  0.00  0.00    +0.000 N 
BRANCH  19  20
ATOM     20  C   UNL     1       4.657   6.020  18.176  0.00  0.00    +0.000 C 
BRANCH  20  21
ATOM     21  C   UNL     1       3.168   5.940  17.809  0.00  0.00    +0.000 C 
BRANCH  21  22
ATOM     22  C   UNL     1       2.357   4.860  18.493  0.00  0.00    +0.000 A 
ATOM     23  C   UNL     1       1.996   5.046  19.834  0.00  0.00    +0.000 A 
ATOM     24  C   UNL     1       1.218   4.088  20.466  0.00  0.00    +0.000 A 
ATOM     25  N   UNL     1       0.771   2.970  19.861  0.00  0.00    +0.000 NA
ATOM     26  C   UNL     1       1.111   2.811  18.566  0.00  0.00    +0.000 A 
ATOM     27  C   UNL     1       1.885   3.715  17.844  0.00  0.00    +0.000 A 
ENDBRANCH  21  22
ENDBRANCH  20  21
ENDBRANCH  19  20
ENDBRANCH   2  15
TORSDOF 6
ENDMDL
MODEL 4
REMARK VINA RESULT:      -7.9      4.876      6.065
REMARK  Name = 
REMARK  9 active torsions:
REMARK  status: ('A' for Active; 'I' for Inactive)
REMARK    1  A    between atoms: C_1  and  C_2
REMARK    2  A    between atoms: C_2  and  C_3
REMARK    3  A    between atoms: C_2  and  C_4
REMARK    4  A    between atoms: C_2  and  C_5
REMARK    5  A    between atoms: C_8  and  N_9
REMARK    6  A    between atoms: C_10  and  C_12
REMARK    7  A    between atoms: N_16  and  C_17
REMARK    8  A    between atoms: C_17  and  C_18
REMARK    9  A    between atoms: C_18  and  C_19
REMARK                            x       y       z     vdW  Elec       q    Type
REMARK                         _______ _______ _______ _____ _____    ______ ____
ROOT
ATOM      1  N   UNL     1       7.533   8.435  17.412  0.00  0.00    +0.000 N 
ATOM      2  C   UNL     1       7.553   7.105  17.813  0.00  0.00    +0.000 C 
ATOM      3  O   UNL     1       8.095   6.698  18.838  0.00  0.00    +0.000 OA
ATOM      4  H   UNL     1       6.889   8.646  16.655  0.00  0.00    +0.000 HD
ENDROOT
BRANCH   1   8
ATOM      5  C   UNL     1       9.772  11.575  19.234  0.00  0.00    +0.000 A 
ATOM      6  C   UNL     1       9.027  11.790  18.067  0.00  0.00    +0.000 A 
ATOM      7  C   UNL     1       8.276  10.771  17.477  0.00  0.00    +0.000 A 
ATOM      8  C   UNL     1       8.259   9.486  18.010  0.00  0.00    +0.000 A 
ATOM      9  C   UNL     1       8.977   9.249  19.182  0.00  0.00    +0.000 A 
ATOM     10  C   UNL     1       9.740  10.276  19.774  0.00  0.00    +0.000 A 
BRANCH   5  12
ATOM     11  C   UNL     1      10.541  14.002  18.980  0.00  0.00    +0.000 C 
ATOM     12  C   UNL     1      10.599  12.719  19.848  0.00  0.00    +0.000 C 
ATOM     13  C   UNL     1      12.071  12.269  19.952  0.00  0.00    +0.000 C 
ATOM     14  C   UNL     1      10.111  13.125  21.256  0.00  0.00    +0.000 C 
ENDBRANCH   5  12
ENDBRANCH   1   8
BRANCH   2  15
ATOM     15  C   UNL     1       6.839   6.213  16.907  0.00  0.00    +0.000 A 
ATOM     16  N   UNL     1       7.359   5.793  15.758  0.00  0.00    +0.000 NA
ATOM     17  C   UNL     1       6.422   4.964  15.205  0.00  0.00    +0.000 A 
ATOM     18  C   UNL     1       5.317   4.870  16.013  0.00  0.00    +0.000 A 
ATOM     19  N   UNL     1       5.576   5.675  17.092  0.00  0.00    +0.000 N 
BRANCH  19  20
ATOM     20  C   UNL     1       4.660   5.957  18.193  0.00  0.00    +0.000 C 
BRANCH  20  21
ATOM     21  C   UNL     1       3.170   5.926  17.824  0.00  0.00    +0.000 C 
BRANCH  21  22
ATOM     22  C   UNL     1       2.307   4.926  18.565  0.00  0.00    +0.000 A 
ATOM     23  C   UNL     1       1.903   3.766  17.892  0.00  0.00    +0.000 A 
ATOM     24  C   UNL     1       1.148   2.819  18.566  0.00  0.00    +0.000 A 
ATOM     25  N   UNL     1       0.776   2.940  19.855  0.00  0.00    +0.000 NA
ATOM     26  C   UNL     1       1.185   4.052  20.497  0.00  0.00    +0.000 A 
ATOM     27  C   UNL     1       1.947   5.058  19.910  0.00  0.00    +0.000 A 
ENDBRANCH  21  22
ENDBRANCH  20  21
ENDBRANCH  19  20
ENDBRANCH   2  15
TORSDOF 6
ENDMDL
MODEL 5
REMARK VINA RESULT:      -7.8      4.796      5.865
REMARK  Name = 
REMARK  9 active torsions:
REMARK  status: ('A' for Active; 'I' for Inactive)
REMARK    1  A    between atoms: C_1  and  C_2
REMARK    2  A    between atoms: C_2  and  C_3
REMARK    3  A    between atoms: C_2  and  C_4
REMARK    4  A    between atoms: C_2  and  C_5
REMARK    5  A    between atoms: C_8  and  N_9
REMARK    6  A    between atoms: C_10  and  C_12
REMARK    7  A    between atoms: N_16  and  C_17
REMARK    8  A    between atoms: C_17  and  C_18
REMARK    9  A    between atoms: C_18  and  C_19
REMARK                            x       y       z     vdW  Elec       q    Type
REMARK                         _______ _______ _______ _____ _____    ______ ____
ROOT
ATOM      1  N   UNL     1       7.474   8.348  17.373  0.00  0.00    +0.000 N 
ATOM      2  C   UNL     1       7.506   7.015  17.765  0.00  0.00    +0.000 C 
ATOM      3  O   UNL     1       8.064   6.603  18.778  0.00  0.00    +0.000 OA
ATOM      4  H   UNL     1       6.818   8.561  16.627  0.00  0.00    +0.000 HD
ENDROOT
BRANCH   1   8
ATOM      5  C   UNL     1       9.637  11.561  19.160  0.00  0.00    +0.000 A 
ATOM      6  C   UNL     1       9.663  10.269  19.703  0.00  0.00    +0.000 A 
ATOM      7  C   UNL     1       8.973   9.209  19.112  0.00  0.00    +0.000 A 
ATOM      8  C   UNL     1       8.204   9.398  17.968  0.00  0.00    +0.000 A 
ATOM      9  C   UNL     1       8.175  10.670  17.395  0.00  0.00    +0.000 A 
ATOM     10  C   UNL     1       8.866  11.741  17.996  0.00  0.00    +0.000 A 
BRANCH   5  12
ATOM     11  C   UNL     1      11.927  12.453  19.870  0.00  0.00    +0.000 C 
ATOM     12  C   UNL     1      10.398  12.708  19.848  0.00  0.00    +0.000 C 
ATOM     13  C   UNL     1       9.905  12.831  21.304  0.00  0.00    +0.000 C 
ATOM     14  C   UNL     1      10.196  14.069  19.147  0.00  0.00    +0.000 C 
ENDBRANCH   5  12
ENDBRANCH   1   8
BRANCH   2  15
ATOM     15  C   UNL     1       6.782   6.126  16.863  0.00  0.00    +0.000 A 
ATOM     16  N   UNL     1       7.310   5.672  15.730  0.00  0.00    +0.000 NA
ATOM     17  C   UNL     1       6.360   4.858  15.176  0.00  0.00    +0.000 A 
ATOM     18  C   UNL     1       5.240   4.808  15.967  0.00  0.00    +0.000 A 
ATOM     19  N   UNL     1       5.503   5.625  17.036  0.00  0.00    +0.000 N 
BRANCH  19  20
ATOM     20  C   UNL     1       4.577   5.951  18.117  0.00  0.00    +0.000 C 
BRANCH  20  21
ATOM     21  C   UNL     1       3.091   5.777  17.775  0.00  0.00    +0.000 C 
BRANCH  21  22
ATOM     22  C   UNL     1       2.300   4.824  18.645  0.00  0.00    +0.000 A 
ATOM     23  C   UNL     1       1.722   3.696  18.046  0.00  0.00    +0.000 A 
ATOM     24  C   UNL     1       1.030   2.790  18.834  0.00  0.00    +0.000 A 
ATOM     25  N   UNL     1       0.880   2.919  20.166  0.00  0.00    +0.000 NA
ATOM     26  C   UNL     1       1.455   3.998  20.734  0.00  0.00    +0.000 A 
ATOM     27  C   UNL     1       2.171   4.963  20.031  0.00  0.00    +0.000 A 
ENDBRANCH  21  22
ENDBRANCH  20  21
ENDBRANCH  19  20
ENDBRANCH   2  15
TORSDOF 6
ENDMDL
MODEL 6
REMARK VINA RESULT:      -7.7      0.437      1.348
REMARK  Name = 
REMARK  9 active torsions:
REMARK  status: ('A' for Active; 'I' for Inactive)
REMARK    1  A    between atoms: C_1  and  C_2
REMARK    2  A    between atoms: C_2  and  C_3
REMARK    3  A    between atoms: C_2  and  C_4
REMARK    4  A    between atoms: C_2  and  C_5
REMARK    5  A    between atoms: C_8  and  N_9
REMARK    6  A    between atoms: C_10  and  C_12
REMARK    7  A    between atoms: N_16  and  C_17
REMARK    8  A    between atoms: C_17  and  C_18
REMARK    9  A    between atoms: C_18  and  C_19
REMARK                            x       y       z     vdW  Elec       q    Type
REMARK                         _______ _______ _______ _____ _____    ______ ____
ROOT
ATOM      1  N   UNL     1       3.641   6.419  17.508  0.00  0.00    +0.000 N 
ATOM      2  C   UNL     1       4.998   6.593  17.263  0.00  0.00    +0.000 C 
ATOM      3  O   UNL     1       5.683   7.484  17.758  0.00  0.00    +0.000 OA
ATOM      4  H   UNL     1       3.256   5.536  17.186  0.00  0.00    +0.000 HD
ENDROOT
BRANCH   1   8
ATOM      5  C   UNL     1       1.162   9.117  19.692  0.00  0.00    +0.000 A 
ATOM      6  C   UNL     1       1.505   9.357  18.355  0.00  0.00    +0.000 A 
ATOM      7  C   UNL     1       2.299   8.468  17.629  0.00  0.00    +0.000 A 
ATOM      8  C   UNL     1       2.811   7.314  18.214  0.00  0.00    +0.000 A 
ATOM      9  C   UNL     1       2.471   7.041  19.539  0.00  0.00    +0.000 A 
ATOM     10  C   UNL     1       1.674   7.942  20.274  0.00  0.00    +0.000 A 
BRANCH   5  12
ATOM     11  C   UNL     1      -0.963  10.540  19.662  0.00  0.00    +0.000 C 
ATOM     12  C   UNL     1       0.296  10.128  20.465  0.00  0.00    +0.000 C 
ATOM     13  C   UNL     1       1.133  11.394  20.740  0.00  0.00    +0.000 C 
ATOM     14  C   UNL     1      -0.211   9.575  21.815  0.00  0.00    +0.000 C 
ENDBRANCH   5  12
ENDBRANCH   1   8
BRANCH   2  15
ATOM     15  C   UNL     1       5.560   5.592  16.364  0.00  0.00    +0.000 A 
ATOM     16  N   UNL     1       6.607   5.838  15.582  0.00  0.00    +0.000 NA
ATOM     17  C   UNL     1       6.857   4.671  14.915  0.00  0.00    +0.000 A 
ATOM     18  C   UNL     1       5.962   3.697  15.282  0.00  0.00    +0.000 A 
ATOM     19  N   UNL     1       5.127   4.286  16.197  0.00  0.00    +0.000 N 
BRANCH  19  20
ATOM     20  C   UNL     1       3.963   3.666  16.823  0.00  0.00    +0.000 C 
BRANCH  20  21
ATOM     21  C   UNL     1       4.235   2.991  18.175  0.00  0.00    +0.000 C 
BRANCH  21  22
ATOM     22  C   UNL     1       3.113   3.027  19.190  0.00  0.00    +0.000 A 
ATOM     23  C   UNL     1       3.405   2.690  20.518  0.00  0.00    +0.000 A 
ATOM     24  C   UNL     1       2.400   2.758  21.471  0.00  0.00    +0.000 A 
ATOM     25  N   UNL     1       1.138   3.142  21.200  0.00  0.00    +0.000 NA
ATOM     26  C   UNL     1       0.874   3.481  19.922  0.00  0.00    +0.000 A 
ATOM     27  C   UNL     1       1.812   3.448  18.895  0.00  0.00    +0.000 A 
ENDBRANCH  21  22
ENDBRANCH  20  21
ENDBRANCH  19  20
ENDBRANCH   2  15
TORSDOF 6
ENDMDL
MODEL 7
REMARK VINA RESULT:      -7.6      4.857      6.021
REMARK  Name = 
REMARK  9 active torsions:
REMARK  status: ('A' for Active; 'I' for Inactive)
REMARK    1  A    between atoms: C_1  and  C_2
REMARK    2  A    between atoms: C_2  and  C_3
REMARK    3  A    between atoms: C_2  and  C_4
REMARK    4  A    between atoms: C_2  and  C_5
REMARK    5  A    between atoms: C_8  and  N_9
REMARK    6  A    between atoms: C_10  and  C_12
REMARK    7  A    between atoms: N_16  and  C_17
REMARK    8  A    between atoms: C_17  and  C_18
REMARK    9  A    between atoms: C_18  and  C_19
REMARK                            x       y       z     vdW  Elec       q    Type
REMARK                         _______ _______ _______ _____ _____    ______ ____
ROOT
ATOM      1  N   UNL     1       7.522   8.415  17.365  0.00  0.00    +0.000 N 
ATOM      2  C   UNL     1       7.547   7.089  17.778  0.00  0.00    +0.000 C 
ATOM      3  O   UNL     1       8.076   6.694  18.814  0.00  0.00    +0.000 OA
ATOM      4  H   UNL     1       6.888   8.614  16.597  0.00  0.00    +0.000 HD
ENDROOT
BRANCH   1   8
ATOM      5  C   UNL     1       9.708  11.589  19.193  0.00  0.00    +0.000 A 
ATOM      6  C   UNL     1       8.949  11.796  18.033  0.00  0.00    +0.000 A 
ATOM      7  C   UNL     1       8.216  10.766  17.442  0.00  0.00    +0.000 A 
ATOM      8  C   UNL     1       8.230   9.477  17.965  0.00  0.00    +0.000 A 
ATOM      9  C   UNL     1       8.963   9.247  19.130  0.00  0.00    +0.000 A 
ATOM     10  C   UNL     1       9.708  10.285  19.724  0.00  0.00    +0.000 A 
BRANCH   5  12
ATOM     11  C   UNL     1      10.414  14.037  18.957  0.00  0.00    +0.000 C 
ATOM     12  C   UNL     1      10.516  12.746  19.809  0.00  0.00    +0.000 C 
ATOM     13  C   UNL     1      12.000  12.332  19.886  0.00  0.00    +0.000 C 
ATOM     14  C   UNL     1      10.039  13.123  21.228  0.00  0.00    +0.000 C 
ENDBRANCH   5  12
ENDBRANCH   1   8
BRANCH   2  15
ATOM     15  C   UNL     1       6.853   6.183  16.869  0.00  0.00    +0.000 A 
ATOM     16  N   UNL     1       7.437   5.661  15.795  0.00  0.00    +0.000 NA
ATOM     17  C   UNL     1       6.498   4.854  15.214  0.00  0.00    +0.000 A 
ATOM     18  C   UNL     1       5.327   4.876  15.930  0.00  0.00    +0.000 A 
ATOM     19  N   UNL     1       5.548   5.732  16.977  0.00  0.00    +0.000 N 
BRANCH  19  20
ATOM     20  C   UNL     1       4.565   6.137  17.979  0.00  0.00    +0.000 C 
BRANCH  20  21
ATOM     21  C   UNL     1       4.470   5.219  19.205  0.00  0.00    +0.000 C 
BRANCH  21  22
ATOM     22  C   UNL     1       3.203   4.403  19.345  0.00  0.00    +0.000 A 
ATOM     23  C   UNL     1       2.268   4.784  20.317  0.00  0.00    +0.000 A 
ATOM     24  C   UNL     1       1.083   4.074  20.433  0.00  0.00    +0.000 A 
ATOM     25  N   UNL     1       0.760   3.025  19.652  0.00  0.00    +0.000 NA
ATOM     26  C   UNL     1       1.660   2.679  18.709  0.00  0.00    +0.000 A 
ATOM     27  C   UNL     1       2.875   3.328  18.512  0.00  0.00    +0.000 A 
ENDBRANCH  21  22
ENDBRANCH  20  21
ENDBRANCH  19  20
ENDBRANCH   2  15
TORSDOF 6
ENDMDL
MODEL 8
REMARK VINA RESULT:      -7.6      4.858      5.913
REMARK  Name = 
REMARK  9 active torsions:
REMARK  status: ('A' for Active; 'I' for Inactive)
REMARK    1  A    between atoms: C_1  and  C_2
REMARK    2  A    between atoms: C_2  and  C_3
REMARK    3  A    between atoms: C_2  and  C_4
REMARK    4  A    between atoms: C_2  and  C_5
REMARK    5  A    between atoms: C_8  and  N_9
REMARK    6  A    between atoms: C_10  and  C_12
REMARK    7  A    between atoms: N_16  and  C_17
REMARK    8  A    between atoms: C_17  and  C_18
REMARK    9  A    between atoms: C_18  and  C_19
REMARK                            x       y       z     vdW  Elec       q    Type
REMARK                         _______ _______ _______ _____ _____    ______ ____
ROOT
ATOM      1  N   UNL     1       7.532   8.425  17.390  0.00  0.00    +0.000 N 
ATOM      2  C   UNL     1       7.582   7.094  17.789  0.00  0.00    +0.000 C 
ATOM      3  O   UNL     1       8.141   6.696  18.807  0.00  0.00    +0.000 OA
ATOM      4  H   UNL     1       6.877   8.624  16.639  0.00  0.00    +0.000 HD
ENDROOT
BRANCH   1   8
ATOM      5  C   UNL     1       9.633  11.680  19.173  0.00  0.00    +0.000 A 
ATOM      6  C   UNL     1       9.669  10.394  19.728  0.00  0.00    +0.000 A 
ATOM      7  C   UNL     1       9.000   9.320  19.138  0.00  0.00    +0.000 A 
ATOM      8  C   UNL     1       8.241   9.489  17.984  0.00  0.00    +0.000 A 
ATOM      9  C   UNL     1       8.203  10.755  17.400  0.00  0.00    +0.000 A 
ATOM     10  C   UNL     1       8.874  11.840  17.999  0.00  0.00    +0.000 A 
BRANCH   5  12
ATOM     11  C   UNL     1       9.936  13.009  21.337  0.00  0.00    +0.000 C 
ATOM     12  C   UNL     1      10.372  12.843  19.859  0.00  0.00    +0.000 C 
ATOM     13  C   UNL     1      10.050  14.151  19.108  0.00  0.00    +0.000 C 
ATOM     14  C   UNL     1      11.904  12.654  19.877  0.00  0.00    +0.000 C 
ENDBRANCH   5  12
ENDBRANCH   1   8
BRANCH   2  15
ATOM     15  C   UNL     1       6.878   6.190  16.887  0.00  0.00    +0.000 A 
ATOM     16  N   UNL     1       7.441   5.691  15.791  0.00  0.00    +0.000 NA
ATOM     17  C   UNL     1       6.499   4.877  15.225  0.00  0.00    +0.000 A 
ATOM     18  C   UNL     1       5.348   4.870  15.972  0.00  0.00    +0.000 A 
ATOM     19  N   UNL     1       5.584   5.716  17.025  0.00  0.00    +0.000 N 
BRANCH  19  20
ATOM     20  C   UNL     1       4.623   6.093  18.058  0.00  0.00    +0.000 C 
BRANCH  20  21
ATOM     21  C   UNL     1       4.546   5.134  19.255  0.00  0.00    +0.000 C 
BRANCH  21  22
ATOM     22  C   UNL     1       3.231   4.416  19.467  0.00  0.00    +0.000 A 
ATOM     23  C   UNL     1       3.041   3.175  18.846  0.00  0.00    +0.000 A 
ATOM     24  C   UNL     1       1.859   2.482  19.061  0.00  0.00    +0.000 A 
ATOM     25  N   UNL     1       0.864   2.930  19.851  0.00  0.00    +0.000 NA
ATOM     26  C   UNL     1       1.066   4.118  20.457  0.00  0.00    +0.000 A 
ATOM     27  C   UNL     1       2.216   4.887  20.306  0.00  0.00    +0.000 A 
ENDBRANCH  21  22
ENDBRANCH  20  21
ENDBRANCH  19  20
ENDBRANCH   2  15
TORSDOF 6
ENDMDL
MODEL 9
REMARK VINA RESULT:      -7.6      0.833      1.193
REMARK  Name = 
REMARK  9 active torsions:
REMARK  status: ('A' for Active; 'I' for Inactive)
REMARK    1  A    between atoms: C_1  and  C_2
REMARK    2  A    between atoms: C_2  and  C_3
REMARK    3  A    between atoms: C_2  and  C_4
REMARK    4  A    between atoms: C_2  and  C_5
REMARK    5  A    between atoms: C_8  and  N_9
REMARK    6  A    between atoms: C_10  and  C_12
REMARK    7  A    between atoms: N_16  and  C_17
REMARK    8  A    between atoms: C_17  and  C_18
REMARK    9  A    between atoms: C_18  and  C_19
REMARK                            x       y       z     vdW  Elec       q    Type
REMARK                         _______ _______ _______ _____ _____    ______ ____
ROOT
ATOM      1  N   UNL     1       3.540   6.530  17.655  0.00  0.00    +0.000 N 
ATOM      2  C   UNL     1       4.649   5.855  18.150  0.00  0.00    +0.000 C 
ATOM      3  O   UNL     1       4.987   5.847  19.330  0.00  0.00    +0.000 OA
ATOM      4  H   UNL     1       3.278   6.288  16.704  0.00  0.00    +0.000 HD
ENDROOT
BRANCH   1   8
ATOM      5  C   UNL     1       1.082   9.280  19.798  0.00  0.00    +0.000 A 
ATOM      6  C   UNL     1       1.508   8.076  20.375  0.00  0.00    +0.000 A 
ATOM      7  C   UNL     1       2.329   7.181  19.686  0.00  0.00    +0.000 A 
ATOM      8  C   UNL     1       2.737   7.435  18.380  0.00  0.00    +0.000 A 
ATOM      9  C   UNL     1       2.342   8.635  17.788  0.00  0.00    +0.000 A 
ATOM     10  C   UNL     1       1.508   9.535  18.481  0.00  0.00    +0.000 A 
BRANCH   5  12
ATOM     11  C   UNL     1      -1.104  10.609  19.776  0.00  0.00    +0.000 C 
ATOM     12  C   UNL     1       0.165  10.235  20.583  0.00  0.00    +0.000 C 
ATOM     13  C   UNL     1       0.943  11.531  20.892  0.00  0.00    +0.000 C 
ATOM     14  C   UNL     1      -0.330   9.632  21.916  0.00  0.00    +0.000 C 
ENDBRANCH   5  12
ENDBRANCH   1   8
BRANCH   2  15
ATOM     15  C   UNL     1       5.383   5.117  17.128  0.00  0.00    +0.000 A 
ATOM     16  N   UNL     1       6.578   5.500  16.689  0.00  0.00    +0.000 NA
ATOM     17  C   UNL     1       6.957   4.560  15.770  0.00  0.00    +0.000 A 
ATOM     18  C   UNL     1       5.993   3.591  15.638  0.00  0.00    +0.000 A 
ATOM     19  N   UNL     1       4.985   3.951  16.494  0.00  0.00    +0.000 N 
BRANCH  19  20
ATOM     20  C   UNL     1       3.706   3.265  16.653  0.00  0.00    +0.000 C 
BRANCH  20  21
ATOM     21  C   UNL     1       3.633   2.295  17.840  0.00  0.00    +0.000 C 
BRANCH  21  22
ATOM     22  C   UNL     1       2.793   2.729  19.022  0.00  0.00    +0.000 A 
ATOM     23  C   UNL     1       3.290   2.504  20.313  0.00  0.00    +0.000 A 
ATOM     24  C   UNL     1       2.555   2.932  21.407  0.00  0.00    +0.000 A 
ATOM     25  N   UNL     1       1.374   3.572  21.310  0.00  0.00    +0.000 NA
ATOM     26  C   UNL     1       0.914   3.798  20.063  0.00  0.00    +0.000 A 
ATOM     27  C   UNL     1       1.577   3.410  18.903  0.00  0.00    +0.000 A 
ENDBRANCH  21  22
ENDBRANCH  20  21
ENDBRANCH  19  20
ENDBRANCH   2  15
TORSDOF 6
ENDMDL
