MODEL 1
REMARK VINA RESULT:      -9.6      0.000      0.000
REMARK  Name = 
REMARK  7 active torsions:
REMARK  status: ('A' for Active; 'I' for Inactive)
REMARK    1  A    between atoms: C_1  and  C_2
REMARK    2  A    between atoms: C_4  and  C_5
REMARK    3  A    between atoms: P_12  and  O_14
REMARK    4  A    between atoms: O_14  and  C_15
REMARK    5  A    between atoms: C_15  and  C_16
REMARK    6  A    between atoms: C_19  and  N_20
REMARK    7  A    between atoms: C_22  and  C_23
REMARK                            x       y       z     vdW  Elec       q    Type
REMARK                         _______ _______ _______ _____ _____    ______ ____
ROOT
ATOM      1  C   UNL     1       2.327   7.418  18.177  0.00  0.00    +0.000 C 
ENDROOT
BRANCH   1   2
ATOM      2  C   UNL     1       1.868   8.763  18.756  0.00  0.00    +0.000 C 
ATOM      3  C   UNL     1       1.195   8.712  20.081  0.00  0.00    +0.000 C 
ATOM      4  C   UNL     1       0.219   9.622  20.100  0.00  0.00    +0.000 C 
ATOM      5  C   UNL     1       0.173  10.348  18.797  0.00  0.00    +0.000 C 
ATOM      6  O   UNL     1       0.929   9.468  17.914  0.00  0.00    +0.000 OA
BRANCH   5   7
ATOM      7  N   UNL     1      -1.183  10.622  18.320  0.00  0.00    +0.000 N 
ATOM      8  C   UNL     1      -1.668  10.017  17.172  0.00  0.00    +0.000 A 
ATOM      9  C   UNL     1      -2.813  10.382  16.577  0.00  0.00    +0.000 A 
ATOM     10  C   UNL     1      -3.315   9.800  15.298  0.00  0.00    +0.000 C 
ATOM     11  C   UNL     1      -3.616  11.462  17.210  0.00  0.00    +0.000 A 
ATOM     12  O   UNL     1      -4.661  11.868  16.708  0.00  0.00    +0.000 OA
ATOM     13  N   UNL     1      -3.087  11.989  18.348  0.00  0.00    +0.000 N 
ATOM     14  C   UNL     1      -1.856  11.706  18.882  0.00  0.00    +0.000 A 
ATOM     15  O   UNL     1      -1.408  12.416  19.783  0.00  0.00    +0.000 OA
ATOM     16  H   UNL     1      -3.586  12.768  18.752  0.00  0.00    +0.000 HD
ENDBRANCH   5   7
ENDBRANCH   1   2
BRANCH   1  17
ATOM     17  O   UNL     1       3.280   6.726  18.958  0.00  0.00    +0.000 OA
BRANCH  17  27
ATOM     18  C   UNL     1       7.042   4.717  14.483  0.00  0.00    +0.000 C 
ATOM     19  C   UNL     1       6.355   4.631  15.817  0.00  0.00    +0.000 A 
ATOM     20  C   UNL     1       7.041   5.035  16.968  0.00  0.00    +0.000 A 
ATOM     21  C   UNL     1       6.412   5.006  18.214  0.00  0.00    +0.000 A 
ATOM     22  C   UNL     1       5.093   4.575  18.315  0.00  0.00    +0.000 A 
ATOM     23  C   UNL     1       4.363   4.228  17.176  0.00  0.00    +0.000 A 
ATOM     24  C   UNL     1       5.017   4.216  15.929  0.00  0.00    +0.000 A 
ATOM     25  C   UNL     1       2.897   3.897  17.282  0.00  0.00    +0.000 C 
ATOM     26  O   UNL     1       2.206   4.457  18.387  0.00  0.00    +0.000 OA
ATOM     27  P   UNL     1       2.980   5.257  19.545  0.00  0.00    +0.000 P 
ATOM     28  O   UNL     1       2.315   5.231  20.883  0.00  0.00    +0.000 OA
ATOM     29  O   UNL     1       4.455   4.596  19.523  0.00  0.00    +0.000 OA
BRANCH  21  30
ATOM     30  C   UNL     1       7.115   5.555  19.388  0.00  0.00    +0.000 C 
ATOM     31  O   UNL     1       8.245   5.184  19.687  0.00  0.00    +0.000 OA
ENDBRANCH  21  30
ENDBRANCH  17  27
ENDBRANCH   1  17
TORSDOF 5
ENDMDL
MODEL 2
REMARK VINA RESULT:      -8.7      1.364      1.683
REMARK  Name = 
REMARK  7 active torsions:
REMARK  status: ('A' for Active; 'I' for Inactive)
REMARK    1  A    between atoms: C_1  and  C_2
REMARK    2  A    between atoms: C_4  and  C_5
REMARK    3  A    between atoms: P_12  and  O_14
REMARK    4  A    between atoms: O_14  and  C_15
REMARK    5  A    between atoms: C_15  and  C_16
REMARK    6  A    between atoms: C_19  and  N_20
REMARK    7  A    between atoms: C_22  and  C_23
REMARK                            x       y       z     vdW  Elec       q    Type
REMARK                         _______ _______ _______ _____ _____    ______ ____
ROOT
ATOM      1  C   UNL     1       2.161   7.123  18.760  0.00  0.00    +0.000 C 
ENDROOT
BRANCH   1   2
ATOM      2  C   UNL     1       2.007   8.185  19.856  0.00  0.00    +0.000 C 
ATOM      3  C   UNL     1       1.329   7.746  21.105  0.00  0.00    +0.000 C 
ATOM      4  C   UNL     1       0.578   8.751  21.560  0.00  0.00    +0.000 C 
ATOM      5  C   UNL     1       0.703   9.932  20.656  0.00  0.00    +0.000 C 
ATOM      6  O   UNL     1       1.252   9.345  19.439  0.00  0.00    +0.000 OA
BRANCH   5   7
ATOM      7  N   UNL     1      -0.556  10.646  20.438  0.00  0.00    +0.000 N 
ATOM      8  C   UNL     1      -1.200  10.591  19.212  0.00  0.00    +0.000 A 
ATOM      9  C   UNL     1      -2.234  11.381  18.891  0.00  0.00    +0.000 A 
ATOM     10  C   UNL     1      -2.893  11.397  17.552  0.00  0.00    +0.000 C 
ATOM     11  C   UNL     1      -2.735  12.332  19.920  0.00  0.00    +0.000 A 
ATOM     12  O   UNL     1      -3.659  13.105  19.690  0.00  0.00    +0.000 OA
ATOM     13  N   UNL     1      -2.067  12.308  21.106  0.00  0.00    +0.000 N 
ATOM     14  C   UNL     1      -0.930  11.594  21.387  0.00  0.00    +0.000 A 
ATOM     15  O   UNL     1      -0.301  11.837  22.419  0.00  0.00    +0.000 OA
ATOM     16  H   UNL     1      -2.350  12.993  21.791  0.00  0.00    +0.000 HD
ENDBRANCH   5   7
ENDBRANCH   1   2
BRANCH   1  17
ATOM     17  O   UNL     1       3.321   6.321  18.864  0.00  0.00    +0.000 OA
BRANCH  17  27
ATOM     18  C   UNL     1       7.070   4.856  14.173  0.00  0.00    +0.000 C 
ATOM     19  C   UNL     1       6.476   4.675  15.542  0.00  0.00    +0.000 A 
ATOM     20  C   UNL     1       7.162   5.168  16.657  0.00  0.00    +0.000 A 
ATOM     21  C   UNL     1       6.614   5.051  17.935  0.00  0.00    +0.000 A 
ATOM     22  C   UNL     1       5.374   4.442  18.104  0.00  0.00    +0.000 A 
ATOM     23  C   UNL     1       4.637   3.999  17.004  0.00  0.00    +0.000 A 
ATOM     24  C   UNL     1       5.217   4.078  15.723  0.00  0.00    +0.000 A 
ATOM     25  C   UNL     1       3.239   3.469  17.187  0.00  0.00    +0.000 C 
ATOM     26  O   UNL     1       2.539   3.927  18.332  0.00  0.00    +0.000 OA
ATOM     27  P   UNL     1       3.259   4.825  19.453  0.00  0.00    +0.000 P 
ATOM     28  O   UNL     1       2.679   4.706  20.826  0.00  0.00    +0.000 OA
ATOM     29  O   UNL     1       4.807   4.373  19.345  0.00  0.00    +0.000 OA
BRANCH  21  30
ATOM     30  C   UNL     1       7.298   5.690  19.074  0.00  0.00    +0.000 C 
ATOM     31  O   UNL     1       8.205   5.123  19.673  0.00  0.00    +0.000 OA
ENDBRANCH  21  30
ENDBRANCH  17  27
ENDBRANCH   1  17
TORSDOF 5
ENDMDL
MODEL 3
REMARK VINA RESULT:      -8.3      2.380      3.456
REMARK  Name = 
REMARK  7 active torsions:
REMARK  status: ('A' for Active; 'I' for Inactive)
REMARK    1  A    between atoms: C_1  and  C_2
REMARK    2  A    between atoms: C_4  and  C_5
REMARK    3  A    between atoms: P_12  and  O_14
REMARK    4  A    between atoms: O_14  and  C_15
REMARK    5  A    between atoms: C_15  and  C_16
REMARK    6  A    between atoms: C_19  and  N_20
REMARK    7  A    between atoms: C_22  and  C_23
REMARK                            x       y       z     vdW  Elec       q    Type
REMARK                         _______ _______ _______ _____ _____    ______ ____
ROOT
ATOM      1  C   UNL     1       2.631   7.241  19.628  0.00  0.00    +0.000 C 
ENDROOT
BRANCH   1   2
ATOM      2  C   UNL     1       1.643   8.239  19.008  0.00  0.00    +0.000 C 
ATOM      3  C   UNL     1       2.160   9.059  17.880  0.00  0.00    +0.000 C 
ATOM      4  C   UNL     1       1.639  10.285  17.968  0.00  0.00    +0.000 C 
ATOM      5  C   UNL     1       0.734  10.370  19.153  0.00  0.00    +0.000 C 
ATOM      6  O   UNL     1       1.137   9.215  19.945  0.00  0.00    +0.000 OA
BRANCH   5   7
ATOM      7  N   UNL     1       0.832  11.636  19.881  0.00  0.00    +0.000 N 
ATOM      8  C   UNL     1       1.951  12.442  19.755  0.00  0.00    +0.000 A 
ATOM      9  C   UNL     1       2.187  13.499  20.546  0.00  0.00    +0.000 A 
ATOM     10  C   UNL     1       3.422  14.334  20.482  0.00  0.00    +0.000 C 
ATOM     11  C   UNL     1       1.173  13.839  21.579  0.00  0.00    +0.000 A 
ATOM     12  O   UNL     1       1.333  14.775  22.358  0.00  0.00    +0.000 OA
ATOM     13  N   UNL     1       0.090  13.015  21.624  0.00  0.00    +0.000 N 
ATOM     14  C   UNL     1      -0.087  11.862  20.904  0.00  0.00    +0.000 A 
ATOM     15  O   UNL     1      -1.002  11.094  21.203  0.00  0.00    +0.000 OA
ATOM     16  H   UNL     1      -0.574  13.192  22.363  0.00  0.00    +0.000 HD
ENDBRANCH   5   7
ENDBRANCH   1   2
BRANCH   1  17
ATOM     17  O   UNL     1       2.842   6.064  18.875  0.00  0.00    +0.000 OA
BRANCH  17  27
ATOM     18  C   UNL     1       6.903   4.538  14.471  0.00  0.00    +0.000 C 
ATOM     19  C   UNL     1       6.257   4.412  15.822  0.00  0.00    +0.000 A 
ATOM     20  C   UNL     1       6.854   5.030  16.926  0.00  0.00    +0.000 A 
ATOM     21  C   UNL     1       6.254   4.965  18.185  0.00  0.00    +0.000 A 
ATOM     22  C   UNL     1       5.050   4.284  18.345  0.00  0.00    +0.000 A 
ATOM     23  C   UNL     1       4.398   3.714  17.249  0.00  0.00    +0.000 A 
ATOM     24  C   UNL     1       5.033   3.744  15.991  0.00  0.00    +0.000 A 
ATOM     25  C   UNL     1       3.031   3.102  17.409  0.00  0.00    +0.000 C 
ATOM     26  O   UNL     1       2.248   3.589  18.487  0.00  0.00    +0.000 OA
ATOM     27  P   UNL     1       2.852   4.612  19.569  0.00  0.00    +0.000 P 
ATOM     28  O   UNL     1       2.216   4.549  20.920  0.00  0.00    +0.000 OA
ATOM     29  O   UNL     1       4.430   4.263  19.561  0.00  0.00    +0.000 OA
BRANCH  21  30
ATOM     30  C   UNL     1       6.838   5.728  19.302  0.00  0.00    +0.000 C 
ATOM     31  O   UNL     1       7.591   5.199  20.112  0.00  0.00    +0.000 OA
ENDBRANCH  21  30
ENDBRANCH  17  27
ENDBRANCH   1  17
TORSDOF 5
ENDMDL
MODEL 4
REMARK VINA RESULT:      -8.2      2.206      2.467
REMARK  Name = 
REMARK  7 active torsions:
REMARK  status: ('A' for Active; 'I' for Inactive)
REMARK    1  A    between atoms: C_1  and  C_2
REMARK    2  A    between atoms: C_4  and  C_5
REMARK    3  A    between atoms: P_12  and  O_14
REMARK    4  A    between atoms: O_14  and  C_15
REMARK    5  A    between atoms: C_15  and  C_16
REMARK    6  A    between atoms: C_19  and  N_20
REMARK    7  A    between atoms: C_22  and  C_23
REMARK                            x       y       z     vdW  Elec       q    Type
REMARK                         _______ _______ _______ _____ _____    ______ ____
ROOT
ATOM      1  C   UNL     1       2.128   7.152  19.087  0.00  0.00    +0.000 C 
ENDROOT
BRANCH   1   2
ATOM      2  C   UNL     1       1.795   7.880  20.396  0.00  0.00    +0.000 C 
ATOM      3  C   UNL     1       0.567   7.430  21.104  0.00  0.00    +0.000 C 
ATOM      4  C   UNL     1      -0.029   8.494  21.646  0.00  0.00    +0.000 C 
ATOM      5  C   UNL     1       0.757   9.727  21.346  0.00  0.00    +0.000 C 
ATOM      6  O   UNL     1       1.603   9.303  20.237  0.00  0.00    +0.000 OA
BRANCH   5   7
ATOM      7  N   UNL     1      -0.070  10.893  21.033  0.00  0.00    +0.000 N 
ATOM      8  C   UNL     1      -0.043  11.463  19.770  0.00  0.00    +0.000 A 
ATOM      9  C   UNL     1      -0.613  12.643  19.486  0.00  0.00    +0.000 A 
ATOM     10  C   UNL     1      -0.530  13.314  18.156  0.00  0.00    +0.000 C 
ATOM     11  C   UNL     1      -1.342  13.349  20.574  0.00  0.00    +0.000 A 
ATOM     12  O   UNL     1      -1.865  14.445  20.396  0.00  0.00    +0.000 OA
ATOM     13  N   UNL     1      -1.344  12.713  21.778  0.00  0.00    +0.000 N 
ATOM     14  C   UNL     1      -0.653  11.574  22.100  0.00  0.00    +0.000 A 
ATOM     15  O   UNL     1      -0.561  11.233  23.280  0.00  0.00    +0.000 OA
ATOM     16  H   UNL     1      -1.777  13.210  22.543  0.00  0.00    +0.000 HD
ENDBRANCH   5   7
ENDBRANCH   1   2
BRANCH   1  17
ATOM     17  O   UNL     1       3.258   6.305  19.145  0.00  0.00    +0.000 OA
BRANCH  17  27
ATOM     18  C   UNL     1       6.961   4.918  14.395  0.00  0.00    +0.000 C 
ATOM     19  C   UNL     1       6.360   4.698  15.755  0.00  0.00    +0.000 A 
ATOM     20  C   UNL     1       7.061   5.121  16.890  0.00  0.00    +0.000 A 
ATOM     21  C   UNL     1       6.508   4.967  18.161  0.00  0.00    +0.000 A 
ATOM     22  C   UNL     1       5.248   4.393  18.305  0.00  0.00    +0.000 A 
ATOM     23  C   UNL     1       4.498   4.022  17.187  0.00  0.00    +0.000 A 
ATOM     24  C   UNL     1       5.082   4.137  15.910  0.00  0.00    +0.000 A 
ATOM     25  C   UNL     1       3.083   3.531  17.348  0.00  0.00    +0.000 C 
ATOM     26  O   UNL     1       2.398   3.963  18.512  0.00  0.00    +0.000 OA
ATOM     27  P   UNL     1       3.145   4.788  19.670  0.00  0.00    +0.000 P 
ATOM     28  O   UNL     1       2.560   4.629  21.037  0.00  0.00    +0.000 OA
ATOM     29  O   UNL     1       4.678   4.290  19.542  0.00  0.00    +0.000 OA
BRANCH  21  30
ATOM     30  C   UNL     1       7.211   5.533  19.327  0.00  0.00    +0.000 C 
ATOM     31  O   UNL     1       8.314   5.122  19.669  0.00  0.00    +0.000 OA
ENDBRANCH  21  30
ENDBRANCH  17  27
ENDBRANCH   1  17
TORSDOF 5
ENDMDL
MODEL 5
REMARK VINA RESULT:      -8.2      1.525      2.484
REMARK  Name = 
REMARK  7 active torsions:
REMARK  status: ('A' for Active; 'I' for Inactive)
REMARK    1  A    between atoms: C_1  and  C_2
REMARK    2  A    between atoms: C_4  and  C_5
REMARK    3  A    between atoms: P_12  and  O_14
REMARK    4  A    between atoms: O_14  and  C_15
REMARK    5  A    between atoms: C_15  and  C_16
REMARK    6  A    between atoms: C_19  and  N_20
REMARK    7  A    between atoms: C_22  and  C_23
REMARK                            x       y       z     vdW  Elec       q    Type
REMARK                         _______ _______ _______ _____ _____    ______ ____
ROOT
ATOM      1  C   UNL     1       2.429   7.428  19.620  0.00  0.00    +0.000 C 
ENDROOT
BRANCH   1   2
ATOM      2  C   UNL     1       1.646   8.321  18.649  0.00  0.00    +0.000 C 
ATOM      3  C   UNL     1       2.381   9.489  18.094  0.00  0.00    +0.000 C 
ATOM      4  C   UNL     1       1.536  10.516  17.988  0.00  0.00    +0.000 C 
ATOM      5  C   UNL     1       0.178  10.109  18.457  0.00  0.00    +0.000 C 
ATOM      6  O   UNL     1       0.455   8.901  19.225  0.00  0.00    +0.000 OA
BRANCH   5   7
ATOM      7  N   UNL     1      -0.515  11.141  19.229  0.00  0.00    +0.000 N 
ATOM      8  C   UNL     1      -0.412  11.183  20.611  0.00  0.00    +0.000 A 
ATOM      9  C   UNL     1      -1.180  11.968  21.380  0.00  0.00    +0.000 A 
ATOM     10  C   UNL     1      -1.143  11.972  22.872  0.00  0.00    +0.000 C 
ATOM     11  C   UNL     1      -2.158  12.864  20.709  0.00  0.00    +0.000 A 
ATOM     12  O   UNL     1      -2.914  13.590  21.348  0.00  0.00    +0.000 OA
ATOM     13  N   UNL     1      -2.182  12.784  19.350  0.00  0.00    +0.000 N 
ATOM     14  C   UNL     1      -1.490  11.889  18.574  0.00  0.00    +0.000 A 
ATOM     15  O   UNL     1      -1.774  11.775  17.381  0.00  0.00    +0.000 OA
ATOM     16  H   UNL     1      -2.886  13.336  18.883  0.00  0.00    +0.000 HD
ENDBRANCH   5   7
ENDBRANCH   1   2
BRANCH   1  17
ATOM     17  O   UNL     1       3.116   6.349  19.018  0.00  0.00    +0.000 OA
BRANCH  17  27
ATOM     18  C   UNL     1       6.828   4.791  14.327  0.00  0.00    +0.000 C 
ATOM     19  C   UNL     1       6.227   4.622  15.694  0.00  0.00    +0.000 A 
ATOM     20  C   UNL     1       6.926   5.091  16.812  0.00  0.00    +0.000 A 
ATOM     21  C   UNL     1       6.372   4.986  18.089  0.00  0.00    +0.000 A 
ATOM     22  C   UNL     1       5.114   4.413  18.254  0.00  0.00    +0.000 A 
ATOM     23  C   UNL     1       4.366   3.996  17.151  0.00  0.00    +0.000 A 
ATOM     24  C   UNL     1       4.950   4.063  15.871  0.00  0.00    +0.000 A 
ATOM     25  C   UNL     1       2.952   3.507  17.329  0.00  0.00    +0.000 C 
ATOM     26  O   UNL     1       2.265   3.981  18.476  0.00  0.00    +0.000 OA
ATOM     27  P   UNL     1       3.009   4.853  19.601  0.00  0.00    +0.000 P 
ATOM     28  O   UNL     1       2.423   4.746  20.972  0.00  0.00    +0.000 OA
ATOM     29  O   UNL     1       4.543   4.356  19.494  0.00  0.00    +0.000 OA
BRANCH  21  30
ATOM     30  C   UNL     1       7.072   5.599  19.231  0.00  0.00    +0.000 C 
ATOM     31  O   UNL     1       8.059   6.309  19.069  0.00  0.00    +0.000 OA
ENDBRANCH  21  30
ENDBRANCH  17  27
ENDBRANCH   1  17
TORSDOF 5
ENDMDL
MODEL 6
REMARK VINA RESULT:      -8.2      1.209      1.762
REMARK  Name = 
REMARK  7 active torsions:
REMARK  status: ('A' for Active; 'I' for Inactive)
REMARK    1  A    between atoms: C_1  and  C_2
REMARK    2  A    between atoms: C_4  and  C_5
REMARK    3  A    between atoms: P_12  and  O_14
REMARK    4  A    between atoms: O_14  and  C_15
REMARK    5  A    between atoms: C_15  and  C_16
REMARK    6  A    between atoms: C_19  and  N_20
REMARK    7  A    between atoms: C_22  and  C_23
REMARK                            x       y       z     vdW  Elec       q    Type
REMARK                         _______ _______ _______ _____ _____    ______ ____
ROOT
ATOM      1  C   UNL     1       2.206   7.230  18.714  0.00  0.00    +0.000 C 
ENDROOT
BRANCH   1   2
ATOM      2  C   UNL     1       1.909   8.504  19.517  0.00  0.00    +0.000 C 
ATOM      3  C   UNL     1       1.120   8.324  20.764  0.00  0.00    +0.000 C 
ATOM      4  C   UNL     1       0.297   9.365  20.904  0.00  0.00    +0.000 C 
ATOM      5  C   UNL     1       0.480  10.316  19.768  0.00  0.00    +0.000 C 
ATOM      6  O   UNL     1       1.168   9.498  18.776  0.00  0.00    +0.000 OA
BRANCH   5   7
ATOM      7  N   UNL     1      -0.770  10.896  19.275  0.00  0.00    +0.000 N 
ATOM      8  C   UNL     1      -1.499  11.778  20.057  0.00  0.00    +0.000 A 
ATOM      9  C   UNL     1      -2.741  12.177  19.749  0.00  0.00    +0.000 A 
ATOM     10  C   UNL     1      -3.576  13.063  20.613  0.00  0.00    +0.000 C 
ATOM     11  C   UNL     1      -3.344  11.677  18.485  0.00  0.00    +0.000 A 
ATOM     12  O   UNL     1      -4.486  11.976  18.150  0.00  0.00    +0.000 OA
ATOM     13  N   UNL     1      -2.556  10.835  17.760  0.00  0.00    +0.000 N 
ATOM     14  C   UNL     1      -1.341  10.326  18.140  0.00  0.00    +0.000 A 
ATOM     15  O   UNL     1      -0.842   9.403  17.495  0.00  0.00    +0.000 OA
ATOM     16  H   UNL     1      -2.975  10.434  16.934  0.00  0.00    +0.000 HD
ENDBRANCH   5   7
ENDBRANCH   1   2
BRANCH   1  17
ATOM     17  O   UNL     1       3.281   6.454  19.202  0.00  0.00    +0.000 OA
BRANCH  17  27
ATOM     18  C   UNL     1       6.994   4.839  14.531  0.00  0.00    +0.000 C 
ATOM     19  C   UNL     1       6.350   4.657  15.877  0.00  0.00    +0.000 A 
ATOM     20  C   UNL     1       7.052   5.034  17.028  0.00  0.00    +0.000 A 
ATOM     21  C   UNL     1       6.462   4.914  18.287  0.00  0.00    +0.000 A 
ATOM     22  C   UNL     1       5.166   4.421  18.402  0.00  0.00    +0.000 A 
ATOM     23  C   UNL     1       4.418   4.099  17.267  0.00  0.00    +0.000 A 
ATOM     24  C   UNL     1       5.036   4.177  16.004  0.00  0.00    +0.000 A 
ATOM     25  C   UNL     1       2.972   3.698  17.396  0.00  0.00    +0.000 C 
ATOM     26  O   UNL     1       2.290   4.171  18.545  0.00  0.00    +0.000 OA
ATOM     27  P   UNL     1       3.062   4.946  19.721  0.00  0.00    +0.000 P 
ATOM     28  O   UNL     1       2.439   4.824  21.074  0.00  0.00    +0.000 OA
ATOM     29  O   UNL     1       4.563   4.353  19.626  0.00  0.00    +0.000 OA
BRANCH  21  30
ATOM     30  C   UNL     1       7.174   5.434  19.469  0.00  0.00    +0.000 C 
ATOM     31  O   UNL     1       8.348   5.153  19.682  0.00  0.00    +0.000 OA
ENDBRANCH  21  30
ENDBRANCH  17  27
ENDBRANCH   1  17
TORSDOF 5
ENDMDL
MODEL 7
REMARK VINA RESULT:      -8.2      3.213      9.379
REMARK  Name = 
REMARK  7 active torsions:
REMARK  status: ('A' for Active; 'I' for Inactive)
REMARK    1  A    between atoms: C_1  and  C_2
REMARK    2  A    between atoms: C_4  and  C_5
REMARK    3  A    between atoms: P_12  and  O_14
REMARK    4  A    between atoms: O_14  and  C_15
REMARK    5  A    between atoms: C_15  and  C_16
REMARK    6  A    between atoms: C_19  and  N_20
REMARK    7  A    between atoms: C_22  and  C_23
REMARK                            x       y       z     vdW  Elec       q    Type
REMARK                         _______ _______ _______ _____ _____    ______ ____
ROOT
ATOM      1  C   UNL     1       1.778   8.460  20.265  0.00  0.00    +0.000 C 
ENDROOT
BRANCH   1   2
ATOM      2  C   UNL     1       1.750   7.024  19.725  0.00  0.00    +0.000 C 
ATOM      3  C   UNL     1       1.886   5.941  20.734  0.00  0.00    +0.000 C 
ATOM      4  C   UNL     1       2.612   4.953  20.207  0.00  0.00    +0.000 C 
ATOM      5  C   UNL     1       3.008   5.301  18.810  0.00  0.00    +0.000 C 
ATOM      6  O   UNL     1       2.795   6.742  18.768  0.00  0.00    +0.000 OA
BRANCH   5   7
ATOM      7  N   UNL     1       4.374   4.905  18.467  0.00  0.00    +0.000 N 
ATOM      8  C   UNL     1       5.463   5.532  19.052  0.00  0.00    +0.000 A 
ATOM      9  C   UNL     1       6.724   5.359  18.631  0.00  0.00    +0.000 A 
ATOM     10  C   UNL     1       7.902   6.083  19.192  0.00  0.00    +0.000 C 
ATOM     11  C   UNL     1       6.962   4.416  17.506  0.00  0.00    +0.000 A 
ATOM     12  O   UNL     1       8.085   4.227  17.047  0.00  0.00    +0.000 OA
ATOM     13  N   UNL     1       5.846   3.821  17.001  0.00  0.00    +0.000 N 
ATOM     14  C   UNL     1       4.548   4.097  17.346  0.00  0.00    +0.000 A 
ATOM     15  O   UNL     1       3.629   3.653  16.655  0.00  0.00    +0.000 OA
ATOM     16  H   UNL     1       5.983   3.230  16.194  0.00  0.00    +0.000 HD
ENDBRANCH   5   7
ENDBRANCH   1   2
BRANCH   1  17
ATOM     17  O   UNL     1       0.795   9.320  19.726  0.00  0.00    +0.000 OA
BRANCH  17  27
ATOM     18  C   UNL     1      -3.858  13.038  21.380  0.00  0.00    +0.000 C 
ATOM     19  C   UNL     1      -2.636  12.665  20.589  0.00  0.00    +0.000 A 
ATOM     20  C   UNL     1      -1.385  13.141  20.997  0.00  0.00    +0.000 A 
ATOM     21  C   UNL     1      -0.229  12.776  20.305  0.00  0.00    +0.000 A 
ATOM     22  C   UNL     1      -0.318  11.930  19.203  0.00  0.00    +0.000 A 
ATOM     23  C   UNL     1      -1.545  11.389  18.812  0.00  0.00    +0.000 A 
ATOM     24  C   UNL     1      -2.712  11.798  19.486  0.00  0.00    +0.000 A 
ATOM     25  C   UNL     1      -1.610  10.368  17.706  0.00  0.00    +0.000 C 
ATOM     26  O   UNL     1      -0.431   9.612  17.481  0.00  0.00    +0.000 OA
ATOM     27  P   UNL     1       0.940   9.943  18.249  0.00  0.00    +0.000 P 
ATOM     28  O   UNL     1       2.184   9.557  17.516  0.00  0.00    +0.000 OA
ATOM     29  O   UNL     1       0.814  11.526  18.555  0.00  0.00    +0.000 OA
BRANCH  21  30
ATOM     30  C   UNL     1       1.086  13.188  20.830  0.00  0.00    +0.000 C 
ATOM     31  O   UNL     1       1.854  12.377  21.336  0.00  0.00    +0.000 OA
ENDBRANCH  21  30
ENDBRANCH  17  27
ENDBRANCH   1  17
TORSDOF 5
ENDMDL
MODEL 8
REMARK VINA RESULT:      -8.1      2.143      3.144
REMARK  Name = 
REMARK  7 active torsions:
REMARK  status: ('A' for Active; 'I' for Inactive)
REMARK    1  A    between atoms: C_1  and  C_2
REMARK    2  A    between atoms: C_4  and  C_5
REMARK    3  A    between atoms: P_12  and  O_14
REMARK    4  A    between atoms: O_14  and  C_15
REMARK    5  A    between atoms: C_15  and  C_16
REMARK    6  A    between atoms: C_19  and  N_20
REMARK    7  A    between atoms: C_22  and  C_23
REMARK                            x       y       z     vdW  Elec       q    Type
REMARK                         _______ _______ _______ _____ _____    ______ ____
ROOT
ATOM      1  C   UNL     1       2.996   8.134  17.889  0.00  0.00    +0.000 C 
ENDROOT
BRANCH   1   2
ATOM      2  C   UNL     1       1.970   9.260  17.710  0.00  0.00    +0.000 C 
ATOM      3  C   UNL     1       2.501  10.648  17.777  0.00  0.00    +0.000 C 
ATOM      4  C   UNL     1       1.603  11.421  18.391  0.00  0.00    +0.000 C 
ATOM      5  C   UNL     1       0.409  10.610  18.772  0.00  0.00    +0.000 C 
ATOM      6  O   UNL     1       0.912   9.244  18.694  0.00  0.00    +0.000 OA
BRANCH   5   7
ATOM      7  N   UNL     1      -0.143  10.951  20.085  0.00  0.00    +0.000 N 
ATOM      8  C   UNL     1       0.203  10.220  21.211  0.00  0.00    +0.000 A 
ATOM      9  C   UNL     1      -0.421  10.351  22.390  0.00  0.00    +0.000 A 
ATOM     10  C   UNL     1      -0.121   9.521  23.593  0.00  0.00    +0.000 C 
ATOM     11  C   UNL     1      -1.509  11.360  22.498  0.00  0.00    +0.000 A 
ATOM     12  O   UNL     1      -2.143  11.518  23.537  0.00  0.00    +0.000 OA
ATOM     13  N   UNL     1      -1.772  12.055  21.357  0.00  0.00    +0.000 N 
ATOM     14  C   UNL     1      -1.223  11.829  20.120  0.00  0.00    +0.000 A 
ATOM     15  O   UNL     1      -1.713  12.376  19.131  0.00  0.00    +0.000 OA
ATOM     16  H   UNL     1      -2.551  12.695  21.395  0.00  0.00    +0.000 HD
ENDBRANCH   5   7
ENDBRANCH   1   2
BRANCH   1  17
ATOM     17  O   UNL     1       2.455   6.828  17.896  0.00  0.00    +0.000 OA
BRANCH  17  27
ATOM     18  C   UNL     1       6.144   3.944  13.861  0.00  0.00    +0.000 C 
ATOM     19  C   UNL     1       5.686   4.339  15.236  0.00  0.00    +0.000 A 
ATOM     20  C   UNL     1       6.316   5.405  15.888  0.00  0.00    +0.000 A 
ATOM     21  C   UNL     1       5.882   5.820  17.148  0.00  0.00    +0.000 A 
ATOM     22  C   UNL     1       4.814   5.173  17.762  0.00  0.00    +0.000 A 
ATOM     23  C   UNL     1       4.125   4.149  17.108  0.00  0.00    +0.000 A 
ATOM     24  C   UNL     1       4.597   3.705  15.858  0.00  0.00    +0.000 A 
ATOM     25  C   UNL     1       2.887   3.551  17.723  0.00  0.00    +0.000 C 
ATOM     26  O   UNL     1       2.175   4.377  18.630  0.00  0.00    +0.000 OA
ATOM     27  P   UNL     1       2.751   5.801  19.099  0.00  0.00    +0.000 P 
ATOM     28  O   UNL     1       2.293   6.254  20.448  0.00  0.00    +0.000 OA
ATOM     29  O   UNL     1       4.351   5.609  18.971  0.00  0.00    +0.000 OA
BRANCH  21  30
ATOM     30  C   UNL     1       6.480   7.023  17.756  0.00  0.00    +0.000 C 
ATOM     31  O   UNL     1       7.186   7.784  17.103  0.00  0.00    +0.000 OA
ENDBRANCH  21  30
ENDBRANCH  17  27
ENDBRANCH   1  17
TORSDOF 5
ENDMDL
MODEL 9
REMARK VINA RESULT:      -7.9      1.140      1.146
REMARK  Name = 
REMARK  7 active torsions:
REMARK  status: ('A' for Active; 'I' for Inactive)
REMARK    1  A    between atoms: C_1  and  C_2
REMARK    2  A    between atoms: C_4  and  C_5
REMARK    3  A    between atoms: P_12  and  O_14
REMARK    4  A    between atoms: O_14  and  C_15
REMARK    5  A    between atoms: C_15  and  C_16
REMARK    6  A    between atoms: C_19  and  N_20
REMARK    7  A    between atoms: C_22  and  C_23
REMARK                            x       y       z     vdW  Elec       q    Type
REMARK                         _______ _______ _______ _____ _____    ______ ____
ROOT
ATOM      1  C   UNL     1       2.825   7.840  17.828  0.00  0.00    +0.000 C 
ENDROOT
BRANCH   1   2
ATOM      2  C   UNL     1       2.194   9.000  18.609  0.00  0.00    +0.000 C 
ATOM      3  C   UNL     1       1.463   8.634  19.851  0.00  0.00    +0.000 C 
ATOM      4  C   UNL     1       0.394   9.424  19.968  0.00  0.00    +0.000 C 
ATOM      5  C   UNL     1       0.336  10.376  18.820  0.00  0.00    +0.000 C 
ATOM      6  O   UNL     1       1.227   9.756  17.846  0.00  0.00    +0.000 OA
BRANCH   5   7
ATOM      7  N   UNL     1      -1.016  10.602  18.307  0.00  0.00    +0.000 N 
ATOM      8  C   UNL     1      -1.451   9.972  17.152  0.00  0.00    +0.000 A 
ATOM      9  C   UNL     1      -2.592  10.295  16.526  0.00  0.00    +0.000 A 
ATOM     10  C   UNL     1      -3.043   9.686  15.240  0.00  0.00    +0.000 C 
ATOM     11  C   UNL     1      -3.446  11.353  17.128  0.00  0.00    +0.000 A 
ATOM     12  O   UNL     1      -4.490  11.721  16.598  0.00  0.00    +0.000 OA
ATOM     13  N   UNL     1      -2.963  11.906  18.275  0.00  0.00    +0.000 N 
ATOM     14  C   UNL     1      -1.737  11.668  18.842  0.00  0.00    +0.000 A 
ATOM     15  O   UNL     1      -1.335  12.399  19.747  0.00  0.00    +0.000 OA
ATOM     16  H   UNL     1      -3.497  12.671  18.660  0.00  0.00    +0.000 HD
ENDBRANCH   5   7
ENDBRANCH   1   2
BRANCH   1  17
ATOM     17  O   UNL     1       2.247   6.573  18.069  0.00  0.00    +0.000 OA
BRANCH  17  27
ATOM     18  C   UNL     1       5.861   4.022  13.752  0.00  0.00    +0.000 C 
ATOM     19  C   UNL     1       5.488   4.400  15.158  0.00  0.00    +0.000 A 
ATOM     20  C   UNL     1       6.046   5.550  15.728  0.00  0.00    +0.000 A 
ATOM     21  C   UNL     1       5.685   5.948  17.016  0.00  0.00    +0.000 A 
ATOM     22  C   UNL     1       4.762   5.199  17.740  0.00  0.00    +0.000 A 
ATOM     23  C   UNL     1       4.141   4.084  17.173  0.00  0.00    +0.000 A 
ATOM     24  C   UNL     1       4.544   3.662  15.891  0.00  0.00    +0.000 A 
ATOM     25  C   UNL     1       3.044   3.364  17.913  0.00  0.00    +0.000 C 
ATOM     26  O   UNL     1       2.327   4.127  18.869  0.00  0.00    +0.000 OA
ATOM     27  P   UNL     1       2.771   5.622  19.256  0.00  0.00    +0.000 P 
ATOM     28  O   UNL     1       2.390   6.056  20.635  0.00  0.00    +0.000 OA
ATOM     29  O   UNL     1       4.364   5.612  18.980  0.00  0.00    +0.000 OA
BRANCH  21  30
ATOM     30  C   UNL     1       6.191   7.228  17.543  0.00  0.00    +0.000 C 
ATOM     31  O   UNL     1       7.175   7.775  17.057  0.00  0.00    +0.000 OA
ENDBRANCH  21  30
ENDBRANCH  17  27
ENDBRANCH   1  17
TORSDOF 5
ENDMDL
