MODEL 1
REMARK VINA RESULT:      -6.8      0.000      0.000
REMARK  Name = 
REMARK  8 active torsions:
REMARK  status: ('A' for Active; 'I' for Inactive)
REMARK    1  A    between atoms: C_1  and  O_2
REMARK    2  A    between atoms: O_2  and  C_3
REMARK    3  A    between atoms: C_7  and  O_8
REMARK    4  A    between atoms: O_8  and  C_9
REMARK    5  A    between atoms: C_10  and  O_11
REMARK    6  A    between atoms: C_14  and  O_15
REMARK    7  A    between atoms: C_16  and  C_17
REMARK    8  A    between atoms: C_20  and  O_21
REMARK                            x       y       z     vdW  Elec       q    Type
REMARK                         _______ _______ _______ _____ _____    ______ ____
ROOT
ATOM      1  C   UNL     1       5.636   5.959  16.480  0.00  0.00    +0.000 A 
ATOM      2  C   UNL     1       4.750   7.038  16.452  0.00  0.00    +0.000 A 
ATOM      3  C   UNL     1       3.796   7.182  17.455  0.00  0.00    +0.000 A 
ATOM      4  C   UNL     1       3.721   6.229  18.484  0.00  0.00    +0.000 A 
ATOM      5  C   UNL     1       4.618   5.143  18.556  0.00  0.00    +0.000 A 
ATOM      6  C   UNL     1       5.573   5.025  17.539  0.00  0.00    +0.000 A 
ATOM      7  C   UNL     1       2.657   6.436  19.495  0.00  0.00    +0.000 C 
ATOM      8  O   UNL     1       2.124   5.515  20.115  0.00  0.00    +0.000 OA
ATOM      9  C   UNL     1       2.170   7.855  19.625  0.00  0.00    +0.000 C 
ATOM     10  C   UNL     1       1.811   8.250  18.190  0.00  0.00    +0.000 C 
ATOM     11  O   UNL     1       2.989   8.296  17.359  0.00  0.00    +0.000 OA
ENDROOT
BRANCH  10  12
ATOM     12  C   UNL     1       1.099   9.595  18.172  0.00  0.00    +0.000 A 
ATOM     13  C   UNL     1       1.746  10.775  18.572  0.00  0.00    +0.000 A 
ATOM     14  C   UNL     1       1.013  11.946  18.790  0.00  0.00    +0.000 A 
ATOM     15  C   UNL     1      -0.363  11.942  18.584  0.00  0.00    +0.000 A 
ATOM     16  C   UNL     1      -1.009  10.807  18.115  0.00  0.00    +0.000 A 
ATOM     17  C   UNL     1      -0.281   9.636  17.908  0.00  0.00    +0.000 A 
BRANCH  15  18
ATOM     18  O   UNL     1      -1.125  13.036  18.864  0.00  0.00    +0.000 OA
ATOM     19  H   UNL     1      -1.716  12.815  19.603  0.00  0.00    +0.000 HD
ENDBRANCH  15  18
ENDBRANCH  10  12
BRANCH   1  21
ATOM     20  C   UNL     1       6.146   4.839  14.441  0.00  0.00    +0.000 C 
ATOM     21  O   UNL     1       6.558   5.699  15.497  0.00  0.00    +0.000 OA
ENDBRANCH   1  21
BRANCH   5  22
ATOM     22  O   UNL     1       4.466   4.358  19.661  0.00  0.00    +0.000 OA
ATOM     23  C   UNL     1       4.191   2.975  19.588  0.00  0.00    +0.000 C 
ENDBRANCH   5  22
BRANCH   6  24
ATOM     24  O   UNL     1       6.521   4.033  17.539  0.00  0.00    +0.000 OA
ATOM     25  H   UNL     1       6.459   3.577  16.686  0.00  0.00    +0.000 HD
ENDBRANCH   6  24
BRANCH   9  26
ATOM     26  O   UNL     1       1.059   7.916  20.517  0.00  0.00    +0.000 OA
ATOM     27  H   UNL     1       1.291   7.378  21.299  0.00  0.00    +0.000 HD
ENDBRANCH   9  26
TORSDOF 6
ENDMDL
MODEL 2
REMARK VINA RESULT:      -6.7      1.814      7.053
REMARK  Name = 
REMARK  8 active torsions:
REMARK  status: ('A' for Active; 'I' for Inactive)
REMARK    1  A    between atoms: C_1  and  O_2
REMARK    2  A    between atoms: O_2  and  C_3
REMARK    3  A    between atoms: C_7  and  O_8
REMARK    4  A    between atoms: O_8  and  C_9
REMARK    5  A    between atoms: C_10  and  O_11
REMARK    6  A    between atoms: C_14  and  O_15
REMARK    7  A    between atoms: C_16  and  C_17
REMARK    8  A    between atoms: C_20  and  O_21
REMARK                            x       y       z     vdW  Elec       q    Type
REMARK                         _______ _______ _______ _____ _____    ______ ____
ROOT
ATOM      1  C   UNL     1       2.226   7.898  19.140  0.00  0.00    +0.000 A 
ATOM      2  C   UNL     1       2.949   7.635  17.974  0.00  0.00    +0.000 A 
ATOM      3  C   UNL     1       3.546   6.390  17.791  0.00  0.00    +0.000 A 
ATOM      4  C   UNL     1       3.429   5.410  18.789  0.00  0.00    +0.000 A 
ATOM      5  C   UNL     1       2.683   5.635  19.966  0.00  0.00    +0.000 A 
ATOM      6  C   UNL     1       2.087   6.892  20.122  0.00  0.00    +0.000 A 
ATOM      7  C   UNL     1       4.119   4.124  18.533  0.00  0.00    +0.000 C 
ATOM      8  O   UNL     1       4.553   3.398  19.428  0.00  0.00    +0.000 OA
ATOM      9  C   UNL     1       4.378   3.819  17.081  0.00  0.00    +0.000 C 
ATOM     10  C   UNL     1       5.090   5.073  16.567  0.00  0.00    +0.000 C 
ATOM     11  O   UNL     1       4.209   6.215  16.595  0.00  0.00    +0.000 OA
ENDROOT
BRANCH  10  12
ATOM     12  C   UNL     1       5.614   4.845  15.156  0.00  0.00    +0.000 A 
ATOM     13  C   UNL     1       4.852   4.171  14.189  0.00  0.00    +0.000 A 
ATOM     14  C   UNL     1       5.439   3.750  12.991  0.00  0.00    +0.000 A 
ATOM     15  C   UNL     1       6.781   4.025  12.752  0.00  0.00    +0.000 A 
ATOM     16  C   UNL     1       7.532   4.757  13.662  0.00  0.00    +0.000 A 
ATOM     17  C   UNL     1       6.950   5.167  14.860  0.00  0.00    +0.000 A 
BRANCH  15  18
ATOM     18  O   UNL     1       7.413   3.562  11.636  0.00  0.00    +0.000 OA
ATOM     19  H   UNL     1       7.686   2.644  11.801  0.00  0.00    +0.000 HD
ENDBRANCH  15  18
ENDBRANCH  10  12
BRANCH   1  21
ATOM     20  C   UNL     1       1.096   9.842  18.355  0.00  0.00    +0.000 C 
ATOM     21  O   UNL     1       1.668   9.117  19.436  0.00  0.00    +0.000 OA
ENDBRANCH   1  21
BRANCH   5  22
ATOM     22  O   UNL     1       2.597   4.555  20.794  0.00  0.00    +0.000 OA
ATOM     23  C   UNL     1       1.413   3.800  20.951  0.00  0.00    +0.000 C 
ENDBRANCH   5  22
BRANCH   6  24
ATOM     24  O   UNL     1       1.303   7.199  21.207  0.00  0.00    +0.000 OA
ATOM     25  H   UNL     1       1.698   6.765  21.978  0.00  0.00    +0.000 HD
ENDBRANCH   6  24
BRANCH   9  26
ATOM     26  O   UNL     1       5.166   2.637  16.957  0.00  0.00    +0.000 OA
ATOM     27  H   UNL     1       4.884   2.030  17.669  0.00  0.00    +0.000 HD
ENDBRANCH   9  26
TORSDOF 6
ENDMDL
MODEL 3
REMARK VINA RESULT:      -6.7      1.739      6.916
REMARK  Name = 
REMARK  8 active torsions:
REMARK  status: ('A' for Active; 'I' for Inactive)
REMARK    1  A    between atoms: C_1  and  O_2
REMARK    2  A    between atoms: O_2  and  C_3
REMARK    3  A    between atoms: C_7  and  O_8
REMARK    4  A    between atoms: O_8  and  C_9
REMARK    5  A    between atoms: C_10  and  O_11
REMARK    6  A    between atoms: C_14  and  O_15
REMARK    7  A    between atoms: C_16  and  C_17
REMARK    8  A    between atoms: C_20  and  O_21
REMARK                            x       y       z     vdW  Elec       q    Type
REMARK                         _______ _______ _______ _____ _____    ______ ____
ROOT
ATOM      1  C   UNL     1       2.208   8.138  18.918  0.00  0.00    +0.000 A 
ATOM      2  C   UNL     1       3.045   7.746  17.871  0.00  0.00    +0.000 A 
ATOM      3  C   UNL     1       3.555   6.451  17.835  0.00  0.00    +0.000 A 
ATOM      4  C   UNL     1       3.235   5.550  18.862  0.00  0.00    +0.000 A 
ATOM      5  C   UNL     1       2.371   5.905  19.919  0.00  0.00    +0.000 A 
ATOM      6  C   UNL     1       1.866   7.212  19.929  0.00  0.00    +0.000 A 
ATOM      7  C   UNL     1       3.843   4.201  18.767  0.00  0.00    +0.000 C 
ATOM      8  O   UNL     1       4.101   3.504  19.749  0.00  0.00    +0.000 OA
ATOM      9  C   UNL     1       4.253   3.784  17.380  0.00  0.00    +0.000 C 
ATOM     10  C   UNL     1       5.124   4.944  16.893  0.00  0.00    +0.000 C 
ATOM     11  O   UNL     1       4.344   6.149  16.745  0.00  0.00    +0.000 OA
ENDROOT
BRANCH  10  12
ATOM     12  C   UNL     1       5.798   4.586  15.575  0.00  0.00    +0.000 A 
ATOM     13  C   UNL     1       7.085   5.049  15.258  0.00  0.00    +0.000 A 
ATOM     14  C   UNL     1       7.581   4.926  13.957  0.00  0.00    +0.000 A 
ATOM     15  C   UNL     1       6.799   4.319  12.979  0.00  0.00    +0.000 A 
ATOM     16  C   UNL     1       5.556   3.787  13.291  0.00  0.00    +0.000 A 
ATOM     17  C   UNL     1       5.056   3.919  14.585  0.00  0.00    +0.000 A 
BRANCH  15  18
ATOM     18  O   UNL     1       7.210   4.252  11.681  0.00  0.00    +0.000 OA
ATOM     19  H   UNL     1       7.977   3.657  11.635  0.00  0.00    +0.000 HD
ENDBRANCH  15  18
ENDBRANCH  10  12
BRANCH   1  21
ATOM     20  C   UNL     1       0.703   9.825  18.170  0.00  0.00    +0.000 C 
ATOM     21  O   UNL     1       1.721   9.412  19.073  0.00  0.00    +0.000 OA
ENDBRANCH   1  21
BRANCH   5  22
ATOM     22  O   UNL     1       2.094   4.891  20.788  0.00  0.00    +0.000 OA
ATOM     23  C   UNL     1       0.980   4.035  20.639  0.00  0.00    +0.000 C 
ENDBRANCH   5  22
BRANCH   6  24
ATOM     24  O   UNL     1       0.983   7.646  20.885  0.00  0.00    +0.000 OA
ATOM     25  H   UNL     1       1.467   8.244  21.473  0.00  0.00    +0.000 HD
ENDBRANCH   6  24
BRANCH   9  26
ATOM     26  O   UNL     1       4.949   2.540  17.423  0.00  0.00    +0.000 OA
ATOM     27  H   UNL     1       4.787   2.093  16.569  0.00  0.00    +0.000 HD
ENDBRANCH   9  26
TORSDOF 6
ENDMDL
MODEL 4
REMARK VINA RESULT:      -6.7      1.707      3.690
REMARK  Name = 
REMARK  8 active torsions:
REMARK  status: ('A' for Active; 'I' for Inactive)
REMARK    1  A    between atoms: C_1  and  O_2
REMARK    2  A    between atoms: O_2  and  C_3
REMARK    3  A    between atoms: C_7  and  O_8
REMARK    4  A    between atoms: O_8  and  C_9
REMARK    5  A    between atoms: C_10  and  O_11
REMARK    6  A    between atoms: C_14  and  O_15
REMARK    7  A    between atoms: C_16  and  C_17
REMARK    8  A    between atoms: C_20  and  O_21
REMARK                            x       y       z     vdW  Elec       q    Type
REMARK                         _______ _______ _______ _____ _____    ______ ____
ROOT
ATOM      1  C   UNL     1       2.885   4.016  20.253  0.00  0.00    +0.000 A 
ATOM      2  C   UNL     1       2.146   5.148  20.605  0.00  0.00    +0.000 A 
ATOM      3  C   UNL     1       2.206   6.292  19.813  0.00  0.00    +0.000 A 
ATOM      4  C   UNL     1       3.021   6.303  18.670  0.00  0.00    +0.000 A 
ATOM      5  C   UNL     1       3.758   5.168  18.273  0.00  0.00    +0.000 A 
ATOM      6  C   UNL     1       3.676   4.028  19.083  0.00  0.00    +0.000 A 
ATOM      7  C   UNL     1       3.054   7.568  17.898  0.00  0.00    +0.000 C 
ATOM      8  O   UNL     1       4.026   7.932  17.236  0.00  0.00    +0.000 OA
ATOM      9  C   UNL     1       1.854   8.458  18.085  0.00  0.00    +0.000 C 
ATOM     10  C   UNL     1       1.743   8.607  19.604  0.00  0.00    +0.000 C 
ATOM     11  O   UNL     1       1.417   7.345  20.223  0.00  0.00    +0.000 OA
ENDROOT
BRANCH  10  12
ATOM     12  C   UNL     1       0.698   9.655  19.960  0.00  0.00    +0.000 A 
ATOM     13  C   UNL     1      -0.407   9.903  19.131  0.00  0.00    +0.000 A 
ATOM     14  C   UNL     1      -1.210  11.028  19.338  0.00  0.00    +0.000 A 
ATOM     15  C   UNL     1      -0.922  11.893  20.389  0.00  0.00    +0.000 A 
ATOM     16  C   UNL     1       0.120  11.625  21.266  0.00  0.00    +0.000 A 
ATOM     17  C   UNL     1       0.928  10.508  21.053  0.00  0.00    +0.000 A 
BRANCH  15  18
ATOM     18  O   UNL     1      -1.627  13.044  20.576  0.00  0.00    +0.000 OA
ATOM     19  H   UNL     1      -2.089  12.982  21.429  0.00  0.00    +0.000 HD
ENDBRANCH  15  18
ENDBRANCH  10  12
BRANCH   1  21
ATOM     20  C   UNL     1       1.768   2.516  21.729  0.00  0.00    +0.000 C 
ATOM     21  O   UNL     1       2.944   2.873  21.013  0.00  0.00    +0.000 OA
ENDBRANCH   1  21
BRANCH   5  22
ATOM     22  O   UNL     1       4.432   5.315  17.096  0.00  0.00    +0.000 OA
ATOM     23  C   UNL     1       5.827   5.125  16.981  0.00  0.00    +0.000 C 
ENDBRANCH   5  22
BRANCH   6  24
ATOM     24  O   UNL     1       4.316   2.857  18.763  0.00  0.00    +0.000 OA
ATOM     25  H   UNL     1       3.817   2.445  18.041  0.00  0.00    +0.000 HD
ENDBRANCH   6  24
BRANCH   9  26
ATOM     26  O   UNL     1       2.052   9.701  17.414  0.00  0.00    +0.000 OA
ATOM     27  H   UNL     1       1.432  10.342  17.813  0.00  0.00    +0.000 HD
ENDBRANCH   9  26
TORSDOF 6
ENDMDL
MODEL 5
REMARK VINA RESULT:      -6.7      1.871      3.697
REMARK  Name = 
REMARK  8 active torsions:
REMARK  status: ('A' for Active; 'I' for Inactive)
REMARK    1  A    between atoms: C_1  and  O_2
REMARK    2  A    between atoms: O_2  and  C_3
REMARK    3  A    between atoms: C_7  and  O_8
REMARK    4  A    between atoms: O_8  and  C_9
REMARK    5  A    between atoms: C_10  and  O_11
REMARK    6  A    between atoms: C_14  and  O_15
REMARK    7  A    between atoms: C_16  and  C_17
REMARK    8  A    between atoms: C_20  and  O_21
REMARK                            x       y       z     vdW  Elec       q    Type
REMARK                         _______ _______ _______ _____ _____    ______ ____
ROOT
ATOM      1  C   UNL     1       2.693   4.068  20.365  0.00  0.00    +0.000 A 
ATOM      2  C   UNL     1       2.040   5.256  20.699  0.00  0.00    +0.000 A 
ATOM      3  C   UNL     1       2.141   6.365  19.863  0.00  0.00    +0.000 A 
ATOM      4  C   UNL     1       2.914   6.285  18.694  0.00  0.00    +0.000 A 
ATOM      5  C   UNL     1       3.563   5.092  18.314  0.00  0.00    +0.000 A 
ATOM      6  C   UNL     1       3.440   3.989  19.168  0.00  0.00    +0.000 A 
ATOM      7  C   UNL     1       2.997   7.518  17.875  0.00  0.00    +0.000 C 
ATOM      8  O   UNL     1       3.965   7.795  17.167  0.00  0.00    +0.000 OA
ATOM      9  C   UNL     1       1.863   8.488  18.069  0.00  0.00    +0.000 C 
ATOM     10  C   UNL     1       1.816   8.697  19.585  0.00  0.00    +0.000 C 
ATOM     11  O   UNL     1       1.435   7.480  20.261  0.00  0.00    +0.000 OA
ENDROOT
BRANCH  10  12
ATOM     12  C   UNL     1       0.852   9.821  19.937  0.00  0.00    +0.000 A 
ATOM     13  C   UNL     1       0.922  10.490  21.170  0.00  0.00    +0.000 A 
ATOM     14  C   UNL     1      -0.115  11.335  21.577  0.00  0.00    +0.000 A 
ATOM     15  C   UNL     1      -1.210  11.528  20.741  0.00  0.00    +0.000 A 
ATOM     16  C   UNL     1      -1.262  10.936  19.487  0.00  0.00    +0.000 A 
ATOM     17  C   UNL     1      -0.234  10.085  19.085  0.00  0.00    +0.000 A 
BRANCH  15  18
ATOM     18  O   UNL     1      -2.279  12.277  21.134  0.00  0.00    +0.000 OA
ATOM     19  H   UNL     1      -2.722  12.616  20.338  0.00  0.00    +0.000 HD
ENDBRANCH  15  18
ENDBRANCH  10  12
BRANCH   1  21
ATOM     20  C   UNL     1       1.476   2.575  21.767  0.00  0.00    +0.000 C 
ATOM     21  O   UNL     1       2.708   2.951  21.164  0.00  0.00    +0.000 OA
ENDBRANCH   1  21
BRANCH   5  22
ATOM     22  O   UNL     1       4.202   5.155  17.111  0.00  0.00    +0.000 OA
ATOM     23  C   UNL     1       5.567   4.832  16.948  0.00  0.00    +0.000 C 
ENDBRANCH   5  22
BRANCH   6  24
ATOM     24  O   UNL     1       3.994   2.769  18.870  0.00  0.00    +0.000 OA
ATOM     25  H   UNL     1       4.914   2.927  18.609  0.00  0.00    +0.000 HD
ENDBRANCH   6  24
BRANCH   9  26
ATOM     26  O   UNL     1       2.113   9.692  17.346  0.00  0.00    +0.000 OA
ATOM     27  H   UNL     1       3.082   9.817  17.327  0.00  0.00    +0.000 HD
ENDBRANCH   9  26
TORSDOF 6
ENDMDL
MODEL 6
REMARK VINA RESULT:      -6.6      0.738      1.220
REMARK  Name = 
REMARK  8 active torsions:
REMARK  status: ('A' for Active; 'I' for Inactive)
REMARK    1  A    between atoms: C_1  and  O_2
REMARK    2  A    between atoms: O_2  and  C_3
REMARK    3  A    between atoms: C_7  and  O_8
REMARK    4  A    between atoms: O_8  and  C_9
REMARK    5  A    between atoms: C_10  and  O_11
REMARK    6  A    between atoms: C_14  and  O_15
REMARK    7  A    between atoms: C_16  and  C_17
REMARK    8  A    between atoms: C_20  and  O_21
REMARK                            x       y       z     vdW  Elec       q    Type
REMARK                         _______ _______ _______ _____ _____    ______ ____
ROOT
ATOM      1  C   UNL     1       5.143   6.007  17.003  0.00  0.00    +0.000 A 
ATOM      2  C   UNL     1       4.344   7.152  17.028  0.00  0.00    +0.000 A 
ATOM      3  C   UNL     1       3.390   7.314  18.029  0.00  0.00    +0.000 A 
ATOM      4  C   UNL     1       3.227   6.314  19.000  0.00  0.00    +0.000 A 
ATOM      5  C   UNL     1       4.036   5.158  19.019  0.00  0.00    +0.000 A 
ATOM      6  C   UNL     1       4.993   5.023  18.006  0.00  0.00    +0.000 A 
ATOM      7  C   UNL     1       2.169   6.546  20.012  0.00  0.00    +0.000 C 
ATOM      8  O   UNL     1       1.557   5.637  20.573  0.00  0.00    +0.000 OA
ATOM      9  C   UNL     1       1.792   7.989  20.218  0.00  0.00    +0.000 C 
ATOM     10  C   UNL     1       1.485   8.491  18.805  0.00  0.00    +0.000 C 
ATOM     11  O   UNL     1       2.674   8.491  17.989  0.00  0.00    +0.000 OA
ENDROOT
BRANCH  10  12
ATOM     12  C   UNL     1       0.879   9.887  18.857  0.00  0.00    +0.000 A 
ATOM     13  C   UNL     1      -0.506  10.091  18.758  0.00  0.00    +0.000 A 
ATOM     14  C   UNL     1      -1.020  11.376  18.554  0.00  0.00    +0.000 A 
ATOM     15  C   UNL     1      -0.149  12.458  18.471  0.00  0.00    +0.000 A 
ATOM     16  C   UNL     1       1.218  12.286  18.642  0.00  0.00    +0.000 A 
ATOM     17  C   UNL     1       1.731  11.005  18.836  0.00  0.00    +0.000 A 
BRANCH  15  18
ATOM     18  O   UNL     1      -0.600  13.713  18.190  0.00  0.00    +0.000 OA
ATOM     19  H   UNL     1      -1.312  13.639  17.532  0.00  0.00    +0.000 HD
ENDBRANCH  15  18
ENDBRANCH  10  12
BRANCH   1  21
ATOM     20  C   UNL     1       5.558   5.111  14.836  0.00  0.00    +0.000 C 
ATOM     21  O   UNL     1       6.056   5.731  16.015  0.00  0.00    +0.000 OA
ENDBRANCH   1  21
BRANCH   5  22
ATOM     22  O   UNL     1       3.808   4.327  20.076  0.00  0.00    +0.000 OA
ATOM     23  C   UNL     1       3.468   2.964  19.921  0.00  0.00    +0.000 C 
ENDBRANCH   5  22
BRANCH   6  24
ATOM     24  O   UNL     1       5.861   3.961  17.958  0.00  0.00    +0.000 OA
ATOM     25  H   UNL     1       5.647   3.450  17.163  0.00  0.00    +0.000 HD
ENDBRANCH   6  24
BRANCH   9  26
ATOM     26  O   UNL     1       0.676   8.087  21.102  0.00  0.00    +0.000 OA
ATOM     27  H   UNL     1      -0.122   7.883  20.577  0.00  0.00    +0.000 HD
ENDBRANCH   9  26
TORSDOF 6
ENDMDL
MODEL 7
REMARK VINA RESULT:      -6.5      2.442      7.724
REMARK  Name = 
REMARK  8 active torsions:
REMARK  status: ('A' for Active; 'I' for Inactive)
REMARK    1  A    between atoms: C_1  and  O_2
REMARK    2  A    between atoms: O_2  and  C_3
REMARK    3  A    between atoms: C_7  and  O_8
REMARK    4  A    between atoms: O_8  and  C_9
REMARK    5  A    between atoms: C_10  and  O_11
REMARK    6  A    between atoms: C_14  and  O_15
REMARK    7  A    between atoms: C_16  and  C_17
REMARK    8  A    between atoms: C_20  and  O_21
REMARK                            x       y       z     vdW  Elec       q    Type
REMARK                         _______ _______ _______ _____ _____    ______ ____
ROOT
ATOM      1  C   UNL     1       0.525  10.165  21.978  0.00  0.00    +0.000 A 
ATOM      2  C   UNL     1       0.899   8.825  21.847  0.00  0.00    +0.000 A 
ATOM      3  C   UNL     1       1.403   8.358  20.636  0.00  0.00    +0.000 A 
ATOM      4  C   UNL     1       1.517   9.235  19.547  0.00  0.00    +0.000 A 
ATOM      5  C   UNL     1       1.173  10.600  19.653  0.00  0.00    +0.000 A 
ATOM      6  C   UNL     1       0.676  11.046  20.884  0.00  0.00    +0.000 A 
ATOM      7  C   UNL     1       2.031   8.654  18.284  0.00  0.00    +0.000 C 
ATOM      8  O   UNL     1       1.728   9.080  17.170  0.00  0.00    +0.000 OA
ATOM      9  C   UNL     1       2.856   7.405  18.449  0.00  0.00    +0.000 C 
ATOM     10  C   UNL     1       1.967   6.488  19.293  0.00  0.00    +0.000 C 
ATOM     11  O   UNL     1       1.776   7.031  20.616  0.00  0.00    +0.000 OA
ENDROOT
BRANCH  10  12
ATOM     12  C   UNL     1       2.570   5.093  19.376  0.00  0.00    +0.000 A 
ATOM     13  C   UNL     1       3.940   4.897  19.608  0.00  0.00    +0.000 A 
ATOM     14  C   UNL     1       4.516   3.635  19.431  0.00  0.00    +0.000 A 
ATOM     15  C   UNL     1       3.716   2.565  19.044  0.00  0.00    +0.000 A 
ATOM     16  C   UNL     1       2.346   2.721  18.883  0.00  0.00    +0.000 A 
ATOM     17  C   UNL     1       1.773   3.982  19.049  0.00  0.00    +0.000 A 
BRANCH  15  18
ATOM     18  O   UNL     1       4.249   1.339  18.780  0.00  0.00    +0.000 OA
ATOM     19  H   UNL     1       4.384   1.266  17.820  0.00  0.00    +0.000 HD
ENDBRANCH  15  18
ENDBRANCH  10  12
BRANCH   1  21
ATOM     20  C   UNL     1      -1.467  10.661  23.185  0.00  0.00    +0.000 C 
ATOM     21  O   UNL     1      -0.048  10.693  23.108  0.00  0.00    +0.000 OA
ENDBRANCH   1  21
BRANCH   5  22
ATOM     22  O   UNL     1       1.422  11.334  18.532  0.00  0.00    +0.000 OA
ATOM     23  C   UNL     1       2.336  12.411  18.506  0.00  0.00    +0.000 C 
ENDBRANCH   5  22
BRANCH   6  24
ATOM     24  O   UNL     1       0.355  12.362  21.108  0.00  0.00    +0.000 OA
ATOM     25  H   UNL     1       0.482  12.532  22.054  0.00  0.00    +0.000 HD
ENDBRANCH   6  24
BRANCH   9  26
ATOM     26  O   UNL     1       3.179   6.854  17.174  0.00  0.00    +0.000 OA
ATOM     27  H   UNL     1       3.418   5.918  17.321  0.00  0.00    +0.000 HD
ENDBRANCH   9  26
TORSDOF 6
ENDMDL
MODEL 8
REMARK VINA RESULT:      -6.5      2.446      4.048
REMARK  Name = 
REMARK  8 active torsions:
REMARK  status: ('A' for Active; 'I' for Inactive)
REMARK    1  A    between atoms: C_1  and  O_2
REMARK    2  A    between atoms: O_2  and  C_3
REMARK    3  A    between atoms: C_7  and  O_8
REMARK    4  A    between atoms: O_8  and  C_9
REMARK    5  A    between atoms: C_10  and  O_11
REMARK    6  A    between atoms: C_14  and  O_15
REMARK    7  A    between atoms: C_16  and  C_17
REMARK    8  A    between atoms: C_20  and  O_21
REMARK                            x       y       z     vdW  Elec       q    Type
REMARK                         _______ _______ _______ _____ _____    ______ ____
ROOT
ATOM      1  C   UNL     1       2.775   3.894  20.325  0.00  0.00    +0.000 A 
ATOM      2  C   UNL     1       2.140   4.987  20.920  0.00  0.00    +0.000 A 
ATOM      3  C   UNL     1       2.081   6.207  20.252  0.00  0.00    +0.000 A 
ATOM      4  C   UNL     1       2.676   6.335  18.987  0.00  0.00    +0.000 A 
ATOM      5  C   UNL     1       3.301   5.244  18.347  0.00  0.00    +0.000 A 
ATOM      6  C   UNL     1       3.340   4.026  19.037  0.00  0.00    +0.000 A 
ATOM      7  C   UNL     1       2.598   7.674  18.356  0.00  0.00    +0.000 C 
ATOM      8  O   UNL     1       3.442   8.101  17.568  0.00  0.00    +0.000 OA
ATOM      9  C   UNL     1       1.474   8.545  18.850  0.00  0.00    +0.000 C 
ATOM     10  C   UNL     1       1.643   8.533  20.371  0.00  0.00    +0.000 C 
ATOM     11  O   UNL     1       1.405   7.215  20.906  0.00  0.00    +0.000 OA
ENDROOT
BRANCH  10  12
ATOM     12  C   UNL     1       0.705   9.543  21.018  0.00  0.00    +0.000 A 
ATOM     13  C   UNL     1       0.736  10.903  20.669  0.00  0.00    +0.000 A 
ATOM     14  C   UNL     1       0.056  11.848  21.443  0.00  0.00    +0.000 A 
ATOM     15  C   UNL     1      -0.673  11.430  22.552  0.00  0.00    +0.000 A 
ATOM     16  C   UNL     1      -0.778  10.083  22.869  0.00  0.00    +0.000 A 
ATOM     17  C   UNL     1      -0.091   9.141  22.104  0.00  0.00    +0.000 A 
BRANCH  15  18
ATOM     18  O   UNL     1      -1.282  12.325  23.380  0.00  0.00    +0.000 OA
ATOM     19  H   UNL     1      -1.010  12.129  24.292  0.00  0.00    +0.000 HD
ENDBRANCH  15  18
ENDBRANCH  10  12
BRANCH   1  21
ATOM     20  C   UNL     1       1.884   2.228  21.775  0.00  0.00    +0.000 C 
ATOM     21  O   UNL     1       2.944   2.678  20.940  0.00  0.00    +0.000 OA
ENDBRANCH   1  21
BRANCH   5  22
ATOM     22  O   UNL     1       3.753   5.512  17.089  0.00  0.00    +0.000 OA
ATOM     23  C   UNL     1       5.093   5.303  16.694  0.00  0.00    +0.000 C 
ENDBRANCH   5  22
BRANCH   6  24
ATOM     24  O   UNL     1       3.883   2.892  18.487  0.00  0.00    +0.000 OA
ATOM     25  H   UNL     1       4.086   2.287  19.216  0.00  0.00    +0.000 HD
ENDBRANCH   6  24
BRANCH   9  26
ATOM     26  O   UNL     1       1.575   9.851  18.285  0.00  0.00    +0.000 OA
ATOM     27  H   UNL     1       0.890   9.916  17.592  0.00  0.00    +0.000 HD
ENDBRANCH   9  26
TORSDOF 6
ENDMDL
MODEL 9
REMARK VINA RESULT:      -6.5      2.277      7.786
REMARK  Name = 
REMARK  8 active torsions:
REMARK  status: ('A' for Active; 'I' for Inactive)
REMARK    1  A    between atoms: C_1  and  O_2
REMARK    2  A    between atoms: O_2  and  C_3
REMARK    3  A    between atoms: C_7  and  O_8
REMARK    4  A    between atoms: O_8  and  C_9
REMARK    5  A    between atoms: C_10  and  O_11
REMARK    6  A    between atoms: C_14  and  O_15
REMARK    7  A    between atoms: C_16  and  C_17
REMARK    8  A    between atoms: C_20  and  O_21
REMARK                            x       y       z     vdW  Elec       q    Type
REMARK                         _______ _______ _______ _____ _____    ______ ____
ROOT
ATOM      1  C   UNL     1       0.569  10.009  22.029  0.00  0.00    +0.000 A 
ATOM      2  C   UNL     1       1.046   8.712  21.831  0.00  0.00    +0.000 A 
ATOM      3  C   UNL     1       1.542   8.335  20.586  0.00  0.00    +0.000 A 
ATOM      4  C   UNL     1       1.546   9.260  19.531  0.00  0.00    +0.000 A 
ATOM      5  C   UNL     1       1.097  10.586  19.705  0.00  0.00    +0.000 A 
ATOM      6  C   UNL     1       0.610  10.942  20.969  0.00  0.00    +0.000 A 
ATOM      7  C   UNL     1       2.061   8.772  18.229  0.00  0.00    +0.000 C 
ATOM      8  O   UNL     1       1.685   9.215  17.144  0.00  0.00    +0.000 OA
ATOM      9  C   UNL     1       2.990   7.591  18.316  0.00  0.00    +0.000 C 
ATOM     10  C   UNL     1       2.208   6.572  19.148  0.00  0.00    +0.000 C 
ATOM     11  O   UNL     1       2.021   7.045  20.498  0.00  0.00    +0.000 OA
ENDROOT
BRANCH  10  12
ATOM     12  C   UNL     1       2.925   5.228  19.154  0.00  0.00    +0.000 A 
ATOM     13  C   UNL     1       2.229   4.025  19.353  0.00  0.00    +0.000 A 
ATOM     14  C   UNL     1       2.924   2.839  19.606  0.00  0.00    +0.000 A 
ATOM     15  C   UNL     1       4.315   2.852  19.638  0.00  0.00    +0.000 A 
ATOM     16  C   UNL     1       5.022   4.015  19.369  0.00  0.00    +0.000 A 
ATOM     17  C   UNL     1       4.329   5.201  19.126  0.00  0.00    +0.000 A 
BRANCH  15  18
ATOM     18  O   UNL     1       5.028   1.737  19.963  0.00  0.00    +0.000 OA
ATOM     19  H   UNL     1       4.721   1.422  20.830  0.00  0.00    +0.000 HD
ENDBRANCH  15  18
ENDBRANCH  10  12
BRANCH   1  21
ATOM     20  C   UNL     1      -1.420  10.576  23.210  0.00  0.00    +0.000 C 
ATOM     21  O   UNL     1      -0.004  10.445  23.198  0.00  0.00    +0.000 OA
ENDBRANCH   1  21
BRANCH   5  22
ATOM     22  O   UNL     1       1.246  11.382  18.608  0.00  0.00    +0.000 OA
ATOM     23  C   UNL     1       2.197  12.424  18.538  0.00  0.00    +0.000 C 
ENDBRANCH   5  22
BRANCH   6  24
ATOM     24  O   UNL     1       0.191  12.217  21.257  0.00  0.00    +0.000 OA
ATOM     25  H   UNL     1       0.795  12.827  20.807  0.00  0.00    +0.000 HD
ENDBRANCH   6  24
BRANCH   9  26
ATOM     26  O   UNL     1       3.311   7.118  17.009  0.00  0.00    +0.000 OA
ATOM     27  H   UNL     1       2.760   7.623  16.380  0.00  0.00    +0.000 HD
ENDBRANCH   9  26
TORSDOF 6
ENDMDL
