MODEL 1
REMARK VINA RESULT:      -7.4      0.000      0.000
REMARK  Name = 
REMARK  9 active torsions:
REMARK  status: ('A' for Active; 'I' for Inactive)
REMARK    1  A    between atoms: C_1  and  O_2
REMARK    2  A    between atoms: O_2  and  C_3
REMARK    3  A    between atoms: C_6  and  O_7
REMARK    4  A    between atoms: O_7  and  C_8
REMARK    5  A    between atoms: C_8  and  C_9
REMARK    6  A    between atoms: C_9  and  O_10
REMARK    7  A    between atoms: O_10  and  C_11
REMARK    8  A    between atoms: C_14  and  C_15
REMARK    9  A    between atoms: C_17  and  N_18
REMARK                            x       y       z     vdW  Elec       q    Type
REMARK                         _______ _______ _______ _____ _____    ______ ____
ROOT
ATOM      1  C   UNL     1       7.785   7.595  17.665  0.00  0.00    +0.000 C 
ENDROOT
BRANCH   1   2
ATOM      2  C   UNL     1       8.028   9.086  17.897  0.00  0.00    +0.000 C 
BRANCH   2   3
ATOM      3  O   UNL     1       8.887   9.300  19.018  0.00  0.00    +0.000 OA
BRANCH   3   7
ATOM      4  C   UNL     1      10.465  13.156  19.187  0.00  0.00    +0.000 A 
ATOM      5  C   UNL     1      10.335  12.465  17.982  0.00  0.00    +0.000 A 
ATOM      6  C   UNL     1       9.791  11.177  17.962  0.00  0.00    +0.000 A 
ATOM      7  C   UNL     1       9.416  10.553  19.151  0.00  0.00    +0.000 A 
ATOM      8  C   UNL     1       9.565  11.238  20.356  0.00  0.00    +0.000 A 
ATOM      9  C   UNL     1      10.085  12.536  20.375  0.00  0.00    +0.000 A 
BRANCH   4  11
ATOM     10  C   UNL     1      12.333  14.547  19.572  0.00  0.00    +0.000 C 
ATOM     11  O   UNL     1      10.999  14.412  19.092  0.00  0.00    +0.000 OA
ENDBRANCH   4  11
ENDBRANCH   3   7
ENDBRANCH   2   3
ENDBRANCH   1   2
BRANCH   1  12
ATOM     12  O   UNL     1       6.765   7.434  16.675  0.00  0.00    +0.000 OA
BRANCH  12  13
ATOM     13  C   UNL     1       5.766   6.544  16.961  0.00  0.00    +0.000 A 
ATOM     14  C   UNL     1       4.543   6.914  17.518  0.00  0.00    +0.000 A 
ATOM     15  C   UNL     1       3.538   5.965  17.713  0.00  0.00    +0.000 A 
ATOM     16  C   UNL     1       3.771   4.649  17.338  0.00  0.00    +0.000 A 
ATOM     17  C   UNL     1       2.705   3.608  17.509  0.00  0.00    +0.000 C 
ATOM     18  N   UNL     1       4.945   4.246  16.804  0.00  0.00    +0.000 NA
ATOM     19  C   UNL     1       5.923   5.192  16.623  0.00  0.00    +0.000 A 
BRANCH  19  20
ATOM     20  N   UNL     1       7.230   4.800  16.067  0.00  0.00    +0.000 N 
ATOM     21  O   UNL     1       8.025   4.211  16.824  0.00  0.00    +0.000 OA
ATOM     22  O   UNL     1       7.438   5.057  14.874  0.00  0.00    +0.000 OA
ENDBRANCH  19  20
ENDBRANCH  12  13
ENDBRANCH   1  12
TORSDOF 7
ENDMDL
MODEL 2
REMARK VINA RESULT:      -7.3      0.318      1.057
REMARK  Name = 
REMARK  9 active torsions:
REMARK  status: ('A' for Active; 'I' for Inactive)
REMARK    1  A    between atoms: C_1  and  O_2
REMARK    2  A    between atoms: O_2  and  C_3
REMARK    3  A    between atoms: C_6  and  O_7
REMARK    4  A    between atoms: O_7  and  C_8
REMARK    5  A    between atoms: C_8  and  C_9
REMARK    6  A    between atoms: C_9  and  O_10
REMARK    7  A    between atoms: O_10  and  C_11
REMARK    8  A    between atoms: C_14  and  C_15
REMARK    9  A    between atoms: C_17  and  N_18
REMARK                            x       y       z     vdW  Elec       q    Type
REMARK                         _______ _______ _______ _____ _____    ______ ____
ROOT
ATOM      1  C   UNL     1       7.661   7.467  17.808  0.00  0.00    +0.000 C 
ENDROOT
BRANCH   1   2
ATOM      2  C   UNL     1       8.114   8.926  17.819  0.00  0.00    +0.000 C 
BRANCH   2   3
ATOM      3  O   UNL     1       8.736   9.263  19.060  0.00  0.00    +0.000 OA
BRANCH   3   7
ATOM      4  C   UNL     1      10.467  13.025  19.558  0.00  0.00    +0.000 A 
ATOM      5  C   UNL     1      10.219  12.178  20.638  0.00  0.00    +0.000 A 
ATOM      6  C   UNL     1       9.647  10.919  20.433  0.00  0.00    +0.000 A 
ATOM      7  C   UNL     1       9.276  10.515  19.151  0.00  0.00    +0.000 A 
ATOM      8  C   UNL     1       9.506  11.371  18.074  0.00  0.00    +0.000 A 
ATOM      9  C   UNL     1      10.103  12.620  18.276  0.00  0.00    +0.000 A 
BRANCH   4  11
ATOM     10  C   UNL     1      12.322  14.461  19.300  0.00  0.00    +0.000 C 
ATOM     11  O   UNL     1      11.038  14.228  19.870  0.00  0.00    +0.000 OA
ENDBRANCH   4  11
ENDBRANCH   3   7
ENDBRANCH   2   3
ENDBRANCH   1   2
BRANCH   1  12
ATOM     12  O   UNL     1       6.698   7.282  16.766  0.00  0.00    +0.000 OA
BRANCH  12  13
ATOM     13  C   UNL     1       5.676   6.411  17.022  0.00  0.00    +0.000 A 
ATOM     14  C   UNL     1       4.437   6.805  17.529  0.00  0.00    +0.000 A 
ATOM     15  C   UNL     1       3.412   5.874  17.695  0.00  0.00    +0.000 A 
ATOM     16  C   UNL     1       3.638   4.550  17.342  0.00  0.00    +0.000 A 
ATOM     17  C   UNL     1       2.550   3.527  17.482  0.00  0.00    +0.000 C 
ATOM     18  N   UNL     1       4.825   4.124  16.857  0.00  0.00    +0.000 NA
ATOM     19  C   UNL     1       5.824   5.052  16.705  0.00  0.00    +0.000 A 
BRANCH  19  20
ATOM     20  N   UNL     1       7.145   4.635  16.203  0.00  0.00    +0.000 N 
ATOM     21  O   UNL     1       8.003   4.306  17.043  0.00  0.00    +0.000 OA
ATOM     22  O   UNL     1       7.302   4.612  14.975  0.00  0.00    +0.000 OA
ENDBRANCH  19  20
ENDBRANCH  12  13
ENDBRANCH   1  12
TORSDOF 7
ENDMDL
MODEL 3
REMARK VINA RESULT:      -7.2      5.576      6.897
REMARK  Name = 
REMARK  9 active torsions:
REMARK  status: ('A' for Active; 'I' for Inactive)
REMARK    1  A    between atoms: C_1  and  O_2
REMARK    2  A    between atoms: O_2  and  C_3
REMARK    3  A    between atoms: C_6  and  O_7
REMARK    4  A    between atoms: O_7  and  C_8
REMARK    5  A    between atoms: C_8  and  C_9
REMARK    6  A    between atoms: C_9  and  O_10
REMARK    7  A    between atoms: O_10  and  C_11
REMARK    8  A    between atoms: C_14  and  C_15
REMARK    9  A    between atoms: C_17  and  N_18
REMARK                            x       y       z     vdW  Elec       q    Type
REMARK                         _______ _______ _______ _____ _____    ______ ____
ROOT
ATOM      1  C   UNL     1       3.734   3.516  17.517  0.00  0.00    +0.000 C 
ENDROOT
BRANCH   1   2
ATOM      2  C   UNL     1       2.650   4.248  18.306  0.00  0.00    +0.000 C 
BRANCH   2   3
ATOM      3  O   UNL     1       3.222   5.203  19.202  0.00  0.00    +0.000 OA
BRANCH   3   7
ATOM      4  C   UNL     1       1.620   9.038  18.856  0.00  0.00    +0.000 A 
ATOM      5  C   UNL     1       2.282   8.417  17.797  0.00  0.00    +0.000 A 
ATOM      6  C   UNL     1       2.797   7.127  17.945  0.00  0.00    +0.000 A 
ATOM      7  C   UNL     1       2.695   6.464  19.168  0.00  0.00    +0.000 A 
ATOM      8  C   UNL     1       2.050   7.094  20.232  0.00  0.00    +0.000 A 
ATOM      9  C   UNL     1       1.511   8.375  20.076  0.00  0.00    +0.000 A 
BRANCH   4  11
ATOM     10  C   UNL     1      -0.164  10.567  19.088  0.00  0.00    +0.000 C 
ATOM     11  O   UNL     1       1.146  10.296  18.601  0.00  0.00    +0.000 OA
ENDBRANCH   4  11
ENDBRANCH   3   7
ENDBRANCH   2   3
ENDBRANCH   1   2
BRANCH   1  12
ATOM     12  O   UNL     1       4.944   4.277  17.563  0.00  0.00    +0.000 OA
BRANCH  12  13
ATOM     13  C   UNL     1       5.627   4.416  16.385  0.00  0.00    +0.000 A 
ATOM     14  C   UNL     1       5.095   4.072  15.143  0.00  0.00    +0.000 A 
ATOM     15  C   UNL     1       5.818   4.312  13.973  0.00  0.00    +0.000 A 
ATOM     16  C   UNL     1       7.070   4.905  14.063  0.00  0.00    +0.000 A 
ATOM     17  C   UNL     1       7.864   5.201  12.825  0.00  0.00    +0.000 C 
ATOM     18  N   UNL     1       7.626   5.244  15.247  0.00  0.00    +0.000 NA
ATOM     19  C   UNL     1       6.903   4.997  16.387  0.00  0.00    +0.000 A 
BRANCH  19  20
ATOM     20  N   UNL     1       7.474   5.327  17.705  0.00  0.00    +0.000 N 
ATOM     21  O   UNL     1       8.079   4.423  18.313  0.00  0.00    +0.000 OA
ATOM     22  O   UNL     1       7.339   6.491  18.105  0.00  0.00    +0.000 OA
ENDBRANCH  19  20
ENDBRANCH  12  13
ENDBRANCH   1  12
TORSDOF 7
ENDMDL
MODEL 4
REMARK VINA RESULT:      -7.2      5.576      6.916
REMARK  Name = 
REMARK  9 active torsions:
REMARK  status: ('A' for Active; 'I' for Inactive)
REMARK    1  A    between atoms: C_1  and  O_2
REMARK    2  A    between atoms: O_2  and  C_3
REMARK    3  A    between atoms: C_6  and  O_7
REMARK    4  A    between atoms: O_7  and  C_8
REMARK    5  A    between atoms: C_8  and  C_9
REMARK    6  A    between atoms: C_9  and  O_10
REMARK    7  A    between atoms: O_10  and  C_11
REMARK    8  A    between atoms: C_14  and  C_15
REMARK    9  A    between atoms: C_17  and  N_18
REMARK                            x       y       z     vdW  Elec       q    Type
REMARK                         _______ _______ _______ _____ _____    ______ ____
ROOT
ATOM      1  C   UNL     1       3.700   4.618  17.597  0.00  0.00    +0.000 C 
ENDROOT
BRANCH   1   2
ATOM      2  C   UNL     1       3.739   6.127  17.833  0.00  0.00    +0.000 C 
BRANCH   2   3
ATOM      3  O   UNL     1       3.086   6.474  19.056  0.00  0.00    +0.000 OA
BRANCH   3   7
ATOM      4  C   UNL     1       0.711   9.899  19.222  0.00  0.00    +0.000 A 
ATOM      5  C   UNL     1       0.949   9.110  20.348  0.00  0.00    +0.000 A 
ATOM      6  C   UNL     1       1.759   7.975  20.258  0.00  0.00    +0.000 A 
ATOM      7  C   UNL     1       2.301   7.593  19.031  0.00  0.00    +0.000 A 
ATOM      8  C   UNL     1       2.046   8.371  17.902  0.00  0.00    +0.000 A 
ATOM      9  C   UNL     1       1.257   9.522  17.997  0.00  0.00    +0.000 A 
BRANCH   4  11
ATOM     10  C   UNL     1       0.601  12.213  19.674  0.00  0.00    +0.000 C 
ATOM     11  O   UNL     1      -0.087  10.991  19.424  0.00  0.00    +0.000 OA
ENDBRANCH   4  11
ENDBRANCH   3   7
ENDBRANCH   2   3
ENDBRANCH   1   2
BRANCH   1  12
ATOM     12  O   UNL     1       5.039   4.119  17.532  0.00  0.00    +0.000 OA
BRANCH  12  13
ATOM     13  C   UNL     1       5.703   4.294  16.349  0.00  0.00    +0.000 A 
ATOM     14  C   UNL     1       5.188   3.904  15.113  0.00  0.00    +0.000 A 
ATOM     15  C   UNL     1       5.884   4.183  13.936  0.00  0.00    +0.000 A 
ATOM     16  C   UNL     1       7.093   4.861  14.011  0.00  0.00    +0.000 A 
ATOM     17  C   UNL     1       7.856   5.200  12.765  0.00  0.00    +0.000 C 
ATOM     18  N   UNL     1       7.633   5.247  15.188  0.00  0.00    +0.000 NA
ATOM     19  C   UNL     1       6.937   4.961  16.336  0.00  0.00    +0.000 A 
BRANCH  19  20
ATOM     20  N   UNL     1       7.493   5.340  17.647  0.00  0.00    +0.000 N 
ATOM     21  O   UNL     1       7.346   6.522  18.015  0.00  0.00    +0.000 OA
ATOM     22  O   UNL     1       8.043   4.450  18.308  0.00  0.00    +0.000 OA
ENDBRANCH  19  20
ENDBRANCH  12  13
ENDBRANCH   1  12
TORSDOF 7
ENDMDL
MODEL 5
REMARK VINA RESULT:      -6.9      5.242      6.959
REMARK  Name = 
REMARK  9 active torsions:
REMARK  status: ('A' for Active; 'I' for Inactive)
REMARK    1  A    between atoms: C_1  and  O_2
REMARK    2  A    between atoms: O_2  and  C_3
REMARK    3  A    between atoms: C_6  and  O_7
REMARK    4  A    between atoms: O_7  and  C_8
REMARK    5  A    between atoms: C_8  and  C_9
REMARK    6  A    between atoms: C_9  and  O_10
REMARK    7  A    between atoms: O_10  and  C_11
REMARK    8  A    between atoms: C_14  and  C_15
REMARK    9  A    between atoms: C_17  and  N_18
REMARK                            x       y       z     vdW  Elec       q    Type
REMARK                         _______ _______ _______ _____ _____    ______ ____
ROOT
ATOM      1  C   UNL     1       3.804   4.712  19.231  0.00  0.00    +0.000 C 
ENDROOT
BRANCH   1   2
ATOM      2  C   UNL     1       2.918   5.875  19.673  0.00  0.00    +0.000 C 
BRANCH   2   3
ATOM      3  O   UNL     1       2.906   6.916  18.694  0.00  0.00    +0.000 OA
BRANCH   3   7
ATOM      4  C   UNL     1       0.494  10.155  19.732  0.00  0.00    +0.000 A 
ATOM      5  C   UNL     1       0.787   9.134  20.636  0.00  0.00    +0.000 A 
ATOM      6  C   UNL     1       1.608   8.069  20.258  0.00  0.00    +0.000 A 
ATOM      7  C   UNL     1       2.106   7.992  18.957  0.00  0.00    +0.000 A 
ATOM      8  C   UNL     1       1.796   9.003  18.048  0.00  0.00    +0.000 A 
ATOM      9  C   UNL     1       0.995  10.083  18.435  0.00  0.00    +0.000 A 
BRANCH   4  11
ATOM     10  C   UNL     1       0.023  11.641  21.506  0.00  0.00    +0.000 C 
ATOM     11  O   UNL     1      -0.311  11.154  20.210  0.00  0.00    +0.000 OA
ENDBRANCH   4  11
ENDBRANCH   3   7
ENDBRANCH   2   3
ENDBRANCH   1   2
BRANCH   1  12
ATOM     12  O   UNL     1       5.119   5.202  18.956  0.00  0.00    +0.000 OA
BRANCH  12  13
ATOM     13  C   UNL     1       5.595   5.006  17.688  0.00  0.00    +0.000 A 
ATOM     14  C   UNL     1       4.816   4.514  16.642  0.00  0.00    +0.000 A 
ATOM     15  C   UNL     1       5.344   4.410  15.354  0.00  0.00    +0.000 A 
ATOM     16  C   UNL     1       6.654   4.810  15.127  0.00  0.00    +0.000 A 
ATOM     17  C   UNL     1       7.246   4.737  13.751  0.00  0.00    +0.000 C 
ATOM     18  N   UNL     1       7.446   5.283  16.115  0.00  0.00    +0.000 NA
ATOM     19  C   UNL     1       6.912   5.374  17.376  0.00  0.00    +0.000 A 
BRANCH  19  20
ATOM     20  N   UNL     1       7.742   5.860  18.492  0.00  0.00    +0.000 N 
ATOM     21  O   UNL     1       7.963   7.085  18.554  0.00  0.00    +0.000 OA
ATOM     22  O   UNL     1       8.138   5.021  19.311  0.00  0.00    +0.000 OA
ENDBRANCH  19  20
ENDBRANCH  12  13
ENDBRANCH   1  12
TORSDOF 7
ENDMDL
MODEL 6
REMARK VINA RESULT:      -6.9      5.277      6.726
REMARK  Name = 
REMARK  9 active torsions:
REMARK  status: ('A' for Active; 'I' for Inactive)
REMARK    1  A    between atoms: C_1  and  O_2
REMARK    2  A    between atoms: O_2  and  C_3
REMARK    3  A    between atoms: C_6  and  O_7
REMARK    4  A    between atoms: O_7  and  C_8
REMARK    5  A    between atoms: C_8  and  C_9
REMARK    6  A    between atoms: C_9  and  O_10
REMARK    7  A    between atoms: O_10  and  C_11
REMARK    8  A    between atoms: C_14  and  C_15
REMARK    9  A    between atoms: C_17  and  N_18
REMARK                            x       y       z     vdW  Elec       q    Type
REMARK                         _______ _______ _______ _____ _____    ______ ____
ROOT
ATOM      1  C   UNL     1       4.282   4.009  19.491  0.00  0.00    +0.000 C 
ENDROOT
BRANCH   1   2
ATOM      2  C   UNL     1       3.260   5.037  19.974  0.00  0.00    +0.000 C 
BRANCH   2   3
ATOM      3  O   UNL     1       2.631   5.696  18.874  0.00  0.00    +0.000 OA
BRANCH   3   7
ATOM      4  C   UNL     1       1.366   9.649  19.286  0.00  0.00    +0.000 A 
ATOM      5  C   UNL     1       1.912   9.169  18.095  0.00  0.00    +0.000 A 
ATOM      6  C   UNL     1       2.316   7.835  17.989  0.00  0.00    +0.000 A 
ATOM      7  C   UNL     1       2.219   6.982  19.087  0.00  0.00    +0.000 A 
ATOM      8  C   UNL     1       1.691   7.468  20.283  0.00  0.00    +0.000 A 
ATOM      9  C   UNL     1       1.263   8.796  20.382  0.00  0.00    +0.000 A 
BRANCH   4  11
ATOM     10  C   UNL     1       0.849  11.568  20.559  0.00  0.00    +0.000 C 
ATOM     11  O   UNL     1       0.996  10.966  19.277  0.00  0.00    +0.000 OA
ENDBRANCH   4  11
ENDBRANCH   3   7
ENDBRANCH   2   3
ENDBRANCH   1   2
BRANCH   1  12
ATOM     12  O   UNL     1       5.501   4.679  19.159  0.00  0.00    +0.000 OA
BRANCH  12  13
ATOM     13  C   UNL     1       5.896   4.623  17.850  0.00  0.00    +0.000 A 
ATOM     14  C   UNL     1       5.140   4.022  16.844  0.00  0.00    +0.000 A 
ATOM     15  C   UNL     1       5.567   4.068  15.516  0.00  0.00    +0.000 A 
ATOM     16  C   UNL     1       6.750   4.725  15.209  0.00  0.00    +0.000 A 
ATOM     17  C   UNL     1       7.226   4.816  13.790  0.00  0.00    +0.000 C 
ATOM     18  N   UNL     1       7.518   5.311  16.154  0.00  0.00    +0.000 NA
ATOM     19  C   UNL     1       7.086   5.253  17.456  0.00  0.00    +0.000 A 
BRANCH  19  20
ATOM     20  N   UNL     1       7.897   5.856  18.527  0.00  0.00    +0.000 N 
ATOM     21  O   UNL     1       8.025   7.095  18.526  0.00  0.00    +0.000 OA
ATOM     22  O   UNL     1       8.374   5.090  19.375  0.00  0.00    +0.000 OA
ENDBRANCH  19  20
ENDBRANCH  12  13
ENDBRANCH   1  12
TORSDOF 7
ENDMDL
MODEL 7
REMARK VINA RESULT:      -6.9      5.645      7.346
REMARK  Name = 
REMARK  9 active torsions:
REMARK  status: ('A' for Active; 'I' for Inactive)
REMARK    1  A    between atoms: C_1  and  O_2
REMARK    2  A    between atoms: O_2  and  C_3
REMARK    3  A    between atoms: C_6  and  O_7
REMARK    4  A    between atoms: O_7  and  C_8
REMARK    5  A    between atoms: C_8  and  C_9
REMARK    6  A    between atoms: C_9  and  O_10
REMARK    7  A    between atoms: O_10  and  C_11
REMARK    8  A    between atoms: C_14  and  C_15
REMARK    9  A    between atoms: C_17  and  N_18
REMARK                            x       y       z     vdW  Elec       q    Type
REMARK                         _______ _______ _______ _____ _____    ______ ____
ROOT
ATOM      1  C   UNL     1       4.234   2.804  17.423  0.00  0.00    +0.000 C 
ENDROOT
BRANCH   1   2
ATOM      2  C   UNL     1       3.473   2.762  18.747  0.00  0.00    +0.000 C 
BRANCH   2   3
ATOM      3  O   UNL     1       2.200   3.399  18.630  0.00  0.00    +0.000 OA
BRANCH   3   7
ATOM      4  C   UNL     1       1.930   7.410  19.741  0.00  0.00    +0.000 A 
ATOM      5  C   UNL     1       2.211   7.025  18.430  0.00  0.00    +0.000 A 
ATOM      6  C   UNL     1       2.283   5.671  18.091  0.00  0.00    +0.000 A 
ATOM      7  C   UNL     1       2.121   4.691  19.070  0.00  0.00    +0.000 A 
ATOM      8  C   UNL     1       1.860   5.078  20.384  0.00  0.00    +0.000 A 
ATOM      9  C   UNL     1       1.762   6.432  20.718  0.00  0.00    +0.000 A 
BRANCH   4  11
ATOM     10  C   UNL     1       1.295   9.526  18.908  0.00  0.00    +0.000 C 
ATOM     11  O   UNL     1       1.873   8.759  19.960  0.00  0.00    +0.000 OA
ENDBRANCH   4  11
ENDBRANCH   3   7
ENDBRANCH   2   3
ENDBRANCH   1   2
BRANCH   1  12
ATOM     12  O   UNL     1       5.077   3.960  17.402  0.00  0.00    +0.000 OA
BRANCH  12  13
ATOM     13  C   UNL     1       5.748   4.209  16.236  0.00  0.00    +0.000 A 
ATOM     14  C   UNL     1       5.276   3.828  14.981  0.00  0.00    +0.000 A 
ATOM     15  C   UNL     1       5.974   4.182  13.825  0.00  0.00    +0.000 A 
ATOM     16  C   UNL     1       7.141   4.925  13.942  0.00  0.00    +0.000 A 
ATOM     17  C   UNL     1       7.902   5.345  12.720  0.00  0.00    +0.000 C 
ATOM     18  N   UNL     1       7.638   5.306  15.139  0.00  0.00    +0.000 NA
ATOM     19  C   UNL     1       6.942   4.945  16.266  0.00  0.00    +0.000 A 
BRANCH  19  20
ATOM     20  N   UNL     1       7.454   5.316  17.596  0.00  0.00    +0.000 N 
ATOM     21  O   UNL     1       8.047   4.437  18.250  0.00  0.00    +0.000 OA
ATOM     22  O   UNL     1       7.285   6.486  17.962  0.00  0.00    +0.000 OA
ENDBRANCH  19  20
ENDBRANCH  12  13
ENDBRANCH   1  12
TORSDOF 7
ENDMDL
MODEL 8
REMARK VINA RESULT:      -6.8      4.127      7.091
REMARK  Name = 
REMARK  9 active torsions:
REMARK  status: ('A' for Active; 'I' for Inactive)
REMARK    1  A    between atoms: C_1  and  O_2
REMARK    2  A    between atoms: O_2  and  C_3
REMARK    3  A    between atoms: C_6  and  O_7
REMARK    4  A    between atoms: O_7  and  C_8
REMARK    5  A    between atoms: C_8  and  C_9
REMARK    6  A    between atoms: C_9  and  O_10
REMARK    7  A    between atoms: O_10  and  C_11
REMARK    8  A    between atoms: C_14  and  C_15
REMARK    9  A    between atoms: C_17  and  N_18
REMARK                            x       y       z     vdW  Elec       q    Type
REMARK                         _______ _______ _______ _____ _____    ______ ____
ROOT
ATOM      1  C   UNL     1       2.902   1.546  18.375  0.00  0.00    +0.000 C 
ENDROOT
BRANCH   1   2
ATOM      2  C   UNL     1       4.118   2.464  18.490  0.00  0.00    +0.000 C 
BRANCH   2   3
ATOM      3  O   UNL     1       4.526   2.942  17.207  0.00  0.00    +0.000 OA
BRANCH   3   7
ATOM      4  C   UNL     1       6.973   6.308  16.931  0.00  0.00    +0.000 A 
ATOM      5  C   UNL     1       6.931   5.342  15.925  0.00  0.00    +0.000 A 
ATOM      6  C   UNL     1       6.090   4.232  16.046  0.00  0.00    +0.000 A 
ATOM      7  C   UNL     1       5.320   4.055  17.194  0.00  0.00    +0.000 A 
ATOM      8  C   UNL     1       5.378   5.011  18.208  0.00  0.00    +0.000 A 
ATOM      9  C   UNL     1       6.199   6.136  18.076  0.00  0.00    +0.000 A 
BRANCH   4  11
ATOM     10  C   UNL     1       7.940   8.288  17.778  0.00  0.00    +0.000 C 
ATOM     11  O   UNL     1       7.821   7.357  16.706  0.00  0.00    +0.000 OA
ENDBRANCH   4  11
ENDBRANCH   3   7
ENDBRANCH   2   3
ENDBRANCH   1   2
BRANCH   1  12
ATOM     12  O   UNL     1       1.783   2.169  19.013  0.00  0.00    +0.000 OA
BRANCH  12  13
ATOM     13  C   UNL     1       1.886   3.510  19.261  0.00  0.00    +0.000 A 
ATOM     14  C   UNL     1       1.818   4.484  18.266  0.00  0.00    +0.000 A 
ATOM     15  C   UNL     1       1.853   5.839  18.598  0.00  0.00    +0.000 A 
ATOM     16  C   UNL     1       1.950   6.205  19.934  0.00  0.00    +0.000 A 
ATOM     17  C   UNL     1       1.964   7.651  20.329  0.00  0.00    +0.000 C 
ATOM     18  N   UNL     1       2.029   5.294  20.928  0.00  0.00    +0.000 NA
ATOM     19  C   UNL     1       1.997   3.965  20.584  0.00  0.00    +0.000 A 
BRANCH  19  20
ATOM     20  N   UNL     1       2.104   2.932  21.628  0.00  0.00    +0.000 N 
ATOM     21  O   UNL     1       3.235   2.466  21.864  0.00  0.00    +0.000 OA
ATOM     22  O   UNL     1       1.064   2.618  22.222  0.00  0.00    +0.000 OA
ENDBRANCH  19  20
ENDBRANCH  12  13
ENDBRANCH   1  12
TORSDOF 7
ENDMDL
MODEL 9
REMARK VINA RESULT:      -6.8      5.017      7.068
REMARK  Name = 
REMARK  9 active torsions:
REMARK  status: ('A' for Active; 'I' for Inactive)
REMARK    1  A    between atoms: C_1  and  O_2
REMARK    2  A    between atoms: O_2  and  C_3
REMARK    3  A    between atoms: C_6  and  O_7
REMARK    4  A    between atoms: O_7  and  C_8
REMARK    5  A    between atoms: C_8  and  C_9
REMARK    6  A    between atoms: C_9  and  O_10
REMARK    7  A    between atoms: O_10  and  C_11
REMARK    8  A    between atoms: C_14  and  C_15
REMARK    9  A    between atoms: C_17  and  N_18
REMARK                            x       y       z     vdW  Elec       q    Type
REMARK                         _______ _______ _______ _____ _____    ______ ____
ROOT
ATOM      1  C   UNL     1       4.160   5.031  19.108  0.00  0.00    +0.000 C 
ENDROOT
BRANCH   1   2
ATOM      2  C   UNL     1       3.090   5.875  19.798  0.00  0.00    +0.000 C 
BRANCH   2   3
ATOM      3  O   UNL     1       2.749   7.018  19.011  0.00  0.00    +0.000 OA
BRANCH   3   7
ATOM      4  C   UNL     1       0.109   9.861  20.542  0.00  0.00    +0.000 A 
ATOM      5  C   UNL     1       0.620   9.950  19.248  0.00  0.00    +0.000 A 
ATOM      6  C   UNL     1       1.495   8.974  18.763  0.00  0.00    +0.000 A 
ATOM      7  C   UNL     1       1.901   7.924  19.586  0.00  0.00    +0.000 A 
ATOM      8  C   UNL     1       1.405   7.846  20.887  0.00  0.00    +0.000 A 
ATOM      9  C   UNL     1       0.509   8.809  21.363  0.00  0.00    +0.000 A 
BRANCH   4  11
ATOM     10  C   UNL     1      -0.590  12.090  20.204  0.00  0.00    +0.000 C 
ATOM     11  O   UNL     1      -0.745  10.863  20.911  0.00  0.00    +0.000 OA
ENDBRANCH   4  11
ENDBRANCH   3   7
ENDBRANCH   2   3
ENDBRANCH   1   2
BRANCH   1  12
ATOM     12  O   UNL     1       5.091   5.897  18.452  0.00  0.00    +0.000 OA
BRANCH  12  13
ATOM     13  C   UNL     1       5.575   5.475  17.244  0.00  0.00    +0.000 A 
ATOM     14  C   UNL     1       4.909   4.565  16.424  0.00  0.00    +0.000 A 
ATOM     15  C   UNL     1       5.422   4.237  15.168  0.00  0.00    +0.000 A 
ATOM     16  C   UNL     1       6.602   4.834  14.744  0.00  0.00    +0.000 A 
ATOM     17  C   UNL     1       7.169   4.524  13.390  0.00  0.00    +0.000 C 
ATOM     18  N   UNL     1       7.284   5.712  15.511  0.00  0.00    +0.000 NA
ATOM     19  C   UNL     1       6.767   6.020  16.745  0.00  0.00    +0.000 A 
BRANCH  19  20
ATOM     20  N   UNL     1       7.484   6.954  17.630  0.00  0.00    +0.000 N 
ATOM     21  O   UNL     1       8.055   6.478  18.630  0.00  0.00    +0.000 OA
ATOM     22  O   UNL     1       7.496   8.149  17.303  0.00  0.00    +0.000 OA
ENDBRANCH  19  20
ENDBRANCH  12  13
ENDBRANCH   1  12
TORSDOF 7
ENDMDL
