MODEL 1
REMARK VINA RESULT:      -9.5      0.000      0.000
REMARK  Name = 
REMARK  7 active torsions:
REMARK  status: ('A' for Active; 'I' for Inactive)
REMARK    1  A    between atoms: C_1  and  C_2
REMARK    2  A    between atoms: N_4  and  C_5
REMARK    3  A    between atoms: C_8  and  O_9
REMARK    4  A    between atoms: O_9  and  C_10
REMARK    5  A    between atoms: C_14  and  N_15
REMARK    6  A    between atoms: N_15  and  C_16
REMARK    7  A    between atoms: C_20  and  C_21
REMARK                            x       y       z     vdW  Elec       q    Type
REMARK                         _______ _______ _______ _____ _____    ______ ____
ROOT
ATOM      1  C   UNL     1       1.240   8.372  20.815  0.00  0.00    +0.000 A 
ATOM      2  C   UNL     1       1.451   9.149  21.938  0.00  0.00    +0.000 A 
ATOM      3  N   UNL     1       1.113  10.461  21.981  0.00  0.00    +0.000 NA
ATOM      4  C   UNL     1       0.568  10.948  20.833  0.00  0.00    +0.000 A 
ATOM      5  C   UNL     1       0.405  10.198  19.663  0.00  0.00    +0.000 A 
ATOM      6  N   UNL     1       0.758   8.898  19.668  0.00  0.00    +0.000 NA
ENDROOT
BRANCH   5   7
ATOM      7  N   UNL     1      -0.140  10.792  18.505  0.00  0.00    +0.000 N 
ATOM      8  H   UNL     1       0.536  10.894  17.760  0.00  0.00    +0.000 HD
BRANCH   7   9
ATOM      9  C   UNL     1      -1.468  10.702  18.025  0.00  0.00    +0.000 A 
ATOM     10  C   UNL     1      -1.839   9.975  16.889  0.00  0.00    +0.000 A 
ATOM     11  C   UNL     1      -3.147   9.997  16.407  0.00  0.00    +0.000 A 
ATOM     12  C   UNL     1      -4.119  10.741  17.068  0.00  0.00    +0.000 A 
ATOM     13  C   UNL     1      -3.800  11.452  18.229  0.00  0.00    +0.000 A 
ATOM     14  C   UNL     1      -2.480  11.396  18.712  0.00  0.00    +0.000 A 
BRANCH  13  15
ATOM     15  C   UNL     1      -4.806  12.275  18.885  0.00  0.00    +0.000 A 
ATOM     16  C   UNL     1      -4.879  12.988  20.064  0.00  0.00    +0.000 A 
ATOM     17  N   UNL     1      -6.122  13.553  20.205  0.00  0.00    +0.000 NA
ATOM     18  C   UNL     1      -6.753  13.168  19.121  0.00  0.00    +0.000 A 
ATOM     19  O   UNL     1      -6.026  12.395  18.269  0.00  0.00    +0.000 OA
ENDBRANCH  13  15
ENDBRANCH   7   9
ENDBRANCH   5   7
BRANCH   1  20
ATOM     20  O   UNL     1       1.523   7.015  20.879  0.00  0.00    +0.000 OA
BRANCH  20  24
ATOM     21  C   UNL     1       3.541   5.274  17.621  0.00  0.00    +0.000 A 
ATOM     22  C   UNL     1       3.673   6.636  17.903  0.00  0.00    +0.000 A 
ATOM     23  C   UNL     1       2.991   7.220  18.963  0.00  0.00    +0.000 A 
ATOM     24  C   UNL     1       2.190   6.446  19.801  0.00  0.00    +0.000 A 
ATOM     25  C   UNL     1       1.973   5.079  19.512  0.00  0.00    +0.000 A 
ATOM     26  C   UNL     1       1.117   4.292  20.312  0.00  0.00    +0.000 A 
ATOM     27  C   UNL     1       0.881   2.946  20.036  0.00  0.00    +0.000 A 
ATOM     28  C   UNL     1       1.502   2.355  18.948  0.00  0.00    +0.000 A 
ATOM     29  C   UNL     1       2.368   3.106  18.148  0.00  0.00    +0.000 A 
ATOM     30  C   UNL     1       2.640   4.479  18.397  0.00  0.00    +0.000 A 
BRANCH  21  34
ATOM     31  C   UNL     1       6.140   3.785  15.299  0.00  0.00    +0.000 C 
ATOM     32  C   UNL     1       5.635   4.336  16.606  0.00  0.00    +0.000 C 
ATOM     33  O   UNL     1       6.389   4.415  17.571  0.00  0.00    +0.000 OA
ATOM     34  N   UNL     1       4.296   4.695  16.559  0.00  0.00    +0.000 N 
ATOM     35  H   UNL     1       3.787   4.399  15.741  0.00  0.00    +0.000 HD
ENDBRANCH  21  34
ENDBRANCH  20  24
ENDBRANCH   1  20
TORSDOF 6
ENDMDL
MODEL 2
REMARK VINA RESULT:      -9.2      1.725     10.019
REMARK  Name = 
REMARK  7 active torsions:
REMARK  status: ('A' for Active; 'I' for Inactive)
REMARK    1  A    between atoms: C_1  and  C_2
REMARK    2  A    between atoms: N_4  and  C_5
REMARK    3  A    between atoms: C_8  and  O_9
REMARK    4  A    between atoms: O_9  and  C_10
REMARK    5  A    between atoms: C_14  and  N_15
REMARK    6  A    between atoms: N_15  and  C_16
REMARK    7  A    between atoms: C_20  and  C_21
REMARK                            x       y       z     vdW  Elec       q    Type
REMARK                         _______ _______ _______ _____ _____    ______ ____
ROOT
ATOM      1  C   UNL     1       0.438   9.682  19.797  0.00  0.00    +0.000 A 
ATOM      2  C   UNL     1      -0.324   9.412  20.918  0.00  0.00    +0.000 A 
ATOM      3  N   UNL     1      -0.040   8.381  21.751  0.00  0.00    +0.000 NA
ATOM      4  C   UNL     1       1.036   7.632  21.387  0.00  0.00    +0.000 A 
ATOM      5  C   UNL     1       1.782   7.846  20.222  0.00  0.00    +0.000 A 
ATOM      6  N   UNL     1       1.461   8.883  19.425  0.00  0.00    +0.000 NA
ENDROOT
BRANCH   5   7
ATOM      7  N   UNL     1       2.866   7.000  19.904  0.00  0.00    +0.000 N 
ATOM      8  H   UNL     1       3.459   6.805  20.699  0.00  0.00    +0.000 HD
BRANCH   7   9
ATOM      9  C   UNL     1       2.912   5.977  18.928  0.00  0.00    +0.000 A 
ATOM     10  C   UNL     1       1.928   4.993  18.783  0.00  0.00    +0.000 A 
ATOM     11  C   UNL     1       2.070   3.952  17.866  0.00  0.00    +0.000 A 
ATOM     12  C   UNL     1       3.201   3.886  17.060  0.00  0.00    +0.000 A 
ATOM     13  C   UNL     1       4.192   4.870  17.145  0.00  0.00    +0.000 A 
ATOM     14  C   UNL     1       4.016   5.924  18.060  0.00  0.00    +0.000 A 
BRANCH  13  15
ATOM     15  C   UNL     1       5.400   4.766  16.340  0.00  0.00    +0.000 A 
ATOM     16  C   UNL     1       6.732   5.077  16.519  0.00  0.00    +0.000 A 
ATOM     17  N   UNL     1       7.445   4.807  15.378  0.00  0.00    +0.000 NA
ATOM     18  C   UNL     1       6.532   4.346  14.555  0.00  0.00    +0.000 A 
ATOM     19  O   UNL     1       5.271   4.286  15.061  0.00  0.00    +0.000 OA
ENDBRANCH  13  15
ENDBRANCH   7   9
ENDBRANCH   5   7
BRANCH   1  20
ATOM     20  O   UNL     1       0.144  10.811  19.046  0.00  0.00    +0.000 OA
BRANCH  20  24
ATOM     21  C   UNL     1      -3.725  12.433  19.384  0.00  0.00    +0.000 A 
ATOM     22  C   UNL     1      -2.766  12.650  20.377  0.00  0.00    +0.000 A 
ATOM     23  C   UNL     1      -1.495  12.097  20.281  0.00  0.00    +0.000 A 
ATOM     24  C   UNL     1      -1.132  11.347  19.163  0.00  0.00    +0.000 A 
ATOM     25  C   UNL     1      -2.090  11.045  18.169  0.00  0.00    +0.000 A 
ATOM     26  C   UNL     1      -1.761  10.236  17.060  0.00  0.00    +0.000 A 
ATOM     27  C   UNL     1      -2.695   9.918  16.076  0.00  0.00    +0.000 A 
ATOM     28  C   UNL     1      -3.987  10.406  16.181  0.00  0.00    +0.000 A 
ATOM     29  C   UNL     1      -4.338  11.223  17.259  0.00  0.00    +0.000 A 
ATOM     30  C   UNL     1      -3.415  11.576  18.281  0.00  0.00    +0.000 A 
BRANCH  21  34
ATOM     31  C   UNL     1      -7.272  13.522  20.157  0.00  0.00    +0.000 C 
ATOM     32  C   UNL     1      -6.041  12.670  20.319  0.00  0.00    +0.000 C 
ATOM     33  O   UNL     1      -6.032  11.754  21.136  0.00  0.00    +0.000 OA
ATOM     34  N   UNL     1      -5.002  13.058  19.487  0.00  0.00    +0.000 N 
ATOM     35  H   UNL     1      -5.123  13.938  19.009  0.00  0.00    +0.000 HD
ENDBRANCH  21  34
ENDBRANCH  20  24
ENDBRANCH   1  20
TORSDOF 6
ENDMDL
MODEL 3
REMARK VINA RESULT:      -9.1      2.257     10.022
REMARK  Name = 
REMARK  7 active torsions:
REMARK  status: ('A' for Active; 'I' for Inactive)
REMARK    1  A    between atoms: C_1  and  C_2
REMARK    2  A    between atoms: N_4  and  C_5
REMARK    3  A    between atoms: C_8  and  O_9
REMARK    4  A    between atoms: O_9  and  C_10
REMARK    5  A    between atoms: C_14  and  N_15
REMARK    6  A    between atoms: N_15  and  C_16
REMARK    7  A    between atoms: C_20  and  C_21
REMARK                            x       y       z     vdW  Elec       q    Type
REMARK                         _______ _______ _______ _____ _____    ______ ____
ROOT
ATOM      1  C   UNL     1       2.036   7.161  19.918  0.00  0.00    +0.000 A 
ATOM      2  C   UNL     1       1.407   6.411  20.893  0.00  0.00    +0.000 A 
ATOM      3  N   UNL     1       1.414   5.056  20.877  0.00  0.00    +0.000 NA
ATOM      4  C   UNL     1       2.072   4.502  19.822  0.00  0.00    +0.000 A 
ATOM      5  C   UNL     1       2.659   5.240  18.789  0.00  0.00    +0.000 A 
ATOM      6  N   UNL     1       2.625   6.585  18.849  0.00  0.00    +0.000 NA
ENDROOT
BRANCH   5   7
ATOM      7  N   UNL     1       3.295   4.582  17.715  0.00  0.00    +0.000 N 
ATOM      8  H   UNL     1       2.713   4.522  16.890  0.00  0.00    +0.000 HD
BRANCH   7   9
ATOM      9  C   UNL     1       4.676   4.555  17.407  0.00  0.00    +0.000 A 
ATOM     10  C   UNL     1       5.690   4.639  18.366  0.00  0.00    +0.000 A 
ATOM     11  C   UNL     1       7.034   4.702  18.000  0.00  0.00    +0.000 A 
ATOM     12  C   UNL     1       7.390   4.666  16.656  0.00  0.00    +0.000 A 
ATOM     13  C   UNL     1       6.410   4.544  15.665  0.00  0.00    +0.000 A 
ATOM     14  C   UNL     1       5.063   4.457  16.059  0.00  0.00    +0.000 A 
BRANCH  13  15
ATOM     15  C   UNL     1       6.783   4.564  14.258  0.00  0.00    +0.000 A 
ATOM     16  C   UNL     1       6.442   3.834  13.138  0.00  0.00    +0.000 A 
ATOM     17  N   UNL     1       7.157   4.266  12.048  0.00  0.00    +0.000 NA
ATOM     18  C   UNL     1       7.898   5.233  12.539  0.00  0.00    +0.000 A 
ATOM     19  O   UNL     1       7.729   5.478  13.866  0.00  0.00    +0.000 OA
ENDBRANCH  13  15
ENDBRANCH   7   9
ENDBRANCH   5   7
BRANCH   1  20
ATOM     20  O   UNL     1       2.068   8.542  20.055  0.00  0.00    +0.000 OA
BRANCH  20  24
ATOM     21  C   UNL     1      -1.185  10.730  18.522  0.00  0.00    +0.000 A 
ATOM     22  C   UNL     1      -0.318  10.040  17.670  0.00  0.00    +0.000 A 
ATOM     23  C   UNL     1       0.770   9.335  18.170  0.00  0.00    +0.000 A 
ATOM     24  C   UNL     1       0.997   9.264  19.543  0.00  0.00    +0.000 A 
ATOM     25  C   UNL     1       0.187  10.003  20.436  0.00  0.00    +0.000 A 
ATOM     26  C   UNL     1       0.437   9.993  21.826  0.00  0.00    +0.000 A 
ATOM     27  C   UNL     1      -0.344  10.724  22.720  0.00  0.00    +0.000 A 
ATOM     28  C   UNL     1      -1.399  11.483  22.240  0.00  0.00    +0.000 A 
ATOM     29  C   UNL     1      -1.679  11.499  20.871  0.00  0.00    +0.000 A 
ATOM     30  C   UNL     1      -0.912  10.764  19.926  0.00  0.00    +0.000 A 
BRANCH  21  34
ATOM     31  C   UNL     1      -4.512  11.792  17.051  0.00  0.00    +0.000 C 
ATOM     32  C   UNL     1      -3.527  10.809  17.625  0.00  0.00    +0.000 C 
ATOM     33  O   UNL     1      -3.837   9.628  17.746  0.00  0.00    +0.000 OA
ATOM     34  N   UNL     1      -2.323  11.397  17.983  0.00  0.00    +0.000 N 
ATOM     35  H   UNL     1      -2.305  12.406  17.978  0.00  0.00    +0.000 HD
ENDBRANCH  21  34
ENDBRANCH  20  24
ENDBRANCH   1  20
TORSDOF 6
ENDMDL
MODEL 4
REMARK VINA RESULT:      -9.0      3.653      9.695
REMARK  Name = 
REMARK  7 active torsions:
REMARK  status: ('A' for Active; 'I' for Inactive)
REMARK    1  A    between atoms: C_1  and  C_2
REMARK    2  A    between atoms: N_4  and  C_5
REMARK    3  A    between atoms: C_8  and  O_9
REMARK    4  A    between atoms: O_9  and  C_10
REMARK    5  A    between atoms: C_14  and  N_15
REMARK    6  A    between atoms: N_15  and  C_16
REMARK    7  A    between atoms: C_20  and  C_21
REMARK                            x       y       z     vdW  Elec       q    Type
REMARK                         _______ _______ _______ _____ _____    ______ ____
ROOT
ATOM      1  C   UNL     1       1.955   5.293  20.385  0.00  0.00    +0.000 A 
ATOM      2  C   UNL     1       1.015   4.382  19.942  0.00  0.00    +0.000 A 
ATOM      3  N   UNL     1       1.363   3.249  19.285  0.00  0.00    +0.000 NA
ATOM      4  C   UNL     1       2.700   3.091  19.087  0.00  0.00    +0.000 A 
ATOM      5  C   UNL     1       3.665   4.030  19.469  0.00  0.00    +0.000 A 
ATOM      6  N   UNL     1       3.270   5.143  20.117  0.00  0.00    +0.000 NA
ENDROOT
BRANCH   5   7
ATOM      7  N   UNL     1       5.030   3.801  19.196  0.00  0.00    +0.000 N 
ATOM      8  H   UNL     1       5.266   2.819  19.168  0.00  0.00    +0.000 HD
BRANCH   7   9
ATOM      9  C   UNL     1       5.904   4.591  18.412  0.00  0.00    +0.000 A 
ATOM     10  C   UNL     1       6.611   5.693  18.904  0.00  0.00    +0.000 A 
ATOM     11  C   UNL     1       7.386   6.494  18.065  0.00  0.00    +0.000 A 
ATOM     12  C   UNL     1       7.480   6.193  16.710  0.00  0.00    +0.000 A 
ATOM     13  C   UNL     1       6.820   5.078  16.183  0.00  0.00    +0.000 A 
ATOM     14  C   UNL     1       6.065   4.271  17.053  0.00  0.00    +0.000 A 
BRANCH  13  15
ATOM     15  C   UNL     1       6.875   4.800  14.756  0.00  0.00    +0.000 A 
ATOM     16  C   UNL     1       6.218   3.948  13.892  0.00  0.00    +0.000 A 
ATOM     17  N   UNL     1       6.720   4.073  12.620  0.00  0.00    +0.000 NA
ATOM     18  C   UNL     1       7.653   4.987  12.755  0.00  0.00    +0.000 A 
ATOM     19  O   UNL     1       7.808   5.480  14.013  0.00  0.00    +0.000 OA
ENDBRANCH  13  15
ENDBRANCH   7   9
ENDBRANCH   5   7
BRANCH   1  20
ATOM     20  O   UNL     1       1.530   6.381  21.133  0.00  0.00    +0.000 OA
BRANCH  20  24
ATOM     21  C   UNL     1       1.219  10.100  19.186  0.00  0.00    +0.000 A 
ATOM     22  C   UNL     1       1.947   9.050  18.619  0.00  0.00    +0.000 A 
ATOM     23  C   UNL     1       2.071   7.828  19.268  0.00  0.00    +0.000 A 
ATOM     24  C   UNL     1       1.432   7.607  20.487  0.00  0.00    +0.000 A 
ATOM     25  C   UNL     1       0.744   8.661  21.131  0.00  0.00    +0.000 A 
ATOM     26  C   UNL     1       0.142   8.476  22.394  0.00  0.00    +0.000 A 
ATOM     27  C   UNL     1      -0.530   9.507  23.049  0.00  0.00    +0.000 A 
ATOM     28  C   UNL     1      -0.616  10.752  22.449  0.00  0.00    +0.000 A 
ATOM     29  C   UNL     1      -0.043  10.961  21.191  0.00  0.00    +0.000 A 
ATOM     30  C   UNL     1       0.646   9.936  20.487  0.00  0.00    +0.000 A 
BRANCH  21  34
ATOM     31  C   UNL     1       1.272  13.639  17.833  0.00  0.00    +0.000 C 
ATOM     32  C   UNL     1       1.675  12.532  18.769  0.00  0.00    +0.000 C 
ATOM     33  O   UNL     1       2.477  12.752  19.671  0.00  0.00    +0.000 OA
ATOM     34  N   UNL     1       1.066  11.323  18.469  0.00  0.00    +0.000 N 
ATOM     35  H   UNL     1       0.574  11.281  17.590  0.00  0.00    +0.000 HD
ENDBRANCH  21  34
ENDBRANCH  20  24
ENDBRANCH   1  20
TORSDOF 6
ENDMDL
MODEL 5
REMARK VINA RESULT:      -9.0      2.530      9.839
REMARK  Name = 
REMARK  7 active torsions:
REMARK  status: ('A' for Active; 'I' for Inactive)
REMARK    1  A    between atoms: C_1  and  C_2
REMARK    2  A    between atoms: N_4  and  C_5
REMARK    3  A    between atoms: C_8  and  O_9
REMARK    4  A    between atoms: O_9  and  C_10
REMARK    5  A    between atoms: C_14  and  N_15
REMARK    6  A    between atoms: N_15  and  C_16
REMARK    7  A    between atoms: C_20  and  C_21
REMARK                            x       y       z     vdW  Elec       q    Type
REMARK                         _______ _______ _______ _____ _____    ______ ____
ROOT
ATOM      1  C   UNL     1       2.435   5.991  20.143  0.00  0.00    +0.000 A 
ATOM      2  C   UNL     1       1.460   5.220  20.748  0.00  0.00    +0.000 A 
ATOM      3  N   UNL     1       1.370   3.883  20.545  0.00  0.00    +0.000 NA
ATOM      4  C   UNL     1       2.300   3.371  19.693  0.00  0.00    +0.000 A 
ATOM      5  C   UNL     1       3.254   4.141  19.019  0.00  0.00    +0.000 A 
ATOM      6  N   UNL     1       3.303   5.467  19.252  0.00  0.00    +0.000 NA
ENDROOT
BRANCH   5   7
ATOM      7  N   UNL     1       4.162   3.532  18.127  0.00  0.00    +0.000 N 
ATOM      8  H   UNL     1       3.726   2.837  17.536  0.00  0.00    +0.000 HD
BRANCH   7   9
ATOM      9  C   UNL     1       5.314   4.102  17.536  0.00  0.00    +0.000 A 
ATOM     10  C   UNL     1       6.230   4.901  18.227  0.00  0.00    +0.000 A 
ATOM     11  C   UNL     1       7.298   5.515  17.573  0.00  0.00    +0.000 A 
ATOM     12  C   UNL     1       7.479   5.323  16.207  0.00  0.00    +0.000 A 
ATOM     13  C   UNL     1       6.608   4.501  15.484  0.00  0.00    +0.000 A 
ATOM     14  C   UNL     1       5.553   3.873  16.169  0.00  0.00    +0.000 A 
BRANCH  13  15
ATOM     15  C   UNL     1       6.767   4.349  14.045  0.00  0.00    +0.000 A 
ATOM     16  C   UNL     1       7.546   4.941  13.073  0.00  0.00    +0.000 A 
ATOM     17  N   UNL     1       7.239   4.430  11.836  0.00  0.00    +0.000 NA
ATOM     18  C   UNL     1       6.296   3.556  12.098  0.00  0.00    +0.000 A 
ATOM     19  O   UNL     1       5.955   3.444  13.410  0.00  0.00    +0.000 OA
ENDBRANCH  13  15
ENDBRANCH   7   9
ENDBRANCH   5   7
BRANCH   1  20
ATOM     20  O   UNL     1       2.523   7.336  20.475  0.00  0.00    +0.000 OA
BRANCH  20  24
ATOM     21  C   UNL     1      -0.002  10.019  18.440  0.00  0.00    +0.000 A 
ATOM     22  C   UNL     1       0.899   9.210  17.741  0.00  0.00    +0.000 A 
ATOM     23  C   UNL     1       1.751   8.339  18.411  0.00  0.00    +0.000 A 
ATOM     24  C   UNL     1       1.694   8.220  19.798  0.00  0.00    +0.000 A 
ATOM     25  C   UNL     1       0.847   9.068  20.549  0.00  0.00    +0.000 A 
ATOM     26  C   UNL     1       0.818   9.006  21.959  0.00  0.00    +0.000 A 
ATOM     27  C   UNL     1      -0.001   9.841  22.717  0.00  0.00    +0.000 A 
ATOM     28  C   UNL     1      -0.815  10.761  22.076  0.00  0.00    +0.000 A 
ATOM     29  C   UNL     1      -0.820  10.833  20.681  0.00  0.00    +0.000 A 
ATOM     30  C   UNL     1      -0.004   9.996  19.870  0.00  0.00    +0.000 A 
BRANCH  21  34
ATOM     31  C   UNL     1      -2.857  11.641  16.548  0.00  0.00    +0.000 C 
ATOM     32  C   UNL     1      -2.189  10.538  17.326  0.00  0.00    +0.000 C 
ATOM     33  O   UNL     1      -2.794   9.497  17.557  0.00  0.00    +0.000 OA
ATOM     34  N   UNL     1      -0.899  10.861  17.720  0.00  0.00    +0.000 N 
ATOM     35  H   UNL     1      -0.626  11.824  17.597  0.00  0.00    +0.000 HD
ENDBRANCH  21  34
ENDBRANCH  20  24
ENDBRANCH   1  20
TORSDOF 6
ENDMDL
MODEL 6
REMARK VINA RESULT:      -8.9      1.187      1.265
REMARK  Name = 
REMARK  7 active torsions:
REMARK  status: ('A' for Active; 'I' for Inactive)
REMARK    1  A    between atoms: C_1  and  C_2
REMARK    2  A    between atoms: N_4  and  C_5
REMARK    3  A    between atoms: C_8  and  O_9
REMARK    4  A    between atoms: O_9  and  C_10
REMARK    5  A    between atoms: C_14  and  N_15
REMARK    6  A    between atoms: N_15  and  C_16
REMARK    7  A    between atoms: C_20  and  C_21
REMARK                            x       y       z     vdW  Elec       q    Type
REMARK                         _______ _______ _______ _____ _____    ______ ____
ROOT
ATOM      1  C   UNL     1       0.850   9.114  20.512  0.00  0.00    +0.000 A 
ATOM      2  C   UNL     1       1.087   9.942  21.593  0.00  0.00    +0.000 A 
ATOM      3  N   UNL     1       0.734  11.250  21.589  0.00  0.00    +0.000 NA
ATOM      4  C   UNL     1       0.148  11.680  20.438  0.00  0.00    +0.000 A 
ATOM      5  C   UNL     1      -0.043  10.877  19.309  0.00  0.00    +0.000 A 
ATOM      6  N   UNL     1       0.326   9.583  19.360  0.00  0.00    +0.000 NA
ENDROOT
BRANCH   5   7
ATOM      7  N   UNL     1      -0.631  11.414  18.143  0.00  0.00    +0.000 N 
ATOM      8  H   UNL     1       0.029  11.533  17.388  0.00  0.00    +0.000 HD
BRANCH   7   9
ATOM      9  C   UNL     1      -1.958  11.242  17.682  0.00  0.00    +0.000 A 
ATOM     10  C   UNL     1      -2.285  10.821  16.389  0.00  0.00    +0.000 A 
ATOM     11  C   UNL     1      -3.610  10.758  15.958  0.00  0.00    +0.000 A 
ATOM     12  C   UNL     1      -4.640  11.104  16.826  0.00  0.00    +0.000 A 
ATOM     13  C   UNL     1      -4.360  11.494  18.140  0.00  0.00    +0.000 A 
ATOM     14  C   UNL     1      -3.018  11.526  18.560  0.00  0.00    +0.000 A 
BRANCH  13  15
ATOM     15  C   UNL     1      -5.437  11.911  19.026  0.00  0.00    +0.000 A 
ATOM     16  C   UNL     1      -6.798  12.099  18.903  0.00  0.00    +0.000 A 
ATOM     17  N   UNL     1      -7.327  12.560  20.082  0.00  0.00    +0.000 NA
ATOM     18  C   UNL     1      -6.281  12.635  20.872  0.00  0.00    +0.000 A 
ATOM     19  O   UNL     1      -5.101  12.256  20.312  0.00  0.00    +0.000 OA
ENDBRANCH  13  15
ENDBRANCH   7   9
ENDBRANCH   5   7
BRANCH   1  20
ATOM     20  O   UNL     1       1.151   7.764  20.627  0.00  0.00    +0.000 OA
BRANCH  20  24
ATOM     21  C   UNL     1       3.790   6.094  17.804  0.00  0.00    +0.000 A 
ATOM     22  C   UNL     1       3.385   7.429  17.708  0.00  0.00    +0.000 A 
ATOM     23  C   UNL     1       2.496   7.978  18.624  0.00  0.00    +0.000 A 
ATOM     24  C   UNL     1       2.021   7.218  19.692  0.00  0.00    +0.000 A 
ATOM     25  C   UNL     1       2.348   5.846  19.788  0.00  0.00    +0.000 A 
ATOM     26  C   UNL     1       1.828   5.043  20.826  0.00  0.00    +0.000 A 
ATOM     27  C   UNL     1       2.131   3.686  20.931  0.00  0.00    +0.000 A 
ATOM     28  C   UNL     1       2.967   3.101  19.995  0.00  0.00    +0.000 A 
ATOM     29  C   UNL     1       3.509   3.874  18.965  0.00  0.00    +0.000 A 
ATOM     30  C   UNL     1       3.231   5.262  18.825  0.00  0.00    +0.000 A 
BRANCH  21  34
ATOM     31  C   UNL     1       6.843   5.072  15.807  0.00  0.00    +0.000 C 
ATOM     32  C   UNL     1       6.122   5.703  16.968  0.00  0.00    +0.000 C 
ATOM     33  O   UNL     1       6.760   6.242  17.867  0.00  0.00    +0.000 OA
ATOM     34  N   UNL     1       4.744   5.577  16.880  0.00  0.00    +0.000 N 
ATOM     35  H   UNL     1       4.401   4.952  16.167  0.00  0.00    +0.000 HD
ENDBRANCH  21  34
ENDBRANCH  20  24
ENDBRANCH   1  20
TORSDOF 6
ENDMDL
MODEL 7
REMARK VINA RESULT:      -8.8      0.981      1.058
REMARK  Name = 
REMARK  7 active torsions:
REMARK  status: ('A' for Active; 'I' for Inactive)
REMARK    1  A    between atoms: C_1  and  C_2
REMARK    2  A    between atoms: N_4  and  C_5
REMARK    3  A    between atoms: C_8  and  O_9
REMARK    4  A    between atoms: O_9  and  C_10
REMARK    5  A    between atoms: C_14  and  N_15
REMARK    6  A    between atoms: N_15  and  C_16
REMARK    7  A    between atoms: C_20  and  C_21
REMARK                            x       y       z     vdW  Elec       q    Type
REMARK                         _______ _______ _______ _____ _____    ______ ____
ROOT
ATOM      1  C   UNL     1       1.193   8.609  20.485  0.00  0.00    +0.000 A 
ATOM      2  C   UNL     1       1.353   9.515  21.516  0.00  0.00    +0.000 A 
ATOM      3  N   UNL     1       0.918  10.795  21.425  0.00  0.00    +0.000 NA
ATOM      4  C   UNL     1       0.332  11.116  20.240  0.00  0.00    +0.000 A 
ATOM      5  C   UNL     1       0.217  10.235  19.158  0.00  0.00    +0.000 A 
ATOM      6  N   UNL     1       0.666   8.973  19.296  0.00  0.00    +0.000 NA
ENDROOT
BRANCH   5   7
ATOM      7  N   UNL     1      -0.378  10.661  17.952  0.00  0.00    +0.000 N 
ATOM      8  H   UNL     1       0.137  10.366  17.134  0.00  0.00    +0.000 HD
BRANCH   7   9
ATOM      9  C   UNL     1      -1.753  10.861  17.684  0.00  0.00    +0.000 A 
ATOM     10  C   UNL     1      -2.343  10.646  16.434  0.00  0.00    +0.000 A 
ATOM     11  C   UNL     1      -3.685  10.949  16.202  0.00  0.00    +0.000 A 
ATOM     12  C   UNL     1      -4.469  11.461  17.230  0.00  0.00    +0.000 A 
ATOM     13  C   UNL     1      -3.929  11.655  18.506  0.00  0.00    +0.000 A 
ATOM     14  C   UNL     1      -2.581  11.320  18.723  0.00  0.00    +0.000 A 
BRANCH  13  15
ATOM     15  C   UNL     1      -4.738  12.244  19.563  0.00  0.00    +0.000 A 
ATOM     16  C   UNL     1      -5.986  12.002  20.100  0.00  0.00    +0.000 A 
ATOM     17  N   UNL     1      -6.276  12.924  21.075  0.00  0.00    +0.000 NA
ATOM     18  C   UNL     1      -5.206  13.685  21.095  0.00  0.00    +0.000 A 
ATOM     19  O   UNL     1      -4.229  13.339  20.215  0.00  0.00    +0.000 OA
ENDBRANCH  13  15
ENDBRANCH   7   9
ENDBRANCH   5   7
BRANCH   1  20
ATOM     20  O   UNL     1       1.576   7.291  20.688  0.00  0.00    +0.000 OA
BRANCH  20  24
ATOM     21  C   UNL     1       3.661   5.351  17.588  0.00  0.00    +0.000 A 
ATOM     22  C   UNL     1       3.811   6.723  17.807  0.00  0.00    +0.000 A 
ATOM     23  C   UNL     1       3.108   7.372  18.814  0.00  0.00    +0.000 A 
ATOM     24  C   UNL     1       2.265   6.656  19.663  0.00  0.00    +0.000 A 
ATOM     25  C   UNL     1       2.029   5.281  19.435  0.00  0.00    +0.000 A 
ATOM     26  C   UNL     1       1.133   4.550  20.244  0.00  0.00    +0.000 A 
ATOM     27  C   UNL     1       0.879   3.197  20.028  0.00  0.00    +0.000 A 
ATOM     28  C   UNL     1       1.522   2.541  18.991  0.00  0.00    +0.000 A 
ATOM     29  C   UNL     1       2.427   3.235  18.184  0.00  0.00    +0.000 A 
ATOM     30  C   UNL     1       2.719   4.613  18.373  0.00  0.00    +0.000 A 
BRANCH  21  34
ATOM     31  C   UNL     1       5.886   4.360  14.685  0.00  0.00    +0.000 C 
ATOM     32  C   UNL     1       5.222   5.331  15.625  0.00  0.00    +0.000 C 
ATOM     33  O   UNL     1       5.416   6.536  15.500  0.00  0.00    +0.000 OA
ATOM     34  N   UNL     1       4.437   4.706  16.582  0.00  0.00    +0.000 N 
ATOM     35  H   UNL     1       4.533   3.704  16.647  0.00  0.00    +0.000 HD
ENDBRANCH  21  34
ENDBRANCH  20  24
ENDBRANCH   1  20
TORSDOF 6
ENDMDL
MODEL 8
REMARK VINA RESULT:      -8.7      1.988     10.195
REMARK  Name = 
REMARK  7 active torsions:
REMARK  status: ('A' for Active; 'I' for Inactive)
REMARK    1  A    between atoms: C_1  and  C_2
REMARK    2  A    between atoms: N_4  and  C_5
REMARK    3  A    between atoms: C_8  and  O_9
REMARK    4  A    between atoms: O_9  and  C_10
REMARK    5  A    between atoms: C_14  and  N_15
REMARK    6  A    between atoms: N_15  and  C_16
REMARK    7  A    between atoms: C_20  and  C_21
REMARK                            x       y       z     vdW  Elec       q    Type
REMARK                         _______ _______ _______ _____ _____    ______ ____
ROOT
ATOM      1  C   UNL     1       0.937   9.764  19.704  0.00  0.00    +0.000 A 
ATOM      2  C   UNL     1       1.377  10.363  18.538  0.00  0.00    +0.000 A 
ATOM      3  N   UNL     1       2.159   9.711  17.644  0.00  0.00    +0.000 NA
ATOM      4  C   UNL     1       2.485   8.437  17.993  0.00  0.00    +0.000 A 
ATOM      5  C   UNL     1       2.107   7.833  19.197  0.00  0.00    +0.000 A 
ATOM      6  N   UNL     1       1.330   8.522  20.055  0.00  0.00    +0.000 NA
ENDROOT
BRANCH   5   7
ATOM      7  N   UNL     1       2.516   6.515  19.493  0.00  0.00    +0.000 N 
ATOM      8  H   UNL     1       2.129   6.169  20.360  0.00  0.00    +0.000 HD
BRANCH   7   9
ATOM      9  C   UNL     1       2.827   5.476  18.584  0.00  0.00    +0.000 A 
ATOM     10  C   UNL     1       2.119   4.272  18.505  0.00  0.00    +0.000 A 
ATOM     11  C   UNL     1       2.526   3.244  17.655  0.00  0.00    +0.000 A 
ATOM     12  C   UNL     1       3.649   3.411  16.852  0.00  0.00    +0.000 A 
ATOM     13  C   UNL     1       4.365   4.613  16.872  0.00  0.00    +0.000 A 
ATOM     14  C   UNL     1       3.921   5.645  17.718  0.00  0.00    +0.000 A 
BRANCH  13  15
ATOM     15  C   UNL     1       5.572   4.761  16.073  0.00  0.00    +0.000 A 
ATOM     16  C   UNL     1       6.860   5.198  16.305  0.00  0.00    +0.000 A 
ATOM     17  N   UNL     1       7.592   5.171  15.145  0.00  0.00    +0.000 NA
ATOM     18  C   UNL     1       6.734   4.724  14.258  0.00  0.00    +0.000 A 
ATOM     19  O   UNL     1       5.491   4.448  14.739  0.00  0.00    +0.000 OA
ENDBRANCH  13  15
ENDBRANCH   7   9
ENDBRANCH   5   7
BRANCH   1  20
ATOM     20  O   UNL     1       0.061  10.462  20.523  0.00  0.00    +0.000 OA
BRANCH  20  24
ATOM     21  C   UNL     1      -3.487  11.935  18.803  0.00  0.00    +0.000 A 
ATOM     22  C   UNL     1      -2.740  10.939  18.168  0.00  0.00    +0.000 A 
ATOM     23  C   UNL     1      -1.556  10.466  18.720  0.00  0.00    +0.000 A 
ATOM     24  C   UNL     1      -1.108  10.946  19.950  0.00  0.00    +0.000 A 
ATOM     25  C   UNL     1      -1.794  12.002  20.593  0.00  0.00    +0.000 A 
ATOM     26  C   UNL     1      -1.323  12.544  21.808  0.00  0.00    +0.000 A 
ATOM     27  C   UNL     1      -1.979  13.592  22.451  0.00  0.00    +0.000 A 
ATOM     28  C   UNL     1      -3.129  14.123  21.889  0.00  0.00    +0.000 A 
ATOM     29  C   UNL     1      -3.627  13.595  20.695  0.00  0.00    +0.000 A 
ATOM     30  C   UNL     1      -2.992  12.523  20.010  0.00  0.00    +0.000 A 
BRANCH  21  34
ATOM     31  C   UNL     1      -7.048  12.403  17.596  0.00  0.00    +0.000 C 
ATOM     32  C   UNL     1      -5.942  11.707  18.343  0.00  0.00    +0.000 C 
ATOM     33  O   UNL     1      -6.177  10.679  18.970  0.00  0.00    +0.000 OA
ATOM     34  N   UNL     1      -4.724  12.360  18.237  0.00  0.00    +0.000 N 
ATOM     35  H   UNL     1      -4.751  13.283  17.830  0.00  0.00    +0.000 HD
ENDBRANCH  21  34
ENDBRANCH  20  24
ENDBRANCH   1  20
TORSDOF 6
ENDMDL
MODEL 9
REMARK VINA RESULT:      -8.7      1.931      2.944
REMARK  Name = 
REMARK  7 active torsions:
REMARK  status: ('A' for Active; 'I' for Inactive)
REMARK    1  A    between atoms: C_1  and  C_2
REMARK    2  A    between atoms: N_4  and  C_5
REMARK    3  A    between atoms: C_8  and  O_9
REMARK    4  A    between atoms: O_9  and  C_10
REMARK    5  A    between atoms: C_14  and  N_15
REMARK    6  A    between atoms: N_15  and  C_16
REMARK    7  A    between atoms: C_20  and  C_21
REMARK                            x       y       z     vdW  Elec       q    Type
REMARK                         _______ _______ _______ _____ _____    ______ ____
ROOT
ATOM      1  C   UNL     1       1.051   8.436  20.871  0.00  0.00    +0.000 A 
ATOM      2  C   UNL     1       0.886   9.192  22.016  0.00  0.00    +0.000 A 
ATOM      3  N   UNL     1       0.320  10.423  21.992  0.00  0.00    +0.000 NA
ATOM      4  C   UNL     1      -0.052  10.856  20.756  0.00  0.00    +0.000 A 
ATOM      5  C   UNL     1       0.164  10.136  19.576  0.00  0.00    +0.000 A 
ATOM      6  N   UNL     1       0.732   8.917  19.651  0.00  0.00    +0.000 NA
ENDROOT
BRANCH   5   7
ATOM      7  N   UNL     1      -0.226  10.674  18.331  0.00  0.00    +0.000 N 
ATOM      8  H   UNL     1       0.437  10.479  17.593  0.00  0.00    +0.000 HD
BRANCH   7   9
ATOM      9  C   UNL     1      -1.539  10.872  17.843  0.00  0.00    +0.000 A 
ATOM     10  C   UNL     1      -2.606  11.314  18.632  0.00  0.00    +0.000 A 
ATOM     11  C   UNL     1      -3.901  11.402  18.121  0.00  0.00    +0.000 A 
ATOM     12  C   UNL     1      -4.150  11.060  16.796  0.00  0.00    +0.000 A 
ATOM     13  C   UNL     1      -3.105  10.649  15.961  0.00  0.00    +0.000 A 
ATOM     14  C   UNL     1      -1.804  10.592  16.491  0.00  0.00    +0.000 A 
BRANCH  13  15
ATOM     15  C   UNL     1      -3.380  10.237  14.592  0.00  0.00    +0.000 A 
ATOM     16  C   UNL     1      -4.510  10.094  13.814  0.00  0.00    +0.000 A 
ATOM     17  N   UNL     1      -4.179   9.611  12.572  0.00  0.00    +0.000 NA
ATOM     18  C   UNL     1      -2.875   9.480  12.638  0.00  0.00    +0.000 A 
ATOM     19  O   UNL     1      -2.313   9.841  13.824  0.00  0.00    +0.000 OA
ENDBRANCH  13  15
ENDBRANCH   7   9
ENDBRANCH   5   7
BRANCH   1  20
ATOM     20  O   UNL     1       1.549   7.146  20.989  0.00  0.00    +0.000 OA
BRANCH  20  24
ATOM     21  C   UNL     1       3.452   5.462  17.634  0.00  0.00    +0.000 A 
ATOM     22  C   UNL     1       3.598   6.819  17.937  0.00  0.00    +0.000 A 
ATOM     23  C   UNL     1       2.954   7.384  19.030  0.00  0.00    +0.000 A 
ATOM     24  C   UNL     1       2.178   6.596  19.880  0.00  0.00    +0.000 A 
ATOM     25  C   UNL     1       1.947   5.236  19.572  0.00  0.00    +0.000 A 
ATOM     26  C   UNL     1       1.115   4.435  20.385  0.00  0.00    +0.000 A 
ATOM     27  C   UNL     1       0.866   3.096  20.092  0.00  0.00    +0.000 A 
ATOM     28  C   UNL     1       1.449   2.524  18.973  0.00  0.00    +0.000 A 
ATOM     29  C   UNL     1       2.290   3.288  18.158  0.00  0.00    +0.000 A 
ATOM     30  C   UNL     1       2.574   4.655  18.424  0.00  0.00    +0.000 A 
BRANCH  21  34
ATOM     31  C   UNL     1       5.953   3.958  15.217  0.00  0.00    +0.000 C 
ATOM     32  C   UNL     1       5.485   4.462  16.556  0.00  0.00    +0.000 C 
ATOM     33  O   UNL     1       6.243   4.440  17.520  0.00  0.00    +0.000 OA
ATOM     34  N   UNL     1       4.170   4.902  16.537  0.00  0.00    +0.000 N 
ATOM     35  H   UNL     1       3.642   4.683  15.706  0.00  0.00    +0.000 HD
ENDBRANCH  21  34
ENDBRANCH  20  24
ENDBRANCH   1  20
TORSDOF 6
ENDMDL
