MODEL 1
REMARK VINA RESULT:      -7.9      0.000      0.000
REMARK  Name = 
REMARK  7 active torsions:
REMARK  status: ('A' for Active; 'I' for Inactive)
REMARK    1  A    between atoms: C_1  and  C_2
REMARK    2  A    between atoms: C_4  and  C_5
REMARK    3  A    between atoms: C_5  and  O_7
REMARK    4  A    between atoms: C_9  and  C_10
REMARK    5  A    between atoms: N_11  and  C_12
REMARK    6  A    between atoms: C_12  and  C_13
REMARK    7  A    between atoms: N_16  and  C_17
REMARK                            x       y       z     vdW  Elec       q    Type
REMARK                         _______ _______ _______ _____ _____    ______ ____
ROOT
ATOM      1  C   UNL     1       2.996   5.514  17.934  0.00  0.00    +0.000 C 
ENDROOT
BRANCH   1   9
ATOM      2  C   UNL     1       6.603   5.416  19.298  0.00  0.00    +0.000 C 
ATOM      3  C   UNL     1       5.440   5.813  18.376  0.00  0.00    +0.000 C 
ATOM      4  C   UNL     1       5.881   5.924  16.910  0.00  0.00    +0.000 C 
ATOM      5  C   UNL     1       6.180   4.547  16.311  0.00  0.00    +0.000 C 
ATOM      6  C   UNL     1       5.014   3.581  16.544  0.00  0.00    +0.000 C 
ATOM      7  C   UNL     1       4.540   3.587  18.014  0.00  0.00    +0.000 C 
ATOM      8  C   UNL     1       3.401   2.578  18.216  0.00  0.00    +0.000 C 
ATOM      9  N   UNL     1       4.248   4.952  18.533  0.00  0.00    +0.000 NA
BRANCH   5  10
ATOM     10  C   UNL     1       6.474   4.672  14.829  0.00  0.00    +0.000 C 
ATOM     11  O   UNL     1       5.855   4.102  13.944  0.00  0.00    +0.000 OA
BRANCH  10  12
ATOM     12  O   UNL     1       7.525   5.481  14.562  0.00  0.00    +0.000 OA
ATOM     13  H   UNL     1       7.915   5.913  15.345  0.00  0.00    +0.000 HD
ENDBRANCH  10  12
ENDBRANCH   5  10
ENDBRANCH   1   9
BRANCH   1  14
ATOM     14  C   UNL     1       2.672   6.961  18.261  0.00  0.00    +0.000 A 
ATOM     15  C   UNL     1       2.637   8.074  17.387  0.00  0.00    +0.000 A 
ATOM     16  C   UNL     1       2.199   9.123  18.141  0.00  0.00    +0.000 A 
ATOM     17  N   UNL     1       1.807   8.604  19.343  0.00  0.00    +0.000 N 
ATOM     18  N   UNL     1       2.191   7.302  19.472  0.00  0.00    +0.000 NA
BRANCH  17  19
ATOM     19  C   UNL     1       1.008   9.258  20.322  0.00  0.00    +0.000 A 
ATOM     20  C   UNL     1       0.276  10.406  19.971  0.00  0.00    +0.000 A 
ATOM     21  C   UNL     1      -0.572  11.012  20.902  0.00  0.00    +0.000 A 
ATOM     22  C   UNL     1      -0.678  10.479  22.180  0.00  0.00    +0.000 A 
ATOM     23 CL   UNL     1      -1.730  11.224  23.321  0.00  0.00    +0.000 Cl
ATOM     24  C   UNL     1       0.055   9.344  22.543  0.00  0.00    +0.000 A 
ATOM     25  C   UNL     1       0.893   8.727  21.610  0.00  0.00    +0.000 A 
ENDBRANCH  17  19
ENDBRANCH   1  14
TORSDOF 5
ENDMDL
MODEL 2
REMARK VINA RESULT:      -7.7      1.094      1.397
REMARK  Name = 
REMARK  7 active torsions:
REMARK  status: ('A' for Active; 'I' for Inactive)
REMARK    1  A    between atoms: C_1  and  C_2
REMARK    2  A    between atoms: C_4  and  C_5
REMARK    3  A    between atoms: C_5  and  O_7
REMARK    4  A    between atoms: C_9  and  C_10
REMARK    5  A    between atoms: N_11  and  C_12
REMARK    6  A    between atoms: C_12  and  C_13
REMARK    7  A    between atoms: N_16  and  C_17
REMARK                            x       y       z     vdW  Elec       q    Type
REMARK                         _______ _______ _______ _____ _____    ______ ____
ROOT
ATOM      1  C   UNL     1       3.957   6.077  17.943  0.00  0.00    +0.000 C 
ENDROOT
BRANCH   1   9
ATOM      2  C   UNL     1       7.654   5.541  18.905  0.00  0.00    +0.000 C 
ATOM      3  C   UNL     1       6.453   6.075  18.109  0.00  0.00    +0.000 C 
ATOM      4  C   UNL     1       6.738   6.126  16.602  0.00  0.00    +0.000 C 
ATOM      5  C   UNL     1       6.799   4.721  15.997  0.00  0.00    +0.000 C 
ATOM      6  C   UNL     1       5.557   3.907  16.374  0.00  0.00    +0.000 C 
ATOM      7  C   UNL     1       5.254   3.975  17.887  0.00  0.00    +0.000 C 
ATOM      8  C   UNL     1       4.030   3.115  18.230  0.00  0.00    +0.000 C 
ATOM      9  N   UNL     1       5.190   5.368  18.411  0.00  0.00    +0.000 NA
BRANCH   5  10
ATOM     10  C   UNL     1       6.939   4.803  14.490  0.00  0.00    +0.000 C 
ATOM     11  O   UNL     1       6.249   4.191  13.691  0.00  0.00    +0.000 OA
BRANCH  10  12
ATOM     12  O   UNL     1       7.937   5.625  14.093  0.00  0.00    +0.000 OA
ATOM     13  H   UNL     1       8.118   5.612  13.135  0.00  0.00    +0.000 HD
ENDBRANCH  10  12
ENDBRANCH   5  10
ENDBRANCH   1   9
BRANCH   1  14
ATOM     14  C   UNL     1       2.899   6.372  18.993  0.00  0.00    +0.000 A 
ATOM     15  C   UNL     1       2.516   5.580  20.102  0.00  0.00    +0.000 A 
ATOM     16  C   UNL     1       1.603   6.323  20.790  0.00  0.00    +0.000 A 
ATOM     17  N   UNL     1       1.602   7.566  20.220  0.00  0.00    +0.000 N 
ATOM     18  N   UNL     1       2.307   7.580  19.054  0.00  0.00    +0.000 NA
BRANCH  17  19
ATOM     19  C   UNL     1       1.046   8.749  20.784  0.00  0.00    +0.000 A 
ATOM     20  C   UNL     1       0.839   9.878  19.972  0.00  0.00    +0.000 A 
ATOM     21  C   UNL     1       0.224  11.018  20.496  0.00  0.00    +0.000 A 
ATOM     22  C   UNL     1      -0.172  11.032  21.828  0.00  0.00    +0.000 A 
ATOM     23 CL   UNL     1      -0.937  12.435  22.467  0.00  0.00    +0.000 Cl
ATOM     24  C   UNL     1       0.041   9.918  22.647  0.00  0.00    +0.000 A 
ATOM     25  C   UNL     1       0.643   8.771  22.122  0.00  0.00    +0.000 A 
ENDBRANCH  17  19
ENDBRANCH   1  14
TORSDOF 5
ENDMDL
MODEL 3
REMARK VINA RESULT:      -7.6      2.029      2.644
REMARK  Name = 
REMARK  7 active torsions:
REMARK  status: ('A' for Active; 'I' for Inactive)
REMARK    1  A    between atoms: C_1  and  C_2
REMARK    2  A    between atoms: C_4  and  C_5
REMARK    3  A    between atoms: C_5  and  O_7
REMARK    4  A    between atoms: C_9  and  C_10
REMARK    5  A    between atoms: N_11  and  C_12
REMARK    6  A    between atoms: C_12  and  C_13
REMARK    7  A    between atoms: N_16  and  C_17
REMARK                            x       y       z     vdW  Elec       q    Type
REMARK                         _______ _______ _______ _____ _____    ______ ____
ROOT
ATOM      1  C   UNL     1       3.630   6.852  17.282  0.00  0.00    +0.000 C 
ENDROOT
BRANCH   1   9
ATOM      2  C   UNL     1       6.666   5.407  19.172  0.00  0.00    +0.000 C 
ATOM      3  C   UNL     1       5.901   6.188  18.093  0.00  0.00    +0.000 C 
ATOM      4  C   UNL     1       6.559   6.056  16.712  0.00  0.00    +0.000 C 
ATOM      5  C   UNL     1       6.376   4.648  16.139  0.00  0.00    +0.000 C 
ATOM      6  C   UNL     1       4.904   4.227  16.175  0.00  0.00    +0.000 C 
ATOM      7  C   UNL     1       4.261   4.480  17.557  0.00  0.00    +0.000 C 
ATOM      8  C   UNL     1       2.801   4.007  17.566  0.00  0.00    +0.000 C 
ATOM      9  N   UNL     1       4.458   5.871  18.052  0.00  0.00    +0.000 NA
BRANCH   5  10
ATOM     10  C   UNL     1       6.908   4.586  14.720  0.00  0.00    +0.000 C 
ATOM     11  O   UNL     1       7.695   5.384  14.235  0.00  0.00    +0.000 OA
BRANCH  10  12
ATOM     12  O   UNL     1       6.408   3.549  14.010  0.00  0.00    +0.000 OA
ATOM     13  H   UNL     1       5.619   3.131  14.402  0.00  0.00    +0.000 HD
ENDBRANCH  10  12
ENDBRANCH   5  10
ENDBRANCH   1   9
BRANCH   1  14
ATOM     14  C   UNL     1       2.665   7.709  18.083  0.00  0.00    +0.000 A 
ATOM     15  C   UNL     1       2.277   7.565  19.437  0.00  0.00    +0.000 A 
ATOM     16  C   UNL     1       1.475   8.634  19.707  0.00  0.00    +0.000 A 
ATOM     17  N   UNL     1       1.552   9.465  18.625  0.00  0.00    +0.000 N 
ATOM     18  N   UNL     1       2.188   8.863  17.580  0.00  0.00    +0.000 NA
BRANCH  17  19
ATOM     19  C   UNL     1       1.138  10.826  18.578  0.00  0.00    +0.000 A 
ATOM     20  C   UNL     1      -0.209  11.154  18.812  0.00  0.00    +0.000 A 
ATOM     21  C   UNL     1      -0.612  12.491  18.844  0.00  0.00    +0.000 A 
ATOM     22  C   UNL     1       0.325  13.494  18.632  0.00  0.00    +0.000 A 
ATOM     23 CL   UNL     1      -0.175  15.141  18.682  0.00  0.00    +0.000 Cl
ATOM     24  C   UNL     1       1.665  13.179  18.387  0.00  0.00    +0.000 A 
ATOM     25  C   UNL     1       2.075  11.842  18.368  0.00  0.00    +0.000 A 
ENDBRANCH  17  19
ENDBRANCH   1  14
TORSDOF 5
ENDMDL
MODEL 4
REMARK VINA RESULT:      -7.5      1.481      2.114
REMARK  Name = 
REMARK  7 active torsions:
REMARK  status: ('A' for Active; 'I' for Inactive)
REMARK    1  A    between atoms: C_1  and  C_2
REMARK    2  A    between atoms: C_4  and  C_5
REMARK    3  A    between atoms: C_5  and  O_7
REMARK    4  A    between atoms: C_9  and  C_10
REMARK    5  A    between atoms: N_11  and  C_12
REMARK    6  A    between atoms: C_12  and  C_13
REMARK    7  A    between atoms: N_16  and  C_17
REMARK                            x       y       z     vdW  Elec       q    Type
REMARK                         _______ _______ _______ _____ _____    ______ ____
ROOT
ATOM      1  C   UNL     1       3.846   6.374  17.572  0.00  0.00    +0.000 C 
ENDROOT
BRANCH   1   9
ATOM      2  C   UNL     1       7.343   5.541  18.974  0.00  0.00    +0.000 C 
ATOM      3  C   UNL     1       6.296   6.139  18.021  0.00  0.00    +0.000 C 
ATOM      4  C   UNL     1       6.746   6.067  16.555  0.00  0.00    +0.000 C 
ATOM      5  C   UNL     1       6.725   4.628  16.034  0.00  0.00    +0.000 C 
ATOM      6  C   UNL     1       5.373   3.963  16.308  0.00  0.00    +0.000 C 
ATOM      7  C   UNL     1       4.917   4.156  17.772  0.00  0.00    +0.000 C 
ATOM      8  C   UNL     1       3.581   3.442  18.017  0.00  0.00    +0.000 C 
ATOM      9  N   UNL     1       4.942   5.579  18.213  0.00  0.00    +0.000 NA
BRANCH   5  10
ATOM     10  C   UNL     1       7.035   4.602  14.550  0.00  0.00    +0.000 C 
ATOM     11  O   UNL     1       7.704   5.438  13.962  0.00  0.00    +0.000 OA
BRANCH  10  12
ATOM     12  O   UNL     1       6.476   3.551  13.909  0.00  0.00    +0.000 OA
ATOM     13  H   UNL     1       5.587   3.722  13.545  0.00  0.00    +0.000 HD
ENDBRANCH  10  12
ENDBRANCH   5  10
ENDBRANCH   1   9
BRANCH   1  14
ATOM     14  C   UNL     1       2.850   7.038  18.506  0.00  0.00    +0.000 A 
ATOM     15  C   UNL     1       2.589   6.746  19.867  0.00  0.00    +0.000 A 
ATOM     16  C   UNL     1       1.686   7.681  20.279  0.00  0.00    +0.000 A 
ATOM     17  N   UNL     1       1.577   8.593  19.267  0.00  0.00    +0.000 N 
ATOM     18  N   UNL     1       2.197   8.156  18.134  0.00  0.00    +0.000 NA
BRANCH  17  19
ATOM     19  C   UNL     1       0.997   9.890  19.361  0.00  0.00    +0.000 A 
ATOM     20  C   UNL     1      -0.011  10.136  20.310  0.00  0.00    +0.000 A 
ATOM     21  C   UNL     1      -0.533  11.423  20.464  0.00  0.00    +0.000 A 
ATOM     22  C   UNL     1      -0.057  12.455  19.665  0.00  0.00    +0.000 A 
ATOM     23 CL   UNL     1      -0.696  14.041  19.864  0.00  0.00    +0.000 Cl
ATOM     24  C   UNL     1       0.937  12.218  18.710  0.00  0.00    +0.000 A 
ATOM     25  C   UNL     1       1.472  10.935  18.563  0.00  0.00    +0.000 A 
ENDBRANCH  17  19
ENDBRANCH   1  14
TORSDOF 5
ENDMDL
MODEL 5
REMARK VINA RESULT:      -7.5      2.035      2.562
REMARK  Name = 
REMARK  7 active torsions:
REMARK  status: ('A' for Active; 'I' for Inactive)
REMARK    1  A    between atoms: C_1  and  C_2
REMARK    2  A    between atoms: C_4  and  C_5
REMARK    3  A    between atoms: C_5  and  O_7
REMARK    4  A    between atoms: C_9  and  C_10
REMARK    5  A    between atoms: N_11  and  C_12
REMARK    6  A    between atoms: C_12  and  C_13
REMARK    7  A    between atoms: N_16  and  C_17
REMARK                            x       y       z     vdW  Elec       q    Type
REMARK                         _______ _______ _______ _____ _____    ______ ____
ROOT
ATOM      1  C   UNL     1       3.679   6.981  17.302  0.00  0.00    +0.000 C 
ENDROOT
BRANCH   1   9
ATOM      2  C   UNL     1       6.686   5.376  19.108  0.00  0.00    +0.000 C 
ATOM      3  C   UNL     1       5.934   6.201  18.053  0.00  0.00    +0.000 C 
ATOM      4  C   UNL     1       6.550   6.046  16.655  0.00  0.00    +0.000 C 
ATOM      5  C   UNL     1       6.285   4.653  16.079  0.00  0.00    +0.000 C 
ATOM      6  C   UNL     1       4.795   4.304  16.150  0.00  0.00    +0.000 C 
ATOM      7  C   UNL     1       4.199   4.578  17.549  0.00  0.00    +0.000 C 
ATOM      8  C   UNL     1       2.719   4.178  17.591  0.00  0.00    +0.000 C 
ATOM      9  N   UNL     1       4.476   5.955  18.046  0.00  0.00    +0.000 NA
BRANCH   5  10
ATOM     10  C   UNL     1       6.779   4.574  14.648  0.00  0.00    +0.000 C 
ATOM     11  O   UNL     1       6.357   3.795  13.807  0.00  0.00    +0.000 OA
BRANCH  10  12
ATOM     12  O   UNL     1       7.769   5.454  14.378  0.00  0.00    +0.000 OA
ATOM     13  H   UNL     1       7.946   6.098  15.089  0.00  0.00    +0.000 HD
ENDBRANCH  10  12
ENDBRANCH   5  10
ENDBRANCH   1   9
BRANCH   1  14
ATOM     14  C   UNL     1       2.679   7.787  18.111  0.00  0.00    +0.000 A 
ATOM     15  C   UNL     1       2.225   7.555  19.433  0.00  0.00    +0.000 A 
ATOM     16  C   UNL     1       1.414   8.609  19.735  0.00  0.00    +0.000 A 
ATOM     17  N   UNL     1       1.547   9.510  18.717  0.00  0.00    +0.000 N 
ATOM     18  N   UNL     1       2.230   8.976  17.665  0.00  0.00    +0.000 NA
BRANCH  17  19
ATOM     19  C   UNL     1       1.139  10.874  18.742  0.00  0.00    +0.000 A 
ATOM     20  C   UNL     1       2.052  11.882  18.383  0.00  0.00    +0.000 A 
ATOM     21  C   UNL     1       1.641  13.216  18.330  0.00  0.00    +0.000 A 
ATOM     22  C   UNL     1       0.328  13.542  18.645  0.00  0.00    +0.000 A 
ATOM     23 CL   UNL     1      -0.176  15.186  18.569  0.00  0.00    +0.000 Cl
ATOM     24  C   UNL     1      -0.585  12.548  19.014  0.00  0.00    +0.000 A 
ATOM     25  C   UNL     1      -0.181  11.210  19.055  0.00  0.00    +0.000 A 
ENDBRANCH  17  19
ENDBRANCH   1  14
TORSDOF 5
ENDMDL
MODEL 6
REMARK VINA RESULT:      -7.4      1.337      1.678
REMARK  Name = 
REMARK  7 active torsions:
REMARK  status: ('A' for Active; 'I' for Inactive)
REMARK    1  A    between atoms: C_1  and  C_2
REMARK    2  A    between atoms: C_4  and  C_5
REMARK    3  A    between atoms: C_5  and  O_7
REMARK    4  A    between atoms: C_9  and  C_10
REMARK    5  A    between atoms: N_11  and  C_12
REMARK    6  A    between atoms: C_12  and  C_13
REMARK    7  A    between atoms: N_16  and  C_17
REMARK                            x       y       z     vdW  Elec       q    Type
REMARK                         _______ _______ _______ _____ _____    ______ ____
ROOT
ATOM      1  C   UNL     1       3.893   6.317  17.605  0.00  0.00    +0.000 C 
ENDROOT
BRANCH   1   9
ATOM      2  C   UNL     1       7.465   5.540  18.836  0.00  0.00    +0.000 C 
ATOM      3  C   UNL     1       6.365   6.127  17.939  0.00  0.00    +0.000 C 
ATOM      4  C   UNL     1       6.749   6.080  16.453  0.00  0.00    +0.000 C 
ATOM      5  C   UNL     1       6.733   4.647  15.917  0.00  0.00    +0.000 C 
ATOM      6  C   UNL     1       5.407   3.953  16.244  0.00  0.00    +0.000 C 
ATOM      7  C   UNL     1       5.014   4.119  17.729  0.00  0.00    +0.000 C 
ATOM      8  C   UNL     1       3.705   3.376  18.026  0.00  0.00    +0.000 C 
ATOM      9  N   UNL     1       5.032   5.537  18.185  0.00  0.00    +0.000 NA
BRANCH   5  10
ATOM     10  C   UNL     1       6.975   4.645  14.420  0.00  0.00    +0.000 C 
ATOM     11  O   UNL     1       6.429   3.894  13.626  0.00  0.00    +0.000 OA
BRANCH  10  12
ATOM     12  O   UNL     1       7.889   5.560  14.028  0.00  0.00    +0.000 OA
ATOM     13  H   UNL     1       7.771   6.446  14.419  0.00  0.00    +0.000 HD
ENDBRANCH  10  12
ENDBRANCH   5  10
ENDBRANCH   1   9
BRANCH   1  14
ATOM     14  C   UNL     1       2.884   6.886  18.588  0.00  0.00    +0.000 A 
ATOM     15  C   UNL     1       2.594   6.449  19.903  0.00  0.00    +0.000 A 
ATOM     16  C   UNL     1       1.692   7.343  20.399  0.00  0.00    +0.000 A 
ATOM     17  N   UNL     1       1.611   8.362  19.492  0.00  0.00    +0.000 N 
ATOM     18  N   UNL     1       2.250   8.046  18.330  0.00  0.00    +0.000 NA
BRANCH  17  19
ATOM     19  C   UNL     1       1.042   9.647  19.718  0.00  0.00    +0.000 A 
ATOM     20  C   UNL     1       0.984  10.580  18.668  0.00  0.00    +0.000 A 
ATOM     21  C   UNL     1       0.359  11.814  18.857  0.00  0.00    +0.000 A 
ATOM     22  C   UNL     1      -0.196  12.119  20.094  0.00  0.00    +0.000 A 
ATOM     23 CL   UNL     1      -0.973  13.638  20.321  0.00  0.00    +0.000 Cl
ATOM     24  C   UNL     1      -0.133  11.203  21.149  0.00  0.00    +0.000 A 
ATOM     25  C   UNL     1       0.479   9.960  20.959  0.00  0.00    +0.000 A 
ENDBRANCH  17  19
ENDBRANCH   1  14
TORSDOF 5
ENDMDL
MODEL 7
REMARK VINA RESULT:      -7.4      2.568      3.754
REMARK  Name = 
REMARK  7 active torsions:
REMARK  status: ('A' for Active; 'I' for Inactive)
REMARK    1  A    between atoms: C_1  and  C_2
REMARK    2  A    between atoms: C_4  and  C_5
REMARK    3  A    between atoms: C_5  and  O_7
REMARK    4  A    between atoms: C_9  and  C_10
REMARK    5  A    between atoms: N_11  and  C_12
REMARK    6  A    between atoms: C_12  and  C_13
REMARK    7  A    between atoms: N_16  and  C_17
REMARK                            x       y       z     vdW  Elec       q    Type
REMARK                         _______ _______ _______ _____ _____    ______ ____
ROOT
ATOM      1  C   UNL     1       2.889   6.678  19.411  0.00  0.00    +0.000 C 
ENDROOT
BRANCH   1   9
ATOM      2  C   UNL     1       1.261   3.861  17.338  0.00  0.00    +0.000 C 
ATOM      3  C   UNL     1       1.731   4.618  18.590  0.00  0.00    +0.000 C 
ATOM      4  C   UNL     1       2.255   3.667  19.674  0.00  0.00    +0.000 C 
ATOM      5  C   UNL     1       3.595   3.046  19.273  0.00  0.00    +0.000 C 
ATOM      6  C   UNL     1       4.596   4.126  18.849  0.00  0.00    +0.000 C 
ATOM      7  C   UNL     1       3.984   5.120  17.837  0.00  0.00    +0.000 C 
ATOM      8  C   UNL     1       5.028   6.159  17.406  0.00  0.00    +0.000 C 
ATOM      9  N   UNL     1       2.691   5.702  18.292  0.00  0.00    +0.000 NA
BRANCH   5  10
ATOM     10  C   UNL     1       4.157   2.225  20.418  0.00  0.00    +0.000 C 
ATOM     11  O   UNL     1       3.672   2.165  21.537  0.00  0.00    +0.000 OA
BRANCH  10  12
ATOM     12  O   UNL     1       5.287   1.559  20.089  0.00  0.00    +0.000 OA
ATOM     13  H   UNL     1       5.887   2.045  19.492  0.00  0.00    +0.000 HD
ENDBRANCH  10  12
ENDBRANCH   5  10
ENDBRANCH   1   9
BRANCH   1  14
ATOM     14  C   UNL     1       2.132   7.991  19.313  0.00  0.00    +0.000 A 
ATOM     15  C   UNL     1       1.701   8.674  18.150  0.00  0.00    +0.000 A 
ATOM     16  C   UNL     1       0.985   9.745  18.595  0.00  0.00    +0.000 A 
ATOM     17  N   UNL     1       0.837   9.585  19.944  0.00  0.00    +0.000 N 
ATOM     18  N   UNL     1       1.625   8.577  20.415  0.00  0.00    +0.000 NA
BRANCH  17  19
ATOM     19  C   UNL     1      -0.084  10.279  20.778  0.00  0.00    +0.000 A 
ATOM     20  C   UNL     1      -0.184   9.943  22.139  0.00  0.00    +0.000 A 
ATOM     21  C   UNL     1      -1.028  10.668  22.983  0.00  0.00    +0.000 A 
ATOM     22  C   UNL     1      -1.777  11.718  22.466  0.00  0.00    +0.000 A 
ATOM     23 CL   UNL     1      -2.809  12.615  23.511  0.00  0.00    +0.000 Cl
ATOM     24  C   UNL     1      -1.694  12.053  21.111  0.00  0.00    +0.000 A 
ATOM     25  C   UNL     1      -0.839  11.338  20.266  0.00  0.00    +0.000 A 
ENDBRANCH  17  19
ENDBRANCH   1  14
TORSDOF 5
ENDMDL
MODEL 8
REMARK VINA RESULT:      -7.3      2.595      3.689
REMARK  Name = 
REMARK  7 active torsions:
REMARK  status: ('A' for Active; 'I' for Inactive)
REMARK    1  A    between atoms: C_1  and  C_2
REMARK    2  A    between atoms: C_4  and  C_5
REMARK    3  A    between atoms: C_5  and  O_7
REMARK    4  A    between atoms: C_9  and  C_10
REMARK    5  A    between atoms: N_11  and  C_12
REMARK    6  A    between atoms: C_12  and  C_13
REMARK    7  A    between atoms: N_16  and  C_17
REMARK                            x       y       z     vdW  Elec       q    Type
REMARK                         _______ _______ _______ _____ _____    ______ ____
ROOT
ATOM      1  C   UNL     1       2.642   6.650  19.670  0.00  0.00    +0.000 C 
ENDROOT
BRANCH   1   9
ATOM      2  C   UNL     1       1.196   3.904  17.378  0.00  0.00    +0.000 C 
ATOM      3  C   UNL     1       1.615   4.592  18.687  0.00  0.00    +0.000 C 
ATOM      4  C   UNL     1       2.193   3.595  19.701  0.00  0.00    +0.000 C 
ATOM      5  C   UNL     1       3.570   3.090  19.264  0.00  0.00    +0.000 C 
ATOM      6  C   UNL     1       4.504   4.258  18.931  0.00  0.00    +0.000 C 
ATOM      7  C   UNL     1       3.836   5.286  17.992  0.00  0.00    +0.000 C 
ATOM      8  C   UNL     1       4.814   6.417  17.649  0.00  0.00    +0.000 C 
ATOM      9  N   UNL     1       2.508   5.752  18.480  0.00  0.00    +0.000 NA
BRANCH   5  10
ATOM     10  C   UNL     1       4.178   2.220  20.348  0.00  0.00    +0.000 C 
ATOM     11  O   UNL     1       3.785   2.169  21.503  0.00  0.00    +0.000 OA
BRANCH  10  12
ATOM     12  O   UNL     1       5.237   1.498  19.918  0.00  0.00    +0.000 OA
ATOM     13  H   UNL     1       5.588   0.862  20.570  0.00  0.00    +0.000 HD
ENDBRANCH  10  12
ENDBRANCH   5  10
ENDBRANCH   1   9
BRANCH   1  14
ATOM     14  C   UNL     1       2.005   8.025  19.563  0.00  0.00    +0.000 A 
ATOM     15  C   UNL     1       1.701   8.765  18.395  0.00  0.00    +0.000 A 
ATOM     16  C   UNL     1       1.054   9.885  18.825  0.00  0.00    +0.000 A 
ATOM     17  N   UNL     1       0.815   9.712  20.160  0.00  0.00    +0.000 N 
ATOM     18  N   UNL     1       1.487   8.630  20.649  0.00  0.00    +0.000 NA
BRANCH  17  19
ATOM     19  C   UNL     1      -0.090  10.465  20.958  0.00  0.00    +0.000 A 
ATOM     20  C   UNL     1      -0.899  11.447  20.359  0.00  0.00    +0.000 A 
ATOM     21  C   UNL     1      -1.845  12.139  21.118  0.00  0.00    +0.000 A 
ATOM     22  C   UNL     1      -1.974  11.859  22.473  0.00  0.00    +0.000 A 
ATOM     23 CL   UNL     1      -3.148  12.708  23.402  0.00  0.00    +0.000 Cl
ATOM     24  C   UNL     1      -1.167  10.893  23.081  0.00  0.00    +0.000 A 
ATOM     25  C   UNL     1      -0.229  10.188  22.321  0.00  0.00    +0.000 A 
ENDBRANCH  17  19
ENDBRANCH   1  14
TORSDOF 5
ENDMDL
MODEL 9
REMARK VINA RESULT:      -7.1      2.178      2.781
REMARK  Name = 
REMARK  7 active torsions:
REMARK  status: ('A' for Active; 'I' for Inactive)
REMARK    1  A    between atoms: C_1  and  C_2
REMARK    2  A    between atoms: C_4  and  C_5
REMARK    3  A    between atoms: C_5  and  O_7
REMARK    4  A    between atoms: C_9  and  C_10
REMARK    5  A    between atoms: N_11  and  C_12
REMARK    6  A    between atoms: C_12  and  C_13
REMARK    7  A    between atoms: N_16  and  C_17
REMARK                            x       y       z     vdW  Elec       q    Type
REMARK                         _______ _______ _______ _____ _____    ______ ____
ROOT
ATOM      1  C   UNL     1       2.480   6.428  18.437  0.00  0.00    +0.000 C 
ENDROOT
BRANCH   1   9
ATOM      2  C   UNL     1       6.032   5.211  19.322  0.00  0.00    +0.000 C 
ATOM      3  C   UNL     1       4.751   5.381  18.491  0.00  0.00    +0.000 C 
ATOM      4  C   UNL     1       4.379   4.095  17.739  0.00  0.00    +0.000 C 
ATOM      5  C   UNL     1       3.881   3.011  18.699  0.00  0.00    +0.000 C 
ATOM      6  C   UNL     1       2.771   3.550  19.607  0.00  0.00    +0.000 C 
ATOM      7  C   UNL     1       3.154   4.898  20.256  0.00  0.00    +0.000 C 
ATOM      8  C   UNL     1       2.037   5.383  21.189  0.00  0.00    +0.000 C 
ATOM      9  N   UNL     1       3.614   5.916  19.270  0.00  0.00    +0.000 NA
BRANCH   5  10
ATOM     10  C   UNL     1       3.388   1.807  17.920  0.00  0.00    +0.000 C 
ATOM     11  O   UNL     1       2.442   1.816  17.148  0.00  0.00    +0.000 OA
BRANCH  10  12
ATOM     12  O   UNL     1       4.096   0.684  18.175  0.00  0.00    +0.000 OA
ATOM     13  H   UNL     1       5.020   0.706  17.864  0.00  0.00    +0.000 HD
ENDBRANCH  10  12
ENDBRANCH   5  10
ENDBRANCH   1   9
BRANCH   1  14
ATOM     14  C   UNL     1       2.077   7.877  18.649  0.00  0.00    +0.000 A 
ATOM     15  C   UNL     1       1.944   8.904  17.683  0.00  0.00    +0.000 A 
ATOM     16  C   UNL     1       1.467   9.988  18.359  0.00  0.00    +0.000 A 
ATOM     17  N   UNL     1       1.149   9.556  19.616  0.00  0.00    +0.000 N 
ATOM     18  N   UNL     1       1.618   8.296  19.844  0.00  0.00    +0.000 NA
BRANCH  17  19
ATOM     19  C   UNL     1       0.343  10.247  20.564  0.00  0.00    +0.000 A 
ATOM     20  C   UNL     1      -0.333  11.419  20.183  0.00  0.00    +0.000 A 
ATOM     21  C   UNL     1      -1.187  12.063  21.081  0.00  0.00    +0.000 A 
ATOM     22  C   UNL     1      -1.355  11.544  22.359  0.00  0.00    +0.000 A 
ATOM     23 CL   UNL     1      -2.415  12.335  23.460  0.00  0.00    +0.000 Cl
ATOM     24  C   UNL     1      -0.678  10.385  22.753  0.00  0.00    +0.000 A 
ATOM     25  C   UNL     1       0.167   9.730  21.851  0.00  0.00    +0.000 A 
ENDBRANCH  17  19
ENDBRANCH   1  14
TORSDOF 5
ENDMDL
