MODEL 1
REMARK VINA RESULT:      -7.7      0.000      0.000
REMARK  Name = 
REMARK  9 active torsions:
REMARK  status: ('A' for Active; 'I' for Inactive)
REMARK    1  A    between atoms: C_1  and  O_2
REMARK    2  A    between atoms: O_2  and  C_3
REMARK    3  A    between atoms: C_6  and  C_7
REMARK    4  A    between atoms: C_10  and  C_12
REMARK    5  A    between atoms: C_15  and  O_16
REMARK    6  A    between atoms: O_16  and  C_17
REMARK    7  A    between atoms: C_18  and  O_19
REMARK    8  A    between atoms: O_19  and  C_20
REMARK    9  A    between atoms: C_22  and  C_23
REMARK                            x       y       z     vdW  Elec       q    Type
REMARK                         _______ _______ _______ _____ _____    ______ ____
ROOT
ATOM      1  C   UNL     1      -1.754  10.917  18.626  0.00  0.00    +0.000 C 
ATOM      2  N   UNL     1      -0.830  10.089  18.987  0.00  0.00    +0.000 NA
ATOM      3  N   UNL     1      -0.224  10.601  20.095  0.00  0.00    +0.000 N 
ATOM      4  C   UNL     1       0.784   9.939  20.777  0.00  0.00    +0.000 C 
ATOM      5  O   UNL     1       1.201  10.301  21.876  0.00  0.00    +0.000 OA
ATOM      6  C   UNL     1      -0.822  11.850  20.542  0.00  0.00    +0.000 C 
ATOM      7  C   UNL     1      -1.961  12.088  19.540  0.00  0.00    +0.000 C 
ENDROOT
BRANCH   6   8
ATOM      8  C   UNL     1       0.118  13.039  20.522  0.00  0.00    +0.000 A 
ATOM      9  C   UNL     1       0.437  13.763  21.701  0.00  0.00    +0.000 A 
ATOM     10  C   UNL     1       1.508  14.658  21.730  0.00  0.00    +0.000 A 
ATOM     11  C   UNL     1       2.255  14.773  20.581  0.00  0.00    +0.000 A 
ATOM     12  C   UNL     1       1.903  14.136  19.411  0.00  0.00    +0.000 A 
ATOM     13  C   UNL     1       0.823  13.293  19.335  0.00  0.00    +0.000 A 
ATOM     14  O   UNL     1       2.824  14.322  18.425  0.00  0.00    +0.000 OA
ATOM     15  C   UNL     1       3.915  14.802  19.234  0.00  0.00    +0.000 C 
ATOM     16  O   UNL     1       3.460  15.401  20.466  0.00  0.00    +0.000 OA
ENDBRANCH   6   8
BRANCH   1  20
ATOM     17  C   UNL     1      -3.866  10.329  14.966  0.00  0.00    +0.000 A 
ATOM     18  C   UNL     1      -4.400  11.167  15.949  0.00  0.00    +0.000 A 
ATOM     19  C   UNL     1      -3.720  11.385  17.150  0.00  0.00    +0.000 A 
ATOM     20  C   UNL     1      -2.512  10.732  17.377  0.00  0.00    +0.000 A 
ATOM     21  C   UNL     1      -1.984   9.871  16.404  0.00  0.00    +0.000 A 
ATOM     22  C   UNL     1      -2.658   9.674  15.198  0.00  0.00    +0.000 A 
BRANCH  17  24
ATOM     23  C   UNL     1      -3.936   9.776  12.670  0.00  0.00    +0.000 C 
ATOM     24  O   UNL     1      -4.630  10.196  13.839  0.00  0.00    +0.000 OA
ENDBRANCH  17  24
ENDBRANCH   1  20
BRANCH   4  25
ATOM     25  C   UNL     1       1.385   8.716  20.148  0.00  0.00    +0.000 A 
ATOM     26  C   UNL     1       1.961   8.844  18.885  0.00  0.00    +0.000 A 
ATOM     27  C   UNL     1       2.590   7.745  18.295  0.00  0.00    +0.000 A 
ATOM     28  C   UNL     1       2.655   6.509  18.947  0.00  0.00    +0.000 A 
ATOM     29  C   UNL     1       2.067   6.367  20.215  0.00  0.00    +0.000 A 
ATOM     30  C   UNL     1       1.402   7.464  20.774  0.00  0.00    +0.000 A 
BRANCH  28  31
ATOM     31  O   UNL     1       3.333   5.450  18.407  0.00  0.00    +0.000 OA
ATOM     32  C   UNL     1       4.678   5.301  18.847  0.00  0.00    +0.000 C 
ENDBRANCH  28  31
BRANCH  29  33
ATOM     33  O   UNL     1       2.041   5.272  21.038  0.00  0.00    +0.000 OA
ATOM     34  C   UNL     1       1.233   4.162  20.678  0.00  0.00    +0.000 C 
ENDBRANCH  29  33
ENDBRANCH   4  25
TORSDOF 6
ENDMDL
MODEL 2
REMARK VINA RESULT:      -7.7      0.910      1.696
REMARK  Name = 
REMARK  9 active torsions:
REMARK  status: ('A' for Active; 'I' for Inactive)
REMARK    1  A    between atoms: C_1  and  O_2
REMARK    2  A    between atoms: O_2  and  C_3
REMARK    3  A    between atoms: C_6  and  C_7
REMARK    4  A    between atoms: C_10  and  C_12
REMARK    5  A    between atoms: C_15  and  O_16
REMARK    6  A    between atoms: O_16  and  C_17
REMARK    7  A    between atoms: C_18  and  O_19
REMARK    8  A    between atoms: O_19  and  C_20
REMARK    9  A    between atoms: C_22  and  C_23
REMARK                            x       y       z     vdW  Elec       q    Type
REMARK                         _______ _______ _______ _____ _____    ______ ____
ROOT
ATOM      1  C   UNL     1      -1.576  10.697  18.916  0.00  0.00    +0.000 C 
ATOM      2  N   UNL     1      -0.678   9.824  19.234  0.00  0.00    +0.000 NA
ATOM      3  N   UNL     1      -0.068  10.254  20.374  0.00  0.00    +0.000 N 
ATOM      4  C   UNL     1       0.916   9.525  21.022  0.00  0.00    +0.000 C 
ATOM      5  O   UNL     1       1.334   9.812  22.143  0.00  0.00    +0.000 OA
ATOM      6  C   UNL     1      -0.635  11.491  20.889  0.00  0.00    +0.000 C 
ATOM      7  C   UNL     1      -1.758  11.819  19.894  0.00  0.00    +0.000 C 
ENDROOT
BRANCH   6   8
ATOM      8  C   UNL     1       0.338  12.653  20.943  0.00  0.00    +0.000 A 
ATOM      9  C   UNL     1       1.300  12.874  19.923  0.00  0.00    +0.000 A 
ATOM     10  C   UNL     1       1.986  14.086  19.829  0.00  0.00    +0.000 A 
ATOM     11  C   UNL     1       1.659  15.060  20.743  0.00  0.00    +0.000 A 
ATOM     12  C   UNL     1       0.787  14.824  21.784  0.00  0.00    +0.000 A 
ATOM     13  C   UNL     1       0.138  13.625  21.936  0.00  0.00    +0.000 A 
ATOM     14  O   UNL     1       0.544  15.946  22.517  0.00  0.00    +0.000 OA
ATOM     15  C   UNL     1       1.050  16.926  21.590  0.00  0.00    +0.000 C 
ATOM     16  O   UNL     1       2.031  16.371  20.689  0.00  0.00    +0.000 OA
ENDBRANCH   6   8
BRANCH   1  20
ATOM     17  C   UNL     1      -3.836  10.489  15.302  0.00  0.00    +0.000 A 
ATOM     18  C   UNL     1      -2.663   9.739  15.432  0.00  0.00    +0.000 A 
ATOM     19  C   UNL     1      -1.914   9.781  16.612  0.00  0.00    +0.000 A 
ATOM     20  C   UNL     1      -2.329  10.606  17.653  0.00  0.00    +0.000 A 
ATOM     21  C   UNL     1      -3.491  11.380  17.517  0.00  0.00    +0.000 A 
ATOM     22  C   UNL     1      -4.246  11.317  16.345  0.00  0.00    +0.000 A 
BRANCH  17  24
ATOM     23  C   UNL     1      -3.695   9.815  13.042  0.00  0.00    +0.000 C 
ATOM     24  O   UNL     1      -4.474  10.364  14.099  0.00  0.00    +0.000 OA
ENDBRANCH  17  24
ENDBRANCH   1  20
BRANCH   4  25
ATOM     25  C   UNL     1       1.488   8.324  20.328  0.00  0.00    +0.000 A 
ATOM     26  C   UNL     1       2.048   8.503  19.064  0.00  0.00    +0.000 A 
ATOM     27  C   UNL     1       2.650   7.423  18.413  0.00  0.00    +0.000 A 
ATOM     28  C   UNL     1       2.705   6.157  19.005  0.00  0.00    +0.000 A 
ATOM     29  C   UNL     1       2.133   5.965  20.275  0.00  0.00    +0.000 A 
ATOM     30  C   UNL     1       1.494   7.044  20.895  0.00  0.00    +0.000 A 
BRANCH  28  31
ATOM     31  O   UNL     1       3.358   5.115  18.407  0.00  0.00    +0.000 OA
ATOM     32  C   UNL     1       4.740   4.998  18.725  0.00  0.00    +0.000 C 
ENDBRANCH  28  31
BRANCH  29  33
ATOM     33  O   UNL     1       2.101   4.833  21.045  0.00  0.00    +0.000 OA
ATOM     34  C   UNL     1       1.174   3.808  20.722  0.00  0.00    +0.000 C 
ENDBRANCH  29  33
ENDBRANCH   4  25
TORSDOF 6
ENDMDL
MODEL 3
REMARK VINA RESULT:      -7.5      1.969      7.315
REMARK  Name = 
REMARK  9 active torsions:
REMARK  status: ('A' for Active; 'I' for Inactive)
REMARK    1  A    between atoms: C_1  and  O_2
REMARK    2  A    between atoms: O_2  and  C_3
REMARK    3  A    between atoms: C_6  and  C_7
REMARK    4  A    between atoms: C_10  and  C_12
REMARK    5  A    between atoms: C_15  and  O_16
REMARK    6  A    between atoms: O_16  and  C_17
REMARK    7  A    between atoms: C_18  and  O_19
REMARK    8  A    between atoms: O_19  and  C_20
REMARK    9  A    between atoms: C_22  and  C_23
REMARK                            x       y       z     vdW  Elec       q    Type
REMARK                         _______ _______ _______ _____ _____    ______ ____
ROOT
ATOM      1  C   UNL     1       0.873   9.876  19.644  0.00  0.00    +0.000 C 
ATOM      2  N   UNL     1       1.369  11.069  19.629  0.00  0.00    +0.000 NA
ATOM      3  N   UNL     1       0.356  11.943  19.890  0.00  0.00    +0.000 N 
ATOM      4  C   UNL     1       0.550  13.310  19.999  0.00  0.00    +0.000 C 
ATOM      5  O   UNL     1      -0.315  14.078  20.418  0.00  0.00    +0.000 OA
ATOM      6  C   UNL     1      -0.912  11.279  20.150  0.00  0.00    +0.000 C 
ATOM      7  C   UNL     1      -0.573   9.785  20.032  0.00  0.00    +0.000 C 
ENDROOT
BRANCH   6   8
ATOM      8  C   UNL     1      -2.013  11.620  19.164  0.00  0.00    +0.000 A 
ATOM      9  C   UNL     1      -1.922  11.277  17.790  0.00  0.00    +0.000 A 
ATOM     10  C   UNL     1      -3.042  11.330  16.958  0.00  0.00    +0.000 A 
ATOM     11  C   UNL     1      -4.234  11.691  17.540  0.00  0.00    +0.000 A 
ATOM     12  C   UNL     1      -4.313  12.103  18.852  0.00  0.00    +0.000 A 
ATOM     13  C   UNL     1      -3.220  12.115  19.681  0.00  0.00    +0.000 A 
ATOM     14  O   UNL     1      -5.598  12.333  19.243  0.00  0.00    +0.000 OA
ATOM     15  C   UNL     1      -6.278  11.660  18.166  0.00  0.00    +0.000 C 
ATOM     16  O   UNL     1      -5.470  11.583  16.973  0.00  0.00    +0.000 OA
ENDBRANCH   6   8
BRANCH   1  20
ATOM     17  C   UNL     1       3.203   6.511  18.437  0.00  0.00    +0.000 A 
ATOM     18  C   UNL     1       2.604   6.524  19.700  0.00  0.00    +0.000 A 
ATOM     19  C   UNL     1       1.825   7.609  20.111  0.00  0.00    +0.000 A 
ATOM     20  C   UNL     1       1.675   8.701  19.262  0.00  0.00    +0.000 A 
ATOM     21  C   UNL     1       2.295   8.704  18.004  0.00  0.00    +0.000 A 
ATOM     22  C   UNL     1       3.054   7.609  17.590  0.00  0.00    +0.000 A 
BRANCH  17  24
ATOM     23  C   UNL     1       3.197   4.242  17.782  0.00  0.00    +0.000 C 
ATOM     24  O   UNL     1       3.941   5.395  18.156  0.00  0.00    +0.000 OA
ENDBRANCH  17  24
ENDBRANCH   1  20
BRANCH   4  25
ATOM     25  C   UNL     1       1.881  13.875  19.598  0.00  0.00    +0.000 A 
ATOM     26  C   UNL     1       2.093  14.155  18.249  0.00  0.00    +0.000 A 
ATOM     27  C   UNL     1       3.294  14.745  17.844  0.00  0.00    +0.000 A 
ATOM     28  C   UNL     1       4.295  15.062  18.768  0.00  0.00    +0.000 A 
ATOM     29  C   UNL     1       4.094  14.773  20.129  0.00  0.00    +0.000 A 
ATOM     30  C   UNL     1       2.905  14.142  20.513  0.00  0.00    +0.000 A 
BRANCH  28  31
ATOM     31  O   UNL     1       5.441  15.707  18.389  0.00  0.00    +0.000 OA
ATOM     32  C   UNL     1       6.470  14.868  17.876  0.00  0.00    +0.000 C 
ENDBRANCH  28  31
BRANCH  29  33
ATOM     33  O   UNL     1       4.914  15.026  21.196  0.00  0.00    +0.000 OA
ATOM     34  C   UNL     1       4.997  14.068  22.240  0.00  0.00    +0.000 C 
ENDBRANCH  29  33
ENDBRANCH   4  25
TORSDOF 6
ENDMDL
MODEL 4
REMARK VINA RESULT:      -7.5      0.763      1.604
REMARK  Name = 
REMARK  9 active torsions:
REMARK  status: ('A' for Active; 'I' for Inactive)
REMARK    1  A    between atoms: C_1  and  O_2
REMARK    2  A    between atoms: O_2  and  C_3
REMARK    3  A    between atoms: C_6  and  C_7
REMARK    4  A    between atoms: C_10  and  C_12
REMARK    5  A    between atoms: C_15  and  O_16
REMARK    6  A    between atoms: O_16  and  C_17
REMARK    7  A    between atoms: C_18  and  O_19
REMARK    8  A    between atoms: O_19  and  C_20
REMARK    9  A    between atoms: C_22  and  C_23
REMARK                            x       y       z     vdW  Elec       q    Type
REMARK                         _______ _______ _______ _____ _____    ______ ____
ROOT
ATOM      1  C   UNL     1      -1.690  10.943  18.673  0.00  0.00    +0.000 C 
ATOM      2  N   UNL     1      -0.797  10.111  19.098  0.00  0.00    +0.000 NA
ATOM      3  N   UNL     1      -0.182  10.676  20.174  0.00  0.00    +0.000 N 
ATOM      4  C   UNL     1       0.798  10.029  20.908  0.00  0.00    +0.000 C 
ATOM      5  O   UNL     1       1.220  10.452  21.984  0.00  0.00    +0.000 OA
ATOM      6  C   UNL     1      -0.741  11.972  20.530  0.00  0.00    +0.000 C 
ATOM      7  C   UNL     1      -1.864  12.179  19.503  0.00  0.00    +0.000 C 
ENDROOT
BRANCH   6   8
ATOM      8  C   UNL     1       0.239  13.126  20.437  0.00  0.00    +0.000 A 
ATOM      9  C   UNL     1       0.653  13.852  21.585  0.00  0.00    +0.000 A 
ATOM     10  C   UNL     1       1.756  14.706  21.538  0.00  0.00    +0.000 A 
ATOM     11  C   UNL     1       2.437  14.780  20.347  0.00  0.00    +0.000 A 
ATOM     12  C   UNL     1       1.994  14.142  19.209  0.00  0.00    +0.000 A 
ATOM     13  C   UNL     1       0.881  13.339  19.208  0.00  0.00    +0.000 A 
ATOM     14  O   UNL     1       2.862  14.282  18.168  0.00  0.00    +0.000 OA
ATOM     15  C   UNL     1       4.015  14.731  18.905  0.00  0.00    +0.000 C 
ATOM     16  O   UNL     1       3.655  15.362  20.152  0.00  0.00    +0.000 OA
ENDBRANCH   6   8
BRANCH   1  20
ATOM     17  C   UNL     1      -3.796  10.175  15.042  0.00  0.00    +0.000 A 
ATOM     18  C   UNL     1      -4.294  11.116  15.948  0.00  0.00    +0.000 A 
ATOM     19  C   UNL     1      -3.614  11.394  17.137  0.00  0.00    +0.000 A 
ATOM     20  C   UNL     1      -2.445  10.698  17.432  0.00  0.00    +0.000 A 
ATOM     21  C   UNL     1      -1.955   9.735  16.537  0.00  0.00    +0.000 A 
ATOM     22  C   UNL     1      -2.627   9.478  15.342  0.00  0.00    +0.000 A 
BRANCH  17  24
ATOM     23  C   UNL     1      -3.833   9.879  12.699  0.00  0.00    +0.000 C 
ATOM     24  O   UNL     1      -4.555   9.993  13.919  0.00  0.00    +0.000 OA
ENDBRANCH  17  24
ENDBRANCH   1  20
BRANCH   4  25
ATOM     25  C   UNL     1       1.362   8.747  20.369  0.00  0.00    +0.000 A 
ATOM     26  C   UNL     1       1.177   7.585  21.116  0.00  0.00    +0.000 A 
ATOM     27  C   UNL     1       1.629   6.361  20.617  0.00  0.00    +0.000 A 
ATOM     28  C   UNL     1       2.267   6.274  19.375  0.00  0.00    +0.000 A 
ATOM     29  C   UNL     1       2.467   7.442  18.620  0.00  0.00    +0.000 A 
ATOM     30  C   UNL     1       2.050   8.666  19.152  0.00  0.00    +0.000 A 
BRANCH  28  31
ATOM     31  O   UNL     1       2.644   5.069  18.847  0.00  0.00    +0.000 OA
ATOM     32  C   UNL     1       1.655   4.409  18.066  0.00  0.00    +0.000 C 
ENDBRANCH  28  31
BRANCH  29  33
ATOM     33  O   UNL     1       3.032   7.582  17.379  0.00  0.00    +0.000 OA
ATOM     34  C   UNL     1       4.378   7.176  17.188  0.00  0.00    +0.000 C 
ENDBRANCH  29  33
ENDBRANCH   4  25
TORSDOF 6
ENDMDL
MODEL 5
REMARK VINA RESULT:      -7.4      3.068      7.550
REMARK  Name = 
REMARK  9 active torsions:
REMARK  status: ('A' for Active; 'I' for Inactive)
REMARK    1  A    between atoms: C_1  and  O_2
REMARK    2  A    between atoms: O_2  and  C_3
REMARK    3  A    between atoms: C_6  and  C_7
REMARK    4  A    between atoms: C_10  and  C_12
REMARK    5  A    between atoms: C_15  and  O_16
REMARK    6  A    between atoms: O_16  and  C_17
REMARK    7  A    between atoms: C_18  and  O_19
REMARK    8  A    between atoms: O_19  and  C_20
REMARK    9  A    between atoms: C_22  and  C_23
REMARK                            x       y       z     vdW  Elec       q    Type
REMARK                         _______ _______ _______ _____ _____    ______ ____
ROOT
ATOM      1  C   UNL     1      -1.068  11.916  20.289  0.00  0.00    +0.000 C 
ATOM      2  N   UNL     1      -0.029  12.669  20.137  0.00  0.00    +0.000 NA
ATOM      3  N   UNL     1       0.842  12.014  19.319  0.00  0.00    +0.000 N 
ATOM      4  C   UNL     1       2.045  12.562  18.905  0.00  0.00    +0.000 C 
ATOM      5  O   UNL     1       2.742  12.062  18.024  0.00  0.00    +0.000 OA
ATOM      6  C   UNL     1       0.324  10.740  18.845  0.00  0.00    +0.000 C 
ATOM      7  C   UNL     1      -1.071  10.653  19.481  0.00  0.00    +0.000 C 
ENDROOT
BRANCH   6   8
ATOM      8  C   UNL     1       1.141   9.533  19.267  0.00  0.00    +0.000 A 
ATOM      9  C   UNL     1       1.024   8.965  20.563  0.00  0.00    +0.000 A 
ATOM     10  C   UNL     1       1.550   7.704  20.847  0.00  0.00    +0.000 A 
ATOM     11  C   UNL     1       2.147   7.029  19.808  0.00  0.00    +0.000 A 
ATOM     12  C   UNL     1       2.335   7.607  18.572  0.00  0.00    +0.000 A 
ATOM     13  C   UNL     1       1.880   8.867  18.277  0.00  0.00    +0.000 A 
ATOM     14  O   UNL     1       2.870   6.735  17.672  0.00  0.00    +0.000 OA
ATOM     15  C   UNL     1       2.624   5.508  18.385  0.00  0.00    +0.000 C 
ATOM     16  O   UNL     1       2.512   5.715  19.808  0.00  0.00    +0.000 OA
ENDBRANCH   6   8
BRANCH   1  20
ATOM     17  C   UNL     1      -4.237  12.993  22.936  0.00  0.00    +0.000 A 
ATOM     18  C   UNL     1      -3.118  12.316  23.431  0.00  0.00    +0.000 A 
ATOM     19  C   UNL     1      -2.062  11.965  22.585  0.00  0.00    +0.000 A 
ATOM     20  C   UNL     1      -2.146  12.268  21.229  0.00  0.00    +0.000 A 
ATOM     21  C   UNL     1      -3.278  12.924  20.724  0.00  0.00    +0.000 A 
ATOM     22  C   UNL     1      -4.319  13.290  21.577  0.00  0.00    +0.000 A 
BRANCH  17  24
ATOM     23  C   UNL     1      -6.447  12.613  23.679  0.00  0.00    +0.000 C 
ATOM     24  O   UNL     1      -5.201  13.275  23.864  0.00  0.00    +0.000 OA
ENDBRANCH  17  24
ENDBRANCH   1  20
BRANCH   4  25
ATOM     25  C   UNL     1       2.510  13.832  19.556  0.00  0.00    +0.000 A 
ATOM     26  C   UNL     1       2.491  15.001  18.797  0.00  0.00    +0.000 A 
ATOM     27  C   UNL     1       2.853  16.216  19.386  0.00  0.00    +0.000 A 
ATOM     28  C   UNL     1       3.237  16.286  20.730  0.00  0.00    +0.000 A 
ATOM     29  C   UNL     1       3.270  15.110  21.499  0.00  0.00    +0.000 A 
ATOM     30  C   UNL     1       2.948  13.895  20.884  0.00  0.00    +0.000 A 
BRANCH  28  31
ATOM     31  O   UNL     1       3.521  17.481  21.332  0.00  0.00    +0.000 OA
ATOM     32  C   UNL     1       4.820  18.000  21.073  0.00  0.00    +0.000 C 
ENDBRANCH  28  31
BRANCH  29  33
ATOM     33  O   UNL     1       3.578  14.953  22.824  0.00  0.00    +0.000 OA
ATOM     34  C   UNL     1       4.936  14.766  23.195  0.00  0.00    +0.000 C 
ENDBRANCH  29  33
ENDBRANCH   4  25
TORSDOF 6
ENDMDL
MODEL 6
REMARK VINA RESULT:      -7.4      2.965      7.660
REMARK  Name = 
REMARK  9 active torsions:
REMARK  status: ('A' for Active; 'I' for Inactive)
REMARK    1  A    between atoms: C_1  and  O_2
REMARK    2  A    between atoms: O_2  and  C_3
REMARK    3  A    between atoms: C_6  and  C_7
REMARK    4  A    between atoms: C_10  and  C_12
REMARK    5  A    between atoms: C_15  and  O_16
REMARK    6  A    between atoms: O_16  and  C_17
REMARK    7  A    between atoms: C_18  and  O_19
REMARK    8  A    between atoms: O_19  and  C_20
REMARK    9  A    between atoms: C_22  and  C_23
REMARK                            x       y       z     vdW  Elec       q    Type
REMARK                         _______ _______ _______ _____ _____    ______ ____
ROOT
ATOM      1  C   UNL     1      -1.215  11.950  19.855  0.00  0.00    +0.000 C 
ATOM      2  N   UNL     1      -0.191  12.731  19.745  0.00  0.00    +0.000 NA
ATOM      3  N   UNL     1       0.757  12.073  19.021  0.00  0.00    +0.000 N 
ATOM      4  C   UNL     1       1.969  12.645  18.671  0.00  0.00    +0.000 C 
ATOM      5  O   UNL     1       2.744  12.132  17.865  0.00  0.00    +0.000 OA
ATOM      6  C   UNL     1       0.316  10.762  18.569  0.00  0.00    +0.000 C 
ATOM      7  C   UNL     1      -1.118  10.654  19.107  0.00  0.00    +0.000 C 
ENDROOT
BRANCH   6   8
ATOM      8  C   UNL     1       1.138   9.604  19.103  0.00  0.00    +0.000 A 
ATOM      9  C   UNL     1       0.982   9.123  20.429  0.00  0.00    +0.000 A 
ATOM     10  C   UNL     1       1.519   7.895  20.818  0.00  0.00    +0.000 A 
ATOM     11  C   UNL     1       2.168   7.164  19.851  0.00  0.00    +0.000 A 
ATOM     12  C   UNL     1       2.392   7.660  18.585  0.00  0.00    +0.000 A 
ATOM     13  C   UNL     1       1.926   8.888  18.189  0.00  0.00    +0.000 A 
ATOM     14  O   UNL     1       2.976   6.741  17.767  0.00  0.00    +0.000 OA
ATOM     15  C   UNL     1       2.725   5.560  18.553  0.00  0.00    +0.000 C 
ATOM     16  O   UNL     1       2.555   5.861  19.954  0.00  0.00    +0.000 OA
ENDBRANCH   6   8
BRANCH   1  20
ATOM     17  C   UNL     1      -4.505  12.940  22.386  0.00  0.00    +0.000 A 
ATOM     18  C   UNL     1      -4.656  12.995  20.997  0.00  0.00    +0.000 A 
ATOM     19  C   UNL     1      -3.596  12.662  20.149  0.00  0.00    +0.000 A 
ATOM     20  C   UNL     1      -2.369  12.303  20.699  0.00  0.00    +0.000 A 
ATOM     21  C   UNL     1      -2.206  12.271  22.092  0.00  0.00    +0.000 A 
ATOM     22  C   UNL     1      -3.273  12.584  22.934  0.00  0.00    +0.000 A 
BRANCH  17  24
ATOM     23  C   UNL     1      -6.521  14.169  22.447  0.00  0.00    +0.000 C 
ATOM     24  O   UNL     1      -5.613  13.292  23.104  0.00  0.00    +0.000 OA
ENDBRANCH  17  24
ENDBRANCH   1  20
BRANCH   4  25
ATOM     25  C   UNL     1       2.345  13.957  19.295  0.00  0.00    +0.000 A 
ATOM     26  C   UNL     1       2.892  13.940  20.576  0.00  0.00    +0.000 A 
ATOM     27  C   UNL     1       3.317  15.134  21.165  0.00  0.00    +0.000 A 
ATOM     28  C   UNL     1       3.204  16.355  20.493  0.00  0.00    +0.000 A 
ATOM     29  C   UNL     1       2.643  16.384  19.204  0.00  0.00    +0.000 A 
ATOM     30  C   UNL     1       2.181  15.187  18.646  0.00  0.00    +0.000 A 
BRANCH  28  31
ATOM     31  O   UNL     1       3.686  17.516  21.033  0.00  0.00    +0.000 OA
ATOM     32  C   UNL     1       5.100  17.667  20.991  0.00  0.00    +0.000 C 
ENDBRANCH  28  31
BRANCH  29  33
ATOM     33  O   UNL     1       2.469  17.449  18.361  0.00  0.00    +0.000 OA
ATOM     34  C   UNL     1       1.154  17.922  18.115  0.00  0.00    +0.000 C 
ENDBRANCH  29  33
ENDBRANCH   4  25
TORSDOF 6
ENDMDL
MODEL 7
REMARK VINA RESULT:      -7.4      1.125      2.132
REMARK  Name = 
REMARK  9 active torsions:
REMARK  status: ('A' for Active; 'I' for Inactive)
REMARK    1  A    between atoms: C_1  and  O_2
REMARK    2  A    between atoms: O_2  and  C_3
REMARK    3  A    between atoms: C_6  and  C_7
REMARK    4  A    between atoms: C_10  and  C_12
REMARK    5  A    between atoms: C_15  and  O_16
REMARK    6  A    between atoms: O_16  and  C_17
REMARK    7  A    between atoms: C_18  and  O_19
REMARK    8  A    between atoms: O_19  and  C_20
REMARK    9  A    between atoms: C_22  and  C_23
REMARK                            x       y       z     vdW  Elec       q    Type
REMARK                         _______ _______ _______ _____ _____    ______ ____
ROOT
ATOM      1  C   UNL     1      -1.531  10.803  18.937  0.00  0.00    +0.000 C 
ATOM      2  N   UNL     1      -0.673   9.915  19.320  0.00  0.00    +0.000 NA
ATOM      3  N   UNL     1      -0.046  10.397  20.429  0.00  0.00    +0.000 N 
ATOM      4  C   UNL     1       0.904   9.673  21.131  0.00  0.00    +0.000 C 
ATOM      5  O   UNL     1       1.334  10.020  22.231  0.00  0.00    +0.000 OA
ATOM      6  C   UNL     1      -0.557  11.691  20.852  0.00  0.00    +0.000 C 
ATOM      7  C   UNL     1      -1.664  11.998  19.832  0.00  0.00    +0.000 C 
ENDROOT
BRANCH   6   8
ATOM      8  C   UNL     1       0.467  12.810  20.828  0.00  0.00    +0.000 A 
ATOM      9  C   UNL     1       1.315  13.026  19.711  0.00  0.00    +0.000 A 
ATOM     10  C   UNL     1       2.039  14.212  19.574  0.00  0.00    +0.000 A 
ATOM     11  C   UNL     1       1.863  15.166  20.549  0.00  0.00    +0.000 A 
ATOM     12  C   UNL     1       1.105  14.931  21.675  0.00  0.00    +0.000 A 
ATOM     13  C   UNL     1       0.425  13.754  21.866  0.00  0.00    +0.000 A 
ATOM     14  O   UNL     1       0.998  16.036  22.464  0.00  0.00    +0.000 OA
ATOM     15  C   UNL     1       1.439  17.025  21.514  0.00  0.00    +0.000 C 
ATOM     16  O   UNL     1       2.285  16.461  20.490  0.00  0.00    +0.000 OA
ENDBRANCH   6   8
BRANCH   1  20
ATOM     17  C   UNL     1      -3.640  10.314  15.259  0.00  0.00    +0.000 A 
ATOM     18  C   UNL     1      -4.089  11.247  16.199  0.00  0.00    +0.000 A 
ATOM     19  C   UNL     1      -3.406  11.434  17.404  0.00  0.00    +0.000 A 
ATOM     20  C   UNL     1      -2.286  10.656  17.680  0.00  0.00    +0.000 A 
ATOM     21  C   UNL     1      -1.846   9.700  16.752  0.00  0.00    +0.000 A 
ATOM     22  C   UNL     1      -2.519   9.534  15.541  0.00  0.00    +0.000 A 
BRANCH  17  24
ATOM     23  C   UNL     1      -3.702   9.813  12.952  0.00  0.00    +0.000 C 
ATOM     24  O   UNL     1      -4.396  10.224  14.124  0.00  0.00    +0.000 OA
ENDBRANCH  17  24
ENDBRANCH   1  20
BRANCH   4  25
ATOM     25  C   UNL     1       1.423   8.402  20.525  0.00  0.00    +0.000 A 
ATOM     26  C   UNL     1       1.191   7.209  21.208  0.00  0.00    +0.000 A 
ATOM     27  C   UNL     1       1.598   5.997  20.645  0.00  0.00    +0.000 A 
ATOM     28  C   UNL     1       2.239   5.953  19.402  0.00  0.00    +0.000 A 
ATOM     29  C   UNL     1       2.488   7.152  18.712  0.00  0.00    +0.000 A 
ATOM     30  C   UNL     1       2.114   8.361  19.309  0.00  0.00    +0.000 A 
BRANCH  28  31
ATOM     31  O   UNL     1       2.574   4.765  18.812  0.00  0.00    +0.000 OA
ATOM     32  C   UNL     1       1.607   4.240  17.909  0.00  0.00    +0.000 C 
ENDBRANCH  28  31
BRANCH  29  33
ATOM     33  O   UNL     1       3.063   7.337  17.483  0.00  0.00    +0.000 OA
ATOM     34  C   UNL     1       4.455   7.099  17.334  0.00  0.00    +0.000 C 
ENDBRANCH  29  33
ENDBRANCH   4  25
TORSDOF 6
ENDMDL
MODEL 8
REMARK VINA RESULT:      -7.3      1.954      7.560
REMARK  Name = 
REMARK  9 active torsions:
REMARK  status: ('A' for Active; 'I' for Inactive)
REMARK    1  A    between atoms: C_1  and  O_2
REMARK    2  A    between atoms: O_2  and  C_3
REMARK    3  A    between atoms: C_6  and  C_7
REMARK    4  A    between atoms: C_10  and  C_12
REMARK    5  A    between atoms: C_15  and  O_16
REMARK    6  A    between atoms: O_16  and  C_17
REMARK    7  A    between atoms: C_18  and  O_19
REMARK    8  A    between atoms: O_19  and  C_20
REMARK    9  A    between atoms: C_22  and  C_23
REMARK                            x       y       z     vdW  Elec       q    Type
REMARK                         _______ _______ _______ _____ _____    ______ ____
ROOT
ATOM      1  C   UNL     1       0.719   9.991  19.725  0.00  0.00    +0.000 C 
ATOM      2  N   UNL     1       1.188  11.194  19.771  0.00  0.00    +0.000 NA
ATOM      3  N   UNL     1       0.149  12.035  20.036  0.00  0.00    +0.000 N 
ATOM      4  C   UNL     1       0.309  13.401  20.203  0.00  0.00    +0.000 C 
ATOM      5  O   UNL     1      -0.585  14.133  20.626  0.00  0.00    +0.000 OA
ATOM      6  C   UNL     1      -1.111  11.334  20.231  0.00  0.00    +0.000 C 
ATOM      7  C   UNL     1      -0.735   9.854  20.065  0.00  0.00    +0.000 C 
ENDROOT
BRANCH   6   8
ATOM      8  C   UNL     1      -2.190  11.690  19.227  0.00  0.00    +0.000 A 
ATOM      9  C   UNL     1      -2.077  11.353  17.853  0.00  0.00    +0.000 A 
ATOM     10  C   UNL     1      -3.180  11.420  17.000  0.00  0.00    +0.000 A 
ATOM     11  C   UNL     1      -4.380  11.791  17.562  0.00  0.00    +0.000 A 
ATOM     12  C   UNL     1      -4.479  12.197  18.874  0.00  0.00    +0.000 A 
ATOM     13  C   UNL     1      -3.402  12.196  19.723  0.00  0.00    +0.000 A 
ATOM     14  O   UNL     1      -5.768  12.439  19.242  0.00  0.00    +0.000 OA
ATOM     15  C   UNL     1      -6.435  11.777  18.149  0.00  0.00    +0.000 C 
ATOM     16  O   UNL     1      -5.606  11.698  16.971  0.00  0.00    +0.000 OA
ENDBRANCH   6   8
BRANCH   1  20
ATOM     17  C   UNL     1       3.153   6.724  18.457  0.00  0.00    +0.000 A 
ATOM     18  C   UNL     1       2.575   6.706  19.730  0.00  0.00    +0.000 A 
ATOM     19  C   UNL     1       1.763   7.759  20.161  0.00  0.00    +0.000 A 
ATOM     20  C   UNL     1       1.558   8.850  19.322  0.00  0.00    +0.000 A 
ATOM     21  C   UNL     1       2.157   8.883  18.054  0.00  0.00    +0.000 A 
ATOM     22  C   UNL     1       2.949   7.820  17.620  0.00  0.00    +0.000 A 
BRANCH  17  24
ATOM     23  C   UNL     1       4.407   4.895  19.271  0.00  0.00    +0.000 C 
ATOM     24  O   UNL     1       3.928   5.638  18.157  0.00  0.00    +0.000 OA
ENDBRANCH  17  24
ENDBRANCH   1  20
BRANCH   4  25
ATOM     25  C   UNL     1       1.638  14.010  19.864  0.00  0.00    +0.000 A 
ATOM     26  C   UNL     1       2.670  13.889  20.793  0.00  0.00    +0.000 A 
ATOM     27  C   UNL     1       3.940  14.384  20.487  0.00  0.00    +0.000 A 
ATOM     28  C   UNL     1       4.202  15.003  19.260  0.00  0.00    +0.000 A 
ATOM     29  C   UNL     1       3.164  15.139  18.322  0.00  0.00    +0.000 A 
ATOM     30  C   UNL     1       1.887  14.679  18.660  0.00  0.00    +0.000 A 
BRANCH  28  31
ATOM     31  O   UNL     1       5.460  15.423  18.924  0.00  0.00    +0.000 OA
ATOM     32  C   UNL     1       6.135  14.617  17.965  0.00  0.00    +0.000 C 
ENDBRANCH  28  31
BRANCH  29  33
ATOM     33  O   UNL     1       3.204  15.675  17.061  0.00  0.00    +0.000 OA
ATOM     34  C   UNL     1       2.769  17.012  16.870  0.00  0.00    +0.000 C 
ENDBRANCH  29  33
ENDBRANCH   4  25
TORSDOF 6
ENDMDL
MODEL 9
REMARK VINA RESULT:      -7.3      3.030      6.699
REMARK  Name = 
REMARK  9 active torsions:
REMARK  status: ('A' for Active; 'I' for Inactive)
REMARK    1  A    between atoms: C_1  and  O_2
REMARK    2  A    between atoms: O_2  and  C_3
REMARK    3  A    between atoms: C_6  and  C_7
REMARK    4  A    between atoms: C_10  and  C_12
REMARK    5  A    between atoms: C_15  and  O_16
REMARK    6  A    between atoms: O_16  and  C_17
REMARK    7  A    between atoms: C_18  and  O_19
REMARK    8  A    between atoms: O_19  and  C_20
REMARK    9  A    between atoms: C_22  and  C_23
REMARK                            x       y       z     vdW  Elec       q    Type
REMARK                         _______ _______ _______ _____ _____    ______ ____
ROOT
ATOM      1  C   UNL     1       1.230  11.215  18.965  0.00  0.00    +0.000 C 
ATOM      2  N   UNL     1       0.207  11.739  19.554  0.00  0.00    +0.000 NA
ATOM      3  N   UNL     1       0.272  13.088  19.376  0.00  0.00    +0.000 N 
ATOM      4  C   UNL     1      -0.703  13.957  19.840  0.00  0.00    +0.000 C 
ATOM      5  O   UNL     1      -0.748  15.145  19.522  0.00  0.00    +0.000 OA
ATOM      6  C   UNL     1       1.405  13.499  18.561  0.00  0.00    +0.000 C 
ATOM      7  C   UNL     1       2.094  12.174  18.201  0.00  0.00    +0.000 C 
ENDROOT
BRANCH   6   8
ATOM      8  C   UNL     1       2.396  14.400  19.271  0.00  0.00    +0.000 A 
ATOM      9  C   UNL     1       3.049  14.002  20.467  0.00  0.00    +0.000 A 
ATOM     10  C   UNL     1       4.157  14.700  20.949  0.00  0.00    +0.000 A 
ATOM     11  C   UNL     1       4.604  15.760  20.195  0.00  0.00    +0.000 A 
ATOM     12  C   UNL     1       3.928  16.200  19.078  0.00  0.00    +0.000 A 
ATOM     13  C   UNL     1       2.803  15.570  18.610  0.00  0.00    +0.000 A 
ATOM     14  O   UNL     1       4.588  17.205  18.439  0.00  0.00    +0.000 OA
ATOM     15  C   UNL     1       5.878  17.050  19.063  0.00  0.00    +0.000 C 
ATOM     16  O   UNL     1       5.786  16.419  20.358  0.00  0.00    +0.000 OA
ENDBRANCH   6   8
BRANCH   1  20
ATOM     17  C   UNL     1       2.104   7.062  19.409  0.00  0.00    +0.000 A 
ATOM     18  C   UNL     1       2.335   7.693  18.183  0.00  0.00    +0.000 A 
ATOM     19  C   UNL     1       2.069   9.055  18.018  0.00  0.00    +0.000 A 
ATOM     20  C   UNL     1       1.538   9.779  19.082  0.00  0.00    +0.000 A 
ATOM     21  C   UNL     1       1.281   9.144  20.306  0.00  0.00    +0.000 A 
ATOM     22  C   UNL     1       1.568   7.789  20.471  0.00  0.00    +0.000 A 
BRANCH  17  24
ATOM     23  C   UNL     1       2.661   5.125  18.178  0.00  0.00    +0.000 C 
ATOM     24  O   UNL     1       2.401   5.728  19.440  0.00  0.00    +0.000 OA
ENDBRANCH  17  24
ENDBRANCH   1  20
BRANCH   4  25
ATOM     25  C   UNL     1      -1.758  13.419  20.761  0.00  0.00    +0.000 A 
ATOM     26  C   UNL     1      -1.440  13.282  22.112  0.00  0.00    +0.000 A 
ATOM     27  C   UNL     1      -2.415  12.848  23.013  0.00  0.00    +0.000 A 
ATOM     28  C   UNL     1      -3.713  12.545  22.588  0.00  0.00    +0.000 A 
ATOM     29  C   UNL     1      -4.039  12.669  21.227  0.00  0.00    +0.000 A 
ATOM     30  C   UNL     1      -3.040  13.061  20.329  0.00  0.00    +0.000 A 
BRANCH  28  31
ATOM     31  O   UNL     1      -4.692  12.191  23.476  0.00  0.00    +0.000 OA
ATOM     32  C   UNL     1      -4.402  12.460  24.843  0.00  0.00    +0.000 C 
ENDBRANCH  28  31
BRANCH  29  33
ATOM     33  O   UNL     1      -5.241  12.460  20.604  0.00  0.00    +0.000 OA
ATOM     34  C   UNL     1      -5.263  12.283  19.196  0.00  0.00    +0.000 C 
ENDBRANCH  29  33
ENDBRANCH   4  25
TORSDOF 6
ENDMDL
