MODEL 1
REMARK VINA RESULT:      -7.9      0.000      0.000
REMARK  Name = 
REMARK  6 active torsions:
REMARK  status: ('A' for Active; 'I' for Inactive)
REMARK    1  A    between atoms: O_1  and  C_2
REMARK    2  A    between atoms: C_7  and  O_8
REMARK    3  A    between atoms: C_10  and  C_11
REMARK    4  A    between atoms: C_18  and  C_19
REMARK    5  A    between atoms: C_19  and  N_20
REMARK    6  A    between atoms: N_20  and  C_21
REMARK                            x       y       z     vdW  Elec       q    Type
REMARK                         _______ _______ _______ _____ _____    ______ ____
ROOT
ATOM      1  C   UNL     1       6.487   5.800  16.284  0.00  0.00    +0.000 A 
ATOM      2  C   UNL     1       5.516   6.704  15.861  0.00  0.00    +0.000 A 
ATOM      3  C   UNL     1       4.324   6.805  16.570  0.00  0.00    +0.000 A 
ATOM      4  C   UNL     1       4.095   6.012  17.705  0.00  0.00    +0.000 A 
ATOM      5  C   UNL     1       5.067   5.095  18.137  0.00  0.00    +0.000 A 
ATOM      6  C   UNL     1       6.265   5.000  17.411  0.00  0.00    +0.000 A 
ATOM      7  C   UNL     1       4.791   4.216  19.331  0.00  0.00    +0.000 C 
ATOM      8  C   UNL     1       3.453   4.453  20.065  0.00  0.00    +0.000 C 
ATOM      9  O   UNL     1       2.453   4.984  19.185  0.00  0.00    +0.000 OA
ATOM     10  C   UNL     1       2.804   6.175  18.473  0.00  0.00    +0.000 C 
ENDROOT
BRANCH   8  11
ATOM     11  C   UNL     1       2.864   3.119  20.618  0.00  0.00    +0.000 C 
ATOM     12  C   UNL     1       1.385   3.177  21.037  0.00  0.00    +0.000 C 
ATOM     13  C   UNL     1       0.412   3.196  19.861  0.00  0.00    +0.000 C 
ATOM     14  C   UNL     1       0.679   2.079  18.856  0.00  0.00    +0.000 C 
ATOM     15  C   UNL     1       2.143   1.990  18.441  0.00  0.00    +0.000 C 
ATOM     16  C   UNL     1       3.073   1.939  19.649  0.00  0.00    +0.000 C 
ENDBRANCH   8  11
BRANCH   1  17
ATOM     17  O   UNL     1       7.660   5.682  15.597  0.00  0.00    +0.000 OA
ATOM     18  H   UNL     1       7.479   5.724  14.643  0.00  0.00    +0.000 HD
ENDBRANCH   1  17
BRANCH   6  19
ATOM     19  O   UNL     1       7.254   4.121  17.766  0.00  0.00    +0.000 OA
ATOM     20  H   UNL     1       7.972   4.605  18.198  0.00  0.00    +0.000 HD
ENDBRANCH   6  19
BRANCH  10  21
ATOM     21  C   UNL     1       2.766   7.478  19.321  0.00  0.00    +0.000 C 
BRANCH  21  22
ATOM     22  N   UNL     1       1.890   7.408  20.497  0.00  0.00    +0.000 NA
ATOM     23  H   UNL     1       2.438   7.122  21.311  0.00  0.00    +0.000 HD
BRANCH  22  24
ATOM     24  C   UNL     1       1.151   8.634  20.777  0.00  0.00    +0.000 C 
ATOM     25  C   UNL     1      -0.119   8.631  21.580  0.00  0.00    +0.000 C 
ATOM     26  C   UNL     1       1.157   9.107  22.206  0.00  0.00    +0.000 C 
ENDBRANCH  22  24
ENDBRANCH  21  22
ENDBRANCH  10  21
TORSDOF 6
ENDMDL
MODEL 2
REMARK VINA RESULT:      -7.9      1.467      1.703
REMARK  Name = 
REMARK  6 active torsions:
REMARK  status: ('A' for Active; 'I' for Inactive)
REMARK    1  A    between atoms: O_1  and  C_2
REMARK    2  A    between atoms: C_7  and  O_8
REMARK    3  A    between atoms: C_10  and  C_11
REMARK    4  A    between atoms: C_18  and  C_19
REMARK    5  A    between atoms: C_19  and  N_20
REMARK    6  A    between atoms: N_20  and  C_21
REMARK                            x       y       z     vdW  Elec       q    Type
REMARK                         _______ _______ _______ _____ _____    ______ ____
ROOT
ATOM      1  C   UNL     1       6.603   5.147  16.370  0.00  0.00    +0.000 A 
ATOM      2  C   UNL     1       5.812   5.960  15.563  0.00  0.00    +0.000 A 
ATOM      3  C   UNL     1       4.586   6.411  16.043  0.00  0.00    +0.000 A 
ATOM      4  C   UNL     1       4.145   6.058  17.328  0.00  0.00    +0.000 A 
ATOM      5  C   UNL     1       4.936   5.235  18.147  0.00  0.00    +0.000 A 
ATOM      6  C   UNL     1       6.169   4.785  17.650  0.00  0.00    +0.000 A 
ATOM      7  C   UNL     1       4.430   4.826  19.508  0.00  0.00    +0.000 C 
ATOM      8  C   UNL     1       3.078   5.427  19.950  0.00  0.00    +0.000 C 
ATOM      9  O   UNL     1       2.248   5.745  18.824  0.00  0.00    +0.000 OA
ATOM     10  C   UNL     1       2.825   6.596  17.830  0.00  0.00    +0.000 C 
ENDROOT
BRANCH   8  11
ATOM     11  C   UNL     1       2.259   4.415  20.808  0.00  0.00    +0.000 C 
ATOM     12  C   UNL     1       0.830   4.137  20.311  0.00  0.00    +0.000 C 
ATOM     13  C   UNL     1       0.770   3.240  19.077  0.00  0.00    +0.000 C 
ATOM     14  C   UNL     1       1.579   1.956  19.240  0.00  0.00    +0.000 C 
ATOM     15  C   UNL     1       2.994   2.207  19.751  0.00  0.00    +0.000 C 
ATOM     16  C   UNL     1       3.000   3.077  21.004  0.00  0.00    +0.000 C 
ENDBRANCH   8  11
BRANCH   1  17
ATOM     17  O   UNL     1       7.805   4.690  15.915  0.00  0.00    +0.000 OA
ATOM     18  H   UNL     1       8.467   4.770  16.622  0.00  0.00    +0.000 HD
ENDBRANCH   1  17
BRANCH   6  19
ATOM     19  O   UNL     1       6.987   3.971  18.388  0.00  0.00    +0.000 OA
ATOM     20  H   UNL     1       7.739   4.484  18.715  0.00  0.00    +0.000 HD
ENDBRANCH   6  19
BRANCH  10  21
ATOM     21  C   UNL     1       2.895   8.100  18.219  0.00  0.00    +0.000 C 
BRANCH  21  22
ATOM     22  N   UNL     1       1.759   8.900  17.744  0.00  0.00    +0.000 NA
ATOM     23  H   UNL     1       1.127   8.304  17.205  0.00  0.00    +0.000 HD
BRANCH  22  24
ATOM     24  C   UNL     1       1.034   9.606  18.793  0.00  0.00    +0.000 C 
ATOM     25  C   UNL     1       0.850  11.097  18.768  0.00  0.00    +0.000 C 
ATOM     26  C   UNL     1      -0.294  10.200  18.406  0.00  0.00    +0.000 C 
ENDBRANCH  22  24
ENDBRANCH  21  22
ENDBRANCH  10  21
TORSDOF 6
ENDMDL
MODEL 3
REMARK VINA RESULT:      -7.7      1.722      4.885
REMARK  Name = 
REMARK  6 active torsions:
REMARK  status: ('A' for Active; 'I' for Inactive)
REMARK    1  A    between atoms: O_1  and  C_2
REMARK    2  A    between atoms: C_7  and  O_8
REMARK    3  A    between atoms: C_10  and  C_11
REMARK    4  A    between atoms: C_18  and  C_19
REMARK    5  A    between atoms: C_19  and  N_20
REMARK    6  A    between atoms: N_20  and  C_21
REMARK                            x       y       z     vdW  Elec       q    Type
REMARK                         _______ _______ _______ _____ _____    ______ ____
ROOT
ATOM      1  C   UNL     1       1.682   2.338  19.316  0.00  0.00    +0.000 A 
ATOM      2  C   UNL     1       1.639   2.997  20.541  0.00  0.00    +0.000 A 
ATOM      3  C   UNL     1       2.190   4.270  20.649  0.00  0.00    +0.000 A 
ATOM      4  C   UNL     1       2.781   4.893  19.539  0.00  0.00    +0.000 A 
ATOM      5  C   UNL     1       2.831   4.233  18.300  0.00  0.00    +0.000 A 
ATOM      6  C   UNL     1       2.275   2.948  18.205  0.00  0.00    +0.000 A 
ATOM      7  C   UNL     1       3.509   4.894  17.126  0.00  0.00    +0.000 C 
ATOM      8  C   UNL     1       4.041   6.326  17.354  0.00  0.00    +0.000 C 
ATOM      9  O   UNL     1       4.371   6.554  18.731  0.00  0.00    +0.000 OA
ATOM     10  C   UNL     1       3.337   6.291  19.684  0.00  0.00    +0.000 C 
ENDROOT
BRANCH   8  11
ATOM     11  C   UNL     1       5.356   6.578  16.556  0.00  0.00    +0.000 C 
ATOM     12  C   UNL     1       6.584   6.937  17.409  0.00  0.00    +0.000 C 
ATOM     13  C   UNL     1       7.187   5.749  18.154  0.00  0.00    +0.000 C 
ATOM     14  C   UNL     1       7.453   4.554  17.242  0.00  0.00    +0.000 C 
ATOM     15  C   UNL     1       6.255   4.192  16.373  0.00  0.00    +0.000 C 
ATOM     16  C   UNL     1       5.710   5.404  15.622  0.00  0.00    +0.000 C 
ENDBRANCH   8  11
BRANCH   1  17
ATOM     17  O   UNL     1       1.153   1.086  19.192  0.00  0.00    +0.000 OA
ATOM     18  H   UNL     1       0.326   1.137  18.683  0.00  0.00    +0.000 HD
ENDBRANCH   1  17
BRANCH   6  19
ATOM     19  O   UNL     1       2.297   2.240  17.032  0.00  0.00    +0.000 OA
ATOM     20  H   UNL     1       2.640   2.803  16.324  0.00  0.00    +0.000 HD
ENDBRANCH   6  19
BRANCH  10  21
ATOM     21  C   UNL     1       2.226   7.377  19.758  0.00  0.00    +0.000 C 
BRANCH  21  22
ATOM     22  N   UNL     1       1.836   7.751  21.123  0.00  0.00    +0.000 NA
ATOM     23  H   UNL     1       2.675   7.951  21.671  0.00  0.00    +0.000 HD
BRANCH  22  24
ATOM     24  C   UNL     1       0.890   8.858  21.202  0.00  0.00    +0.000 C 
ATOM     25  C   UNL     1      -0.487   8.687  21.777  0.00  0.00    +0.000 C 
ATOM     26  C   UNL     1       0.576   9.371  22.582  0.00  0.00    +0.000 C 
ENDBRANCH  22  24
ENDBRANCH  21  22
ENDBRANCH  10  21
TORSDOF 6
ENDMDL
MODEL 4
REMARK VINA RESULT:      -7.6      2.158      5.254
REMARK  Name = 
REMARK  6 active torsions:
REMARK  status: ('A' for Active; 'I' for Inactive)
REMARK    1  A    between atoms: O_1  and  C_2
REMARK    2  A    between atoms: C_7  and  O_8
REMARK    3  A    between atoms: C_10  and  C_11
REMARK    4  A    between atoms: C_18  and  C_19
REMARK    5  A    between atoms: C_19  and  N_20
REMARK    6  A    between atoms: N_20  and  C_21
REMARK                            x       y       z     vdW  Elec       q    Type
REMARK                         _______ _______ _______ _____ _____    ______ ____
ROOT
ATOM      1  C   UNL     1       1.340   2.755  19.074  0.00  0.00    +0.000 A 
ATOM      2  C   UNL     1       1.014   3.855  19.861  0.00  0.00    +0.000 A 
ATOM      3  C   UNL     1       1.742   5.032  19.721  0.00  0.00    +0.000 A 
ATOM      4  C   UNL     1       2.792   5.121  18.794  0.00  0.00    +0.000 A 
ATOM      5  C   UNL     1       3.130   4.014  17.998  0.00  0.00    +0.000 A 
ATOM      6  C   UNL     1       2.390   2.830  18.152  0.00  0.00    +0.000 A 
ATOM      7  C   UNL     1       4.290   4.106  17.039  0.00  0.00    +0.000 C 
ATOM      8  C   UNL     1       4.991   5.478  16.936  0.00  0.00    +0.000 C 
ATOM      9  O   UNL     1       4.866   6.228  18.152  0.00  0.00    +0.000 OA
ATOM     10  C   UNL     1       3.537   6.427  18.642  0.00  0.00    +0.000 C 
ENDROOT
BRANCH   8  11
ATOM     11  C   UNL     1       6.522   5.318  16.692  0.00  0.00    +0.000 C 
ATOM     12  C   UNL     1       7.268   6.611  16.322  0.00  0.00    +0.000 C 
ATOM     13  C   UNL     1       7.488   7.555  17.501  0.00  0.00    +0.000 C 
ATOM     14  C   UNL     1       8.114   6.859  18.706  0.00  0.00    +0.000 C 
ATOM     15  C   UNL     1       7.402   5.563  19.080  0.00  0.00    +0.000 C 
ATOM     16  C   UNL     1       7.237   4.639  17.877  0.00  0.00    +0.000 C 
ENDBRANCH   8  11
BRANCH   1  17
ATOM     17  O   UNL     1       0.642   1.589  19.202  0.00  0.00    +0.000 OA
ATOM     18  H   UNL     1      -0.299   1.792  19.333  0.00  0.00    +0.000 HD
ENDBRANCH   1  17
BRANCH   6  19
ATOM     19  O   UNL     1       2.669   1.707  17.418  0.00  0.00    +0.000 OA
ATOM     20  H   UNL     1       2.492   1.883  16.483  0.00  0.00    +0.000 HD
ENDBRANCH   6  19
BRANCH  10  21
ATOM     21  C   UNL     1       2.715   7.505  17.880  0.00  0.00    +0.000 C 
BRANCH  21  22
ATOM     22  N   UNL     1       1.993   8.441  18.750  0.00  0.00    +0.000 NA
ATOM     23  H   UNL     1       2.624   8.782  19.478  0.00  0.00    +0.000 HD
BRANCH  22  24
ATOM     24  C   UNL     1       1.360   9.554  18.051  0.00  0.00    +0.000 C 
ATOM     25  C   UNL     1       0.029  10.106  18.477  0.00  0.00    +0.000 C 
ATOM     26  C   UNL     1       1.286  10.858  18.799  0.00  0.00    +0.000 C 
ENDBRANCH  22  24
ENDBRANCH  21  22
ENDBRANCH  10  21
TORSDOF 6
ENDMDL
MODEL 5
REMARK VINA RESULT:      -7.5      2.141      5.020
REMARK  Name = 
REMARK  6 active torsions:
REMARK  status: ('A' for Active; 'I' for Inactive)
REMARK    1  A    between atoms: O_1  and  C_2
REMARK    2  A    between atoms: C_7  and  O_8
REMARK    3  A    between atoms: C_10  and  C_11
REMARK    4  A    between atoms: C_18  and  C_19
REMARK    5  A    between atoms: C_19  and  N_20
REMARK    6  A    between atoms: N_20  and  C_21
REMARK                            x       y       z     vdW  Elec       q    Type
REMARK                         _______ _______ _______ _____ _____    ______ ____
ROOT
ATOM      1  C   UNL     1       1.932   3.642  20.105  0.00  0.00    +0.000 A 
ATOM      2  C   UNL     1       1.446   4.809  20.686  0.00  0.00    +0.000 A 
ATOM      3  C   UNL     1       1.818   6.040  20.156  0.00  0.00    +0.000 A 
ATOM      4  C   UNL     1       2.672   6.114  19.044  0.00  0.00    +0.000 A 
ATOM      5  C   UNL     1       3.170   4.941  18.454  0.00  0.00    +0.000 A 
ATOM      6  C   UNL     1       2.789   3.705  19.000  0.00  0.00    +0.000 A 
ATOM      7  C   UNL     1       4.122   5.034  17.288  0.00  0.00    +0.000 C 
ATOM      8  C   UNL     1       4.424   6.453  16.758  0.00  0.00    +0.000 C 
ATOM      9  O   UNL     1       4.280   7.443  17.785  0.00  0.00    +0.000 OA
ATOM     10  C   UNL     1       3.026   7.467  18.472  0.00  0.00    +0.000 C 
ENDROOT
BRANCH   8  11
ATOM     11  C   UNL     1       5.897   6.571  16.258  0.00  0.00    +0.000 C 
ATOM     12  C   UNL     1       6.916   7.020  17.318  0.00  0.00    +0.000 C 
ATOM     13  C   UNL     1       7.277   5.932  18.327  0.00  0.00    +0.000 C 
ATOM     14  C   UNL     1       7.684   4.622  17.660  0.00  0.00    +0.000 C 
ATOM     15  C   UNL     1       6.696   4.167  16.592  0.00  0.00    +0.000 C 
ATOM     16  C   UNL     1       6.395   5.276  15.588  0.00  0.00    +0.000 C 
ENDBRANCH   8  11
BRANCH   1  17
ATOM     17  O   UNL     1       1.583   2.425  20.615  0.00  0.00    +0.000 OA
ATOM     18  H   UNL     1       0.799   2.094  20.146  0.00  0.00    +0.000 HD
ENDBRANCH   1  17
BRANCH   6  19
ATOM     19  O   UNL     1       3.244   2.520  18.484  0.00  0.00    +0.000 OA
ATOM     20  H   UNL     1       3.718   2.032  19.173  0.00  0.00    +0.000 HD
ENDBRANCH   6  19
BRANCH  10  21
ATOM     21  C   UNL     1       1.856   8.110  17.673  0.00  0.00    +0.000 C 
BRANCH  21  22
ATOM     22  N   UNL     1       1.875   9.577  17.648  0.00  0.00    +0.000 NA
ATOM     23  H   UNL     1       1.864   9.899  16.678  0.00  0.00    +0.000 HD
BRANCH  22  24
ATOM     24  C   UNL     1       0.810  10.211  18.416  0.00  0.00    +0.000 C 
ATOM     25  C   UNL     1       0.799  10.201  19.918  0.00  0.00    +0.000 C 
ATOM     26  C   UNL     1       1.186  11.450  19.184  0.00  0.00    +0.000 C 
ENDBRANCH  22  24
ENDBRANCH  21  22
ENDBRANCH  10  21
TORSDOF 6
ENDMDL
MODEL 6
REMARK VINA RESULT:      -7.4      2.095      5.254
REMARK  Name = 
REMARK  6 active torsions:
REMARK  status: ('A' for Active; 'I' for Inactive)
REMARK    1  A    between atoms: O_1  and  C_2
REMARK    2  A    between atoms: C_7  and  O_8
REMARK    3  A    between atoms: C_10  and  C_11
REMARK    4  A    between atoms: C_18  and  C_19
REMARK    5  A    between atoms: C_19  and  N_20
REMARK    6  A    between atoms: N_20  and  C_21
REMARK                            x       y       z     vdW  Elec       q    Type
REMARK                         _______ _______ _______ _____ _____    ______ ____
ROOT
ATOM      1  C   UNL     1       2.188   3.205  20.690  0.00  0.00    +0.000 A 
ATOM      2  C   UNL     1       1.725   4.464  21.059  0.00  0.00    +0.000 A 
ATOM      3  C   UNL     1       2.180   5.586  20.373  0.00  0.00    +0.000 A 
ATOM      4  C   UNL     1       3.093   5.458  19.315  0.00  0.00    +0.000 A 
ATOM      5  C   UNL     1       3.568   4.191  18.938  0.00  0.00    +0.000 A 
ATOM      6  C   UNL     1       3.104   3.068  19.640  0.00  0.00    +0.000 A 
ATOM      7  C   UNL     1       4.584   4.070  17.829  0.00  0.00    +0.000 C 
ATOM      8  C   UNL     1       4.977   5.379  17.111  0.00  0.00    +0.000 C 
ATOM      9  O   UNL     1       4.825   6.519  17.968  0.00  0.00    +0.000 OA
ATOM     10  C   UNL     1       3.538   6.694  18.568  0.00  0.00    +0.000 C 
ENDROOT
BRANCH   8  11
ATOM     11  C   UNL     1       6.478   5.366  16.686  0.00  0.00    +0.000 C 
ATOM     12  C   UNL     1       7.074   6.740  16.337  0.00  0.00    +0.000 C 
ATOM     13  C   UNL     1       7.357   7.617  17.554  0.00  0.00    +0.000 C 
ATOM     14  C   UNL     1       8.172   6.896  18.624  0.00  0.00    +0.000 C 
ATOM     15  C   UNL     1       7.609   5.523  18.973  0.00  0.00    +0.000 C 
ATOM     16  C   UNL     1       7.376   4.671  17.728  0.00  0.00    +0.000 C 
ENDBRANCH   8  11
BRANCH   1  17
ATOM     17  O   UNL     1       1.758   2.094  21.355  0.00  0.00    +0.000 OA
ATOM     18  H   UNL     1       0.956   2.312  21.859  0.00  0.00    +0.000 HD
ENDBRANCH   1  17
BRANCH   6  19
ATOM     19  O   UNL     1       3.531   1.802  19.336  0.00  0.00    +0.000 OA
ATOM     20  H   UNL     1       2.982   1.157  19.805  0.00  0.00    +0.000 HD
ENDBRANCH   6  19
BRANCH  10  21
ATOM     21  C   UNL     1       2.443   7.250  17.614  0.00  0.00    +0.000 C 
BRANCH  21  22
ATOM     22  N   UNL     1       2.442   8.711  17.481  0.00  0.00    +0.000 NA
ATOM     23  H   UNL     1       2.618   8.962  16.505  0.00  0.00    +0.000 HD
BRANCH  22  24
ATOM     24  C   UNL     1       1.235   9.365  17.973  0.00  0.00    +0.000 C 
ATOM     25  C   UNL     1       0.961   9.527  19.441  0.00  0.00    +0.000 C 
ATOM     26  C   UNL     1       1.423  10.704  18.636  0.00  0.00    +0.000 C 
ENDBRANCH  22  24
ENDBRANCH  21  22
ENDBRANCH  10  21
TORSDOF 6
ENDMDL
MODEL 7
REMARK VINA RESULT:      -7.3      1.963      5.197
REMARK  Name = 
REMARK  6 active torsions:
REMARK  status: ('A' for Active; 'I' for Inactive)
REMARK    1  A    between atoms: O_1  and  C_2
REMARK    2  A    between atoms: C_7  and  O_8
REMARK    3  A    between atoms: C_10  and  C_11
REMARK    4  A    between atoms: C_18  and  C_19
REMARK    5  A    between atoms: C_19  and  N_20
REMARK    6  A    between atoms: N_20  and  C_21
REMARK                            x       y       z     vdW  Elec       q    Type
REMARK                         _______ _______ _______ _____ _____    ______ ____
ROOT
ATOM      1  C   UNL     1       5.651   5.057  17.107  0.00  0.00    +0.000 A 
ATOM      2  C   UNL     1       5.513   4.291  18.261  0.00  0.00    +0.000 A 
ATOM      3  C   UNL     1       4.554   4.647  19.204  0.00  0.00    +0.000 A 
ATOM      4  C   UNL     1       3.728   5.763  19.001  0.00  0.00    +0.000 A 
ATOM      5  C   UNL     1       3.863   6.543  17.841  0.00  0.00    +0.000 A 
ATOM      6  C   UNL     1       4.836   6.175  16.899  0.00  0.00    +0.000 A 
ATOM      7  C   UNL     1       3.001   7.766  17.655  0.00  0.00    +0.000 C 
ATOM      8  C   UNL     1       1.941   8.033  18.746  0.00  0.00    +0.000 C 
ATOM      9  O   UNL     1       2.337   7.489  20.013  0.00  0.00    +0.000 OA
ATOM     10  C   UNL     1       2.673   6.098  20.029  0.00  0.00    +0.000 C 
ENDROOT
BRANCH   8  11
ATOM     11  C   UNL     1       1.742   9.561  18.985  0.00  0.00    +0.000 C 
ATOM     12  C   UNL     1       0.964  10.302  17.886  0.00  0.00    +0.000 C 
ATOM     13  C   UNL     1      -0.540  10.037  17.909  0.00  0.00    +0.000 C 
ATOM     14  C   UNL     1      -1.155  10.250  19.289  0.00  0.00    +0.000 C 
ATOM     15  C   UNL     1      -0.388   9.539  20.398  0.00  0.00    +0.000 C 
ATOM     16  C   UNL     1       1.102   9.863  20.355  0.00  0.00    +0.000 C 
ENDBRANCH   8  11
BRANCH   1  17
ATOM     17  O   UNL     1       6.590   4.727  16.173  0.00  0.00    +0.000 OA
ATOM     18  H   UNL     1       6.948   3.846  16.376  0.00  0.00    +0.000 HD
ENDBRANCH   1  17
BRANCH   6  19
ATOM     19  O   UNL     1       5.033   6.895  15.749  0.00  0.00    +0.000 OA
ATOM     20  H   UNL     1       4.292   7.504  15.622  0.00  0.00    +0.000 HD
ENDBRANCH   6  19
BRANCH  10  21
ATOM     21  C   UNL     1       1.454   5.132  19.982  0.00  0.00    +0.000 C 
BRANCH  21  22
ATOM     22  N   UNL     1       1.585   3.953  20.845  0.00  0.00    +0.000 NA
ATOM     23  H   UNL     1       1.118   4.132  21.737  0.00  0.00    +0.000 HD
BRANCH  22  24
ATOM     24  C   UNL     1       1.105   2.710  20.251  0.00  0.00    +0.000 C 
ATOM     25  C   UNL     1       0.850   2.580  18.777  0.00  0.00    +0.000 C 
ATOM     26  C   UNL     1       2.079   1.966  19.378  0.00  0.00    +0.000 C 
ENDBRANCH  22  24
ENDBRANCH  21  22
ENDBRANCH  10  21
TORSDOF 6
ENDMDL
MODEL 8
REMARK VINA RESULT:      -7.2      1.728      4.993
REMARK  Name = 
REMARK  6 active torsions:
REMARK  status: ('A' for Active; 'I' for Inactive)
REMARK    1  A    between atoms: O_1  and  C_2
REMARK    2  A    between atoms: C_7  and  O_8
REMARK    3  A    between atoms: C_10  and  C_11
REMARK    4  A    between atoms: C_18  and  C_19
REMARK    5  A    between atoms: C_19  and  N_20
REMARK    6  A    between atoms: N_20  and  C_21
REMARK                            x       y       z     vdW  Elec       q    Type
REMARK                         _______ _______ _______ _____ _____    ______ ____
ROOT
ATOM      1  C   UNL     1       1.020   2.264  19.093  0.00  0.00    +0.000 A 
ATOM      2  C   UNL     1       0.807   2.908  20.308  0.00  0.00    +0.000 A 
ATOM      3  C   UNL     1       1.524   4.063  20.602  0.00  0.00    +0.000 A 
ATOM      4  C   UNL     1       2.452   4.584  19.686  0.00  0.00    +0.000 A 
ATOM      5  C   UNL     1       2.675   3.938  18.459  0.00  0.00    +0.000 A 
ATOM      6  C   UNL     1       1.947   2.772  18.176  0.00  0.00    +0.000 A 
ATOM      7  C   UNL     1       3.708   4.482  17.503  0.00  0.00    +0.000 C 
ATOM      8  C   UNL     1       4.406   5.796  17.918  0.00  0.00    +0.000 C 
ATOM      9  O   UNL     1       4.442   5.948  19.343  0.00  0.00    +0.000 OA
ATOM     10  C   UNL     1       3.186   5.861  20.023  0.00  0.00    +0.000 C 
ENDROOT
BRANCH   8  11
ATOM     11  C   UNL     1       5.893   5.821  17.451  0.00  0.00    +0.000 C 
ATOM     12  C   UNL     1       6.517   4.444  17.169  0.00  0.00    +0.000 C 
ATOM     13  C   UNL     1       6.049   3.811  15.861  0.00  0.00    +0.000 C 
ATOM     14  C   UNL     1       6.181   4.754  14.668  0.00  0.00    +0.000 C 
ATOM     15  C   UNL     1       5.585   6.132  14.932  0.00  0.00    +0.000 C 
ATOM     16  C   UNL     1       6.109   6.738  16.231  0.00  0.00    +0.000 C 
ENDBRANCH   8  11
BRANCH   1  17
ATOM     17  O   UNL     1       0.330   1.126  18.789  0.00  0.00    +0.000 OA
ATOM     18  H   UNL     1       0.111   1.127  17.842  0.00  0.00    +0.000 HD
ENDBRANCH   1  17
BRANCH   6  19
ATOM     19  O   UNL     1       2.121   2.083  17.004  0.00  0.00    +0.000 OA
ATOM     20  H   UNL     1       3.067   1.964  16.840  0.00  0.00    +0.000 HD
ENDBRANCH   6  19
BRANCH  10  21
ATOM     21  C   UNL     1       2.288   7.125  19.899  0.00  0.00    +0.000 C 
BRANCH  21  22
ATOM     22  N   UNL     1       1.849   7.683  21.183  0.00  0.00    +0.000 NA
ATOM     23  H   UNL     1       2.666   7.994  21.714  0.00  0.00    +0.000 HD
BRANCH  22  24
ATOM     24  C   UNL     1       0.865   8.754  21.076  0.00  0.00    +0.000 C 
ATOM     25  C   UNL     1      -0.503   8.642  21.686  0.00  0.00    +0.000 C 
ATOM     26  C   UNL     1       0.540   9.494  22.346  0.00  0.00    +0.000 C 
ENDBRANCH  22  24
ENDBRANCH  21  22
ENDBRANCH  10  21
TORSDOF 6
ENDMDL
MODEL 9
REMARK VINA RESULT:      -7.2      1.822      4.971
REMARK  Name = 
REMARK  6 active torsions:
REMARK  status: ('A' for Active; 'I' for Inactive)
REMARK    1  A    between atoms: O_1  and  C_2
REMARK    2  A    between atoms: C_7  and  O_8
REMARK    3  A    between atoms: C_10  and  C_11
REMARK    4  A    between atoms: C_18  and  C_19
REMARK    5  A    between atoms: C_19  and  N_20
REMARK    6  A    between atoms: N_20  and  C_21
REMARK                            x       y       z     vdW  Elec       q    Type
REMARK                         _______ _______ _______ _____ _____    ______ ____
ROOT
ATOM      1  C   UNL     1       5.568   4.995  16.336  0.00  0.00    +0.000 A 
ATOM      2  C   UNL     1       5.340   3.976  17.255  0.00  0.00    +0.000 A 
ATOM      3  C   UNL     1       4.393   4.162  18.258  0.00  0.00    +0.000 A 
ATOM      4  C   UNL     1       3.668   5.360  18.346  0.00  0.00    +0.000 A 
ATOM      5  C   UNL     1       3.894   6.395  17.423  0.00  0.00    +0.000 A 
ATOM      6  C   UNL     1       4.855   6.196  16.419  0.00  0.00    +0.000 A 
ATOM      7  C   UNL     1       3.141   7.695  17.556  0.00  0.00    +0.000 C 
ATOM      8  C   UNL     1       2.083   7.766  18.678  0.00  0.00    +0.000 C 
ATOM      9  O   UNL     1       2.403   6.886  19.764  0.00  0.00    +0.000 OA
ATOM     10  C   UNL     1       2.621   5.513  19.424  0.00  0.00    +0.000 C 
ENDROOT
BRANCH   8  11
ATOM     11  C   UNL     1       2.007   9.195  19.299  0.00  0.00    +0.000 C 
ATOM     12  C   UNL     1       1.405  10.277  18.386  0.00  0.00    +0.000 C 
ATOM     13  C   UNL     1      -0.112  10.188  18.242  0.00  0.00    +0.000 C 
ATOM     14  C   UNL     1      -0.829  10.109  19.586  0.00  0.00    +0.000 C 
ATOM     15  C   UNL     1      -0.237   9.055  20.514  0.00  0.00    +0.000 C 
ATOM     16  C   UNL     1       1.275   9.207  20.655  0.00  0.00    +0.000 C 
ENDBRANCH   8  11
BRANCH   1  17
ATOM     17  O   UNL     1       6.498   4.833  15.349  0.00  0.00    +0.000 OA
ATOM     18  H   UNL     1       7.251   5.423  15.520  0.00  0.00    +0.000 HD
ENDBRANCH   1  17
BRANCH   6  19
ATOM     19  O   UNL     1       5.137   7.165  15.492  0.00  0.00    +0.000 OA
ATOM     20  H   UNL     1       5.334   7.996  15.947  0.00  0.00    +0.000 HD
ENDBRANCH   6  19
BRANCH  10  21
ATOM     21  C   UNL     1       1.328   4.700  19.131  0.00  0.00    +0.000 C 
BRANCH  21  22
ATOM     22  N   UNL     1       0.750   4.039  20.307  0.00  0.00    +0.000 NA
ATOM     23  H   UNL     1      -0.262   3.960  20.188  0.00  0.00    +0.000 HD
BRANCH  22  24
ATOM     24  C   UNL     1       1.335   2.741  20.623  0.00  0.00    +0.000 C 
ATOM     25  C   UNL     1       2.703   2.612  21.230  0.00  0.00    +0.000 C 
ATOM     26  C   UNL     1       1.487   2.413  22.084  0.00  0.00    +0.000 C 
ENDBRANCH  22  24
ENDBRANCH  21  22
ENDBRANCH  10  21
TORSDOF 6
ENDMDL
