MODEL 1
REMARK VINA RESULT:      -7.2      0.000      0.000
REMARK  Name = 
REMARK  14 active torsions:
REMARK  status: ('A' for Active; 'I' for Inactive)
REMARK    1  A    between atoms: C_1  and  C_2
REMARK    2  A    between atoms: C_2  and  C_3
REMARK    3  A    between atoms: C_2  and  N_4
REMARK    4  A    between atoms: N_4  and  C_5
REMARK    5  A    between atoms: C_5  and  C_6
REMARK    6  A    between atoms: C_6  and  O_7
REMARK    7  A    between atoms: C_6  and  C_8
REMARK    8  A    between atoms: C_11  and  O_12
REMARK    9  A    between atoms: O_12  and  C_13
REMARK   10  A    between atoms: C_13  and  C_14
REMARK   11  A    between atoms: C_20  and  O_21
REMARK   12  A    between atoms: O_21  and  C_22
REMARK   13  A    between atoms: C_22  and  C_23
REMARK   14  A    between atoms: C_29  and  C_30
REMARK                            x       y       z     vdW  Elec       q    Type
REMARK                         _______ _______ _______ _____ _____    ______ ____
ROOT
ATOM      1  C   UNL     1       5.453   5.820  16.969  0.00  0.00    +0.000 A 
ATOM      2  C   UNL     1       5.679   7.191  16.699  0.00  0.00    +0.000 A 
ATOM      3  C   UNL     1       4.762   8.180  17.011  0.00  0.00    +0.000 A 
ATOM      4  C   UNL     1       3.573   7.873  17.648  0.00  0.00    +0.000 A 
ATOM      5  C   UNL     1       3.252   6.512  17.897  0.00  0.00    +0.000 A 
ATOM      6  C   UNL     1       4.212   5.446  17.602  0.00  0.00    +0.000 A 
ENDROOT
BRANCH   6   7
ATOM      7  C   UNL     1       3.899   4.016  18.009  0.00  0.00    +0.000 A 
ATOM      8  C   UNL     1       4.559   3.362  19.074  0.00  0.00    +0.000 A 
ATOM      9  C   UNL     1       4.405   1.993  19.338  0.00  0.00    +0.000 A 
ATOM     10  C   UNL     1       3.490   1.246  18.614  0.00  0.00    +0.000 A 
ATOM     11  C   UNL     1       2.754   1.867  17.615  0.00  0.00    +0.000 A 
ATOM     12  C   UNL     1       2.990   3.213  17.296  0.00  0.00    +0.000 A 
ENDBRANCH   6   7
BRANCH   1  13
ATOM     13  C   UNL     1       6.586   4.846  16.552  0.00  0.00    +0.000 C 
BRANCH  13  14
ATOM     14  O   UNL     1       7.668   5.585  15.964  0.00  0.00    +0.000 OA
ATOM     15  H   UNL     1       8.216   4.955  15.468  0.00  0.00    +0.000 HD
ENDBRANCH  13  14
BRANCH  13  16
ATOM     16  C   UNL     1       6.121   3.805  15.483  0.00  0.00    +0.000 C 
BRANCH  16  17
ATOM     17  N   UNL     1       5.471   4.284  14.243  0.00  0.00    +0.000 NA
ATOM     18  H   UNL     1       4.477   4.040  14.298  0.00  0.00    +0.000 HD
BRANCH  17  20
ATOM     19  C   UNL     1       5.034   3.349  11.981  0.00  0.00    +0.000 C 
ATOM     20  C   UNL     1       6.078   3.618  13.065  0.00  0.00    +0.000 C 
ATOM     21  C   UNL     1       7.213   4.447  12.450  0.00  0.00    +0.000 C 
ENDBRANCH  17  20
ENDBRANCH  16  17
ENDBRANCH  13  16
ENDBRANCH   1  13
BRANCH   4  22
ATOM     22  O   UNL     1       2.894   9.031  17.940  0.00  0.00    +0.000 OA
BRANCH  22  23
ATOM     23  C   UNL     1       1.519   9.088  17.598  0.00  0.00    +0.000 C 
BRANCH  23  24
ATOM     24  C   UNL     1       0.628   9.685  18.630  0.00  0.00    +0.000 A 
ATOM     25  C   UNL     1       1.022   9.760  19.961  0.00  0.00    +0.000 A 
ATOM     26  C   UNL     1       0.232  10.450  20.864  0.00  0.00    +0.000 A 
ATOM     27  C   UNL     1      -0.939  11.065  20.424  0.00  0.00    +0.000 A 
ATOM     28  C   UNL     1      -1.323  11.014  19.089  0.00  0.00    +0.000 A 
ATOM     29  C   UNL     1      -0.533  10.328  18.180  0.00  0.00    +0.000 A 
ENDBRANCH  23  24
ENDBRANCH  22  23
ENDBRANCH   4  22
BRANCH   5  30
ATOM     30  O   UNL     1       2.059   6.085  18.460  0.00  0.00    +0.000 OA
BRANCH  30  31
ATOM     31  C   UNL     1       1.925   6.088  19.874  0.00  0.00    +0.000 C 
BRANCH  31  32
ATOM     32  C   UNL     1       1.660   4.770  20.524  0.00  0.00    +0.000 A 
ATOM     33  C   UNL     1       0.731   3.882  19.982  0.00  0.00    +0.000 A 
ATOM     34  C   UNL     1       0.584   2.625  20.553  0.00  0.00    +0.000 A 
ATOM     35  C   UNL     1       1.379   2.257  21.638  0.00  0.00    +0.000 A 
ATOM     36  C   UNL     1       2.347   3.122  22.142  0.00  0.00    +0.000 A 
ATOM     37  C   UNL     1       2.494   4.374  21.578  0.00  0.00    +0.000 A 
ENDBRANCH  31  32
ENDBRANCH  30  31
ENDBRANCH   5  30
TORSDOF 12
ENDMDL
MODEL 2
REMARK VINA RESULT:      -7.1      0.499      1.090
REMARK  Name = 
REMARK  14 active torsions:
REMARK  status: ('A' for Active; 'I' for Inactive)
REMARK    1  A    between atoms: C_1  and  C_2
REMARK    2  A    between atoms: C_2  and  C_3
REMARK    3  A    between atoms: C_2  and  N_4
REMARK    4  A    between atoms: N_4  and  C_5
REMARK    5  A    between atoms: C_5  and  C_6
REMARK    6  A    between atoms: C_6  and  O_7
REMARK    7  A    between atoms: C_6  and  C_8
REMARK    8  A    between atoms: C_11  and  O_12
REMARK    9  A    between atoms: O_12  and  C_13
REMARK   10  A    between atoms: C_13  and  C_14
REMARK   11  A    between atoms: C_20  and  O_21
REMARK   12  A    between atoms: O_21  and  C_22
REMARK   13  A    between atoms: C_22  and  C_23
REMARK   14  A    between atoms: C_29  and  C_30
REMARK                            x       y       z     vdW  Elec       q    Type
REMARK                         _______ _______ _______ _____ _____    ______ ____
ROOT
ATOM      1  C   UNL     1       5.637   5.596  16.883  0.00  0.00    +0.000 A 
ATOM      2  C   UNL     1       5.918   6.963  16.650  0.00  0.00    +0.000 A 
ATOM      3  C   UNL     1       5.031   7.978  16.962  0.00  0.00    +0.000 A 
ATOM      4  C   UNL     1       3.815   7.700  17.564  0.00  0.00    +0.000 A 
ATOM      5  C   UNL     1       3.439   6.347  17.773  0.00  0.00    +0.000 A 
ATOM      6  C   UNL     1       4.368   5.254  17.478  0.00  0.00    +0.000 A 
ENDROOT
BRANCH   6   7
ATOM      7  C   UNL     1       3.993   3.827  17.844  0.00  0.00    +0.000 A 
ATOM      8  C   UNL     1       2.982   3.106  17.170  0.00  0.00    +0.000 A 
ATOM      9  C   UNL     1       2.509   1.862  17.616  0.00  0.00    +0.000 A 
ATOM     10  C   UNL     1       3.113   1.237  18.695  0.00  0.00    +0.000 A 
ATOM     11  C   UNL     1       4.169   1.870  19.335  0.00  0.00    +0.000 A 
ATOM     12  C   UNL     1       4.566   3.156  18.940  0.00  0.00    +0.000 A 
ENDBRANCH   6   7
BRANCH   1  13
ATOM     13  C   UNL     1       6.743   4.590  16.471  0.00  0.00    +0.000 C 
BRANCH  13  14
ATOM     14  O   UNL     1       8.005   5.011  17.012  0.00  0.00    +0.000 OA
ATOM     15  H   UNL     1       8.330   5.742  16.461  0.00  0.00    +0.000 HD
ENDBRANCH  13  14
BRANCH  13  16
ATOM     16  C   UNL     1       6.927   4.499  14.922  0.00  0.00    +0.000 C 
BRANCH  16  17
ATOM     17  N   UNL     1       6.111   3.532  14.154  0.00  0.00    +0.000 NA
ATOM     18  H   UNL     1       6.486   2.596  14.333  0.00  0.00    +0.000 HD
BRANCH  17  20
ATOM     19  C   UNL     1       7.426   4.696  12.394  0.00  0.00    +0.000 C 
ATOM     20  C   UNL     1       6.203   3.832  12.705  0.00  0.00    +0.000 C 
ATOM     21  C   UNL     1       6.280   2.559  11.851  0.00  0.00    +0.000 C 
ENDBRANCH  17  20
ENDBRANCH  16  17
ENDBRANCH  13  16
ENDBRANCH   1  13
BRANCH   4  22
ATOM     22  O   UNL     1       3.171   8.876  17.865  0.00  0.00    +0.000 OA
BRANCH  22  23
ATOM     23  C   UNL     1       1.824   9.011  17.446  0.00  0.00    +0.000 C 
BRANCH  23  24
ATOM     24  C   UNL     1       0.882   9.523  18.479  0.00  0.00    +0.000 A 
ATOM     25  C   UNL     1       1.258   9.606  19.814  0.00  0.00    +0.000 A 
ATOM     26  C   UNL     1       0.410  10.221  20.719  0.00  0.00    +0.000 A 
ATOM     27  C   UNL     1      -0.800  10.752  20.278  0.00  0.00    +0.000 A 
ATOM     28  C   UNL     1      -1.169  10.693  18.938  0.00  0.00    +0.000 A 
ATOM     29  C   UNL     1      -0.322  10.083  18.027  0.00  0.00    +0.000 A 
ENDBRANCH  23  24
ENDBRANCH  22  23
ENDBRANCH   4  22
BRANCH   5  30
ATOM     30  O   UNL     1       2.218   5.952  18.298  0.00  0.00    +0.000 OA
BRANCH  30  31
ATOM     31  C   UNL     1       2.002   6.060  19.698  0.00  0.00    +0.000 C 
BRANCH  31  32
ATOM     32  C   UNL     1       1.691   4.794  20.426  0.00  0.00    +0.000 A 
ATOM     33  C   UNL     1       0.719   3.916  19.947  0.00  0.00    +0.000 A 
ATOM     34  C   UNL     1       0.528   2.702  20.592  0.00  0.00    +0.000 A 
ATOM     35  C   UNL     1       1.321   2.365  21.688  0.00  0.00    +0.000 A 
ATOM     36  C   UNL     1       2.330   3.216  22.130  0.00  0.00    +0.000 A 
ATOM     37  C   UNL     1       2.521   4.426  21.493  0.00  0.00    +0.000 A 
ENDBRANCH  31  32
ENDBRANCH  30  31
ENDBRANCH   5  30
TORSDOF 12
ENDMDL
MODEL 3
REMARK VINA RESULT:      -6.9      0.226      1.171
REMARK  Name = 
REMARK  14 active torsions:
REMARK  status: ('A' for Active; 'I' for Inactive)
REMARK    1  A    between atoms: C_1  and  C_2
REMARK    2  A    between atoms: C_2  and  C_3
REMARK    3  A    between atoms: C_2  and  N_4
REMARK    4  A    between atoms: N_4  and  C_5
REMARK    5  A    between atoms: C_5  and  C_6
REMARK    6  A    between atoms: C_6  and  O_7
REMARK    7  A    between atoms: C_6  and  C_8
REMARK    8  A    between atoms: C_11  and  O_12
REMARK    9  A    between atoms: O_12  and  C_13
REMARK   10  A    between atoms: C_13  and  C_14
REMARK   11  A    between atoms: C_20  and  O_21
REMARK   12  A    between atoms: O_21  and  C_22
REMARK   13  A    between atoms: C_22  and  C_23
REMARK   14  A    between atoms: C_29  and  C_30
REMARK                            x       y       z     vdW  Elec       q    Type
REMARK                         _______ _______ _______ _____ _____    ______ ____
ROOT
ATOM      1  C   UNL     1       5.457   5.795  16.776  0.00  0.00    +0.000 A 
ATOM      2  C   UNL     1       5.681   7.176  16.559  0.00  0.00    +0.000 A 
ATOM      3  C   UNL     1       4.783   8.153  16.947  0.00  0.00    +0.000 A 
ATOM      4  C   UNL     1       3.615   7.823  17.615  0.00  0.00    +0.000 A 
ATOM      5  C   UNL     1       3.295   6.455  17.814  0.00  0.00    +0.000 A 
ATOM      6  C   UNL     1       4.238   5.399  17.438  0.00  0.00    +0.000 A 
ENDROOT
BRANCH   6   7
ATOM      7  C   UNL     1       3.931   3.953  17.793  0.00  0.00    +0.000 A 
ATOM      8  C   UNL     1       2.949   3.193  17.119  0.00  0.00    +0.000 A 
ATOM      9  C   UNL     1       2.536   1.925  17.555  0.00  0.00    +0.000 A 
ATOM     10  C   UNL     1       3.176   1.318  18.624  0.00  0.00    +0.000 A 
ATOM     11  C   UNL     1       4.207   1.991  19.262  0.00  0.00    +0.000 A 
ATOM     12  C   UNL     1       4.543   3.298  18.877  0.00  0.00    +0.000 A 
ENDBRANCH   6   7
BRANCH   1  13
ATOM     13  C   UNL     1       6.568   4.835  16.275  0.00  0.00    +0.000 C 
BRANCH  13  14
ATOM     14  O   UNL     1       7.605   5.591  15.631  0.00  0.00    +0.000 OA
ATOM     15  H   UNL     1       7.984   5.031  14.934  0.00  0.00    +0.000 HD
ENDBRANCH  13  14
BRANCH  13  16
ATOM     16  C   UNL     1       6.043   3.805  15.223  0.00  0.00    +0.000 C 
BRANCH  16  17
ATOM     17  N   UNL     1       5.570   4.293  13.908  0.00  0.00    +0.000 NA
ATOM     18  H   UNL     1       4.560   4.128  13.861  0.00  0.00    +0.000 HD
BRANCH  17  20
ATOM     19  C   UNL     1       5.228   2.934  11.855  0.00  0.00    +0.000 C 
ATOM     20  C   UNL     1       6.244   3.546  12.820  0.00  0.00    +0.000 C 
ATOM     21  C   UNL     1       7.205   4.431  12.014  0.00  0.00    +0.000 C 
ENDBRANCH  17  20
ENDBRANCH  16  17
ENDBRANCH  13  16
ENDBRANCH   1  13
BRANCH   4  22
ATOM     22  O   UNL     1       2.954   8.971  17.981  0.00  0.00    +0.000 OA
BRANCH  22  23
ATOM     23  C   UNL     1       1.606   9.111  17.567  0.00  0.00    +0.000 C 
BRANCH  23  24
ATOM     24  C   UNL     1       0.686   9.707  18.574  0.00  0.00    +0.000 A 
ATOM     25  C   UNL     1       1.124   9.999  19.860  0.00  0.00    +0.000 A 
ATOM     26  C   UNL     1       0.285  10.684  20.722  0.00  0.00    +0.000 A 
ATOM     27  C   UNL     1      -0.978  11.078  20.285  0.00  0.00    +0.000 A 
ATOM     28  C   UNL     1      -1.410  10.810  18.991  0.00  0.00    +0.000 A 
ATOM     29  C   UNL     1      -0.572  10.128  18.123  0.00  0.00    +0.000 A 
ENDBRANCH  23  24
ENDBRANCH  22  23
ENDBRANCH   4  22
BRANCH   5  30
ATOM     30  O   UNL     1       2.122   6.009  18.402  0.00  0.00    +0.000 OA
BRANCH  30  31
ATOM     31  C   UNL     1       2.021   5.997  19.819  0.00  0.00    +0.000 C 
BRANCH  31  32
ATOM     32  C   UNL     1       1.835   4.664  20.465  0.00  0.00    +0.000 A 
ATOM     33  C   UNL     1       2.534   4.329  21.624  0.00  0.00    +0.000 A 
ATOM     34  C   UNL     1       2.261   3.124  22.255  0.00  0.00    +0.000 A 
ATOM     35  C   UNL     1       1.279   2.277  21.741  0.00  0.00    +0.000 A 
ATOM     36  C   UNL     1       0.540   2.637  20.617  0.00  0.00    +0.000 A 
ATOM     37  C   UNL     1       0.812   3.835  19.985  0.00  0.00    +0.000 A 
ENDBRANCH  31  32
ENDBRANCH  30  31
ENDBRANCH   5  30
TORSDOF 12
ENDMDL
MODEL 4
REMARK VINA RESULT:      -6.8      0.432      1.223
REMARK  Name = 
REMARK  14 active torsions:
REMARK  status: ('A' for Active; 'I' for Inactive)
REMARK    1  A    between atoms: C_1  and  C_2
REMARK    2  A    between atoms: C_2  and  C_3
REMARK    3  A    between atoms: C_2  and  N_4
REMARK    4  A    between atoms: N_4  and  C_5
REMARK    5  A    between atoms: C_5  and  C_6
REMARK    6  A    between atoms: C_6  and  O_7
REMARK    7  A    between atoms: C_6  and  C_8
REMARK    8  A    between atoms: C_11  and  O_12
REMARK    9  A    between atoms: O_12  and  C_13
REMARK   10  A    between atoms: C_13  and  C_14
REMARK   11  A    between atoms: C_20  and  O_21
REMARK   12  A    between atoms: O_21  and  C_22
REMARK   13  A    between atoms: C_22  and  C_23
REMARK   14  A    between atoms: C_29  and  C_30
REMARK                            x       y       z     vdW  Elec       q    Type
REMARK                         _______ _______ _______ _____ _____    ______ ____
ROOT
ATOM      1  C   UNL     1       5.429   5.638  16.743  0.00  0.00    +0.000 A 
ATOM      2  C   UNL     1       5.688   7.008  16.501  0.00  0.00    +0.000 A 
ATOM      3  C   UNL     1       4.825   8.017  16.890  0.00  0.00    +0.000 A 
ATOM      4  C   UNL     1       3.662   7.731  17.583  0.00  0.00    +0.000 A 
ATOM      5  C   UNL     1       3.307   6.375  17.809  0.00  0.00    +0.000 A 
ATOM      6  C   UNL     1       4.212   5.287  17.433  0.00  0.00    +0.000 A 
ENDROOT
BRANCH   6   7
ATOM      7  C   UNL     1       3.870   3.856  17.815  0.00  0.00    +0.000 A 
ATOM      8  C   UNL     1       2.857   3.113  17.169  0.00  0.00    +0.000 A 
ATOM      9  C   UNL     1       2.416   1.865  17.632  0.00  0.00    +0.000 A 
ATOM     10  C   UNL     1       3.055   1.256  18.700  0.00  0.00    +0.000 A 
ATOM     11  C   UNL     1       4.114   1.910  19.312  0.00  0.00    +0.000 A 
ATOM     12  C   UNL     1       4.480   3.201  18.901  0.00  0.00    +0.000 A 
ENDBRANCH   6   7
BRANCH   1  13
ATOM     13  C   UNL     1       6.502   4.639  16.237  0.00  0.00    +0.000 C 
BRANCH  13  14
ATOM     14  O   UNL     1       7.792   5.018  16.741  0.00  0.00    +0.000 OA
ATOM     15  H   UNL     1       8.108   5.764  16.205  0.00  0.00    +0.000 HD
ENDBRANCH  13  14
BRANCH  13  16
ATOM     16  C   UNL     1       6.618   4.618  14.679  0.00  0.00    +0.000 C 
BRANCH  16  17
ATOM     17  N   UNL     1       5.821   3.636  13.909  0.00  0.00    +0.000 NA
ATOM     18  H   UNL     1       5.723   2.794  14.485  0.00  0.00    +0.000 HD
BRANCH  17  20
ATOM     19  C   UNL     1       5.565   2.672  11.631  0.00  0.00    +0.000 C 
ATOM     20  C   UNL     1       6.523   3.293  12.649  0.00  0.00    +0.000 C 
ATOM     21  C   UNL     1       7.190   4.515  12.003  0.00  0.00    +0.000 C 
ENDBRANCH  17  20
ENDBRANCH  16  17
ENDBRANCH  13  16
ENDBRANCH   1  13
BRANCH   4  22
ATOM     22  O   UNL     1       3.041   8.902  17.943  0.00  0.00    +0.000 OA
BRANCH  22  23
ATOM     23  C   UNL     1       1.713   9.106  17.490  0.00  0.00    +0.000 C 
BRANCH  23  24
ATOM     24  C   UNL     1       0.804   9.780  18.457  0.00  0.00    +0.000 A 
ATOM     25  C   UNL     1      -0.506  10.091  18.112  0.00  0.00    +0.000 A 
ATOM     26  C   UNL     1      -1.363  10.584  19.081  0.00  0.00    +0.000 A 
ATOM     27  C   UNL     1      -0.903  10.752  20.386  0.00  0.00    +0.000 A 
ATOM     28  C   UNL     1       0.400  10.418  20.740  0.00  0.00    +0.000 A 
ATOM     29  C   UNL     1       1.260   9.920  19.775  0.00  0.00    +0.000 A 
ENDBRANCH  23  24
ENDBRANCH  22  23
ENDBRANCH   4  22
BRANCH   5  30
ATOM     30  O   UNL     1       2.132   5.972  18.425  0.00  0.00    +0.000 OA
BRANCH  30  31
ATOM     31  C   UNL     1       2.046   6.013  19.842  0.00  0.00    +0.000 C 
BRANCH  31  32
ATOM     32  C   UNL     1       1.684   4.737  20.528  0.00  0.00    +0.000 A 
ATOM     33  C   UNL     1       0.687   3.909  20.013  0.00  0.00    +0.000 A 
ATOM     34  C   UNL     1       0.447   2.683  20.617  0.00  0.00    +0.000 A 
ATOM     35  C   UNL     1       1.216   2.284  21.711  0.00  0.00    +0.000 A 
ATOM     36  C   UNL     1       2.250   3.086  22.189  0.00  0.00    +0.000 A 
ATOM     37  C   UNL     1       2.490   4.307  21.591  0.00  0.00    +0.000 A 
ENDBRANCH  31  32
ENDBRANCH  30  31
ENDBRANCH   5  30
TORSDOF 12
ENDMDL
MODEL 5
REMARK VINA RESULT:      -6.8      1.432      2.734
REMARK  Name = 
REMARK  14 active torsions:
REMARK  status: ('A' for Active; 'I' for Inactive)
REMARK    1  A    between atoms: C_1  and  C_2
REMARK    2  A    between atoms: C_2  and  C_3
REMARK    3  A    between atoms: C_2  and  N_4
REMARK    4  A    between atoms: N_4  and  C_5
REMARK    5  A    between atoms: C_5  and  C_6
REMARK    6  A    between atoms: C_6  and  O_7
REMARK    7  A    between atoms: C_6  and  C_8
REMARK    8  A    between atoms: C_11  and  O_12
REMARK    9  A    between atoms: O_12  and  C_13
REMARK   10  A    between atoms: C_13  and  C_14
REMARK   11  A    between atoms: C_20  and  O_21
REMARK   12  A    between atoms: O_21  and  C_22
REMARK   13  A    between atoms: C_22  and  C_23
REMARK   14  A    between atoms: C_29  and  C_30
REMARK                            x       y       z     vdW  Elec       q    Type
REMARK                         _______ _______ _______ _____ _____    ______ ____
ROOT
ATOM      1  C   UNL     1       4.490   5.465  17.065  0.00  0.00    +0.000 A 
ATOM      2  C   UNL     1       4.837   6.742  16.563  0.00  0.00    +0.000 A 
ATOM      3  C   UNL     1       4.162   7.898  16.913  0.00  0.00    +0.000 A 
ATOM      4  C   UNL     1       3.117   7.864  17.821  0.00  0.00    +0.000 A 
ATOM      5  C   UNL     1       2.675   6.611  18.321  0.00  0.00    +0.000 A 
ATOM      6  C   UNL     1       3.386   5.375  17.989  0.00  0.00    +0.000 A 
ENDROOT
BRANCH   6   7
ATOM      7  C   UNL     1       2.977   4.069  18.652  0.00  0.00    +0.000 A 
ATOM      8  C   UNL     1       1.898   3.283  18.190  0.00  0.00    +0.000 A 
ATOM      9  C   UNL     1       1.403   2.178  18.899  0.00  0.00    +0.000 A 
ATOM     10  C   UNL     1       2.048   1.746  20.047  0.00  0.00    +0.000 A 
ATOM     11  C   UNL     1       3.167   2.436  20.490  0.00  0.00    +0.000 A 
ATOM     12  C   UNL     1       3.591   3.597  19.826  0.00  0.00    +0.000 A 
ENDBRANCH   6   7
BRANCH   1  13
ATOM     13  C   UNL     1       5.352   4.276  16.566  0.00  0.00    +0.000 C 
BRANCH  13  14
ATOM     14  O   UNL     1       6.414   4.023  17.499  0.00  0.00    +0.000 OA
ATOM     15  H   UNL     1       6.246   4.566  18.286  0.00  0.00    +0.000 HD
ENDBRANCH  13  14
BRANCH  13  16
ATOM     16  C   UNL     1       6.026   4.559  15.184  0.00  0.00    +0.000 C 
BRANCH  16  17
ATOM     17  N   UNL     1       5.289   4.235  13.942  0.00  0.00    +0.000 NA
ATOM     18  H   UNL     1       4.515   3.612  14.193  0.00  0.00    +0.000 HD
BRANCH  17  20
ATOM     19  C   UNL     1       5.401   2.926  11.832  0.00  0.00    +0.000 C 
ATOM     20  C   UNL     1       6.189   3.547  12.986  0.00  0.00    +0.000 C 
ATOM     21  C   UNL     1       7.246   4.491  12.399  0.00  0.00    +0.000 C 
ENDBRANCH  17  20
ENDBRANCH  16  17
ENDBRANCH  13  16
ENDBRANCH   1  13
BRANCH   4  22
ATOM     22  O   UNL     1       2.690   9.144  18.078  0.00  0.00    +0.000 OA
BRANCH  22  23
ATOM     23  C   UNL     1       1.350   9.466  17.747  0.00  0.00    +0.000 C 
BRANCH  23  24
ATOM     24  C   UNL     1       0.687  10.449  18.647  0.00  0.00    +0.000 A 
ATOM     25  C   UNL     1       1.423  11.426  19.307  0.00  0.00    +0.000 A 
ATOM     26  C   UNL     1       0.757  12.410  20.019  0.00  0.00    +0.000 A 
ATOM     27  C   UNL     1      -0.635  12.410  20.056  0.00  0.00    +0.000 A 
ATOM     28  C   UNL     1      -1.376  11.448  19.377  0.00  0.00    +0.000 A 
ATOM     29  C   UNL     1      -0.715  10.464  18.659  0.00  0.00    +0.000 A 
ENDBRANCH  23  24
ENDBRANCH  22  23
ENDBRANCH   4  22
BRANCH   5  30
ATOM     30  O   UNL     1       1.594   6.453  19.174  0.00  0.00    +0.000 OA
BRANCH  30  31
ATOM     31  C   UNL     1       1.788   6.618  20.572  0.00  0.00    +0.000 C 
BRANCH  31  32
ATOM     32  C   UNL     1       1.100   7.778  21.212  0.00  0.00    +0.000 A 
ATOM     33  C   UNL     1      -0.292   7.831  21.281  0.00  0.00    +0.000 A 
ATOM     34  C   UNL     1      -0.895   8.873  21.972  0.00  0.00    +0.000 A 
ATOM     35  C   UNL     1      -0.109   9.834  22.606  0.00  0.00    +0.000 A 
ATOM     36  C   UNL     1       1.281   9.749  22.585  0.00  0.00    +0.000 A 
ATOM     37  C   UNL     1       1.885   8.715  21.896  0.00  0.00    +0.000 A 
ENDBRANCH  31  32
ENDBRANCH  30  31
ENDBRANCH   5  30
TORSDOF 12
ENDMDL
MODEL 6
REMARK VINA RESULT:      -6.6      2.070      7.453
REMARK  Name = 
REMARK  14 active torsions:
REMARK  status: ('A' for Active; 'I' for Inactive)
REMARK    1  A    between atoms: C_1  and  C_2
REMARK    2  A    between atoms: C_2  and  C_3
REMARK    3  A    between atoms: C_2  and  N_4
REMARK    4  A    between atoms: N_4  and  C_5
REMARK    5  A    between atoms: C_5  and  C_6
REMARK    6  A    between atoms: C_6  and  O_7
REMARK    7  A    between atoms: C_6  and  C_8
REMARK    8  A    between atoms: C_11  and  O_12
REMARK    9  A    between atoms: O_12  and  C_13
REMARK   10  A    between atoms: C_13  and  C_14
REMARK   11  A    between atoms: C_20  and  O_21
REMARK   12  A    between atoms: O_21  and  C_22
REMARK   13  A    between atoms: C_22  and  C_23
REMARK   14  A    between atoms: C_29  and  C_30
REMARK                            x       y       z     vdW  Elec       q    Type
REMARK                         _______ _______ _______ _____ _____    ______ ____
ROOT
ATOM      1  C   UNL     1       3.094   6.411  18.219  0.00  0.00    +0.000 A 
ATOM      2  C   UNL     1       1.837   5.770  18.118  0.00  0.00    +0.000 A 
ATOM      3  C   UNL     1       1.680   4.499  17.595  0.00  0.00    +0.000 A 
ATOM      4  C   UNL     1       2.774   3.763  17.172  0.00  0.00    +0.000 A 
ATOM      5  C   UNL     1       4.060   4.365  17.188  0.00  0.00    +0.000 A 
ATOM      6  C   UNL     1       4.261   5.698  17.760  0.00  0.00    +0.000 A 
ENDROOT
BRANCH   6   7
ATOM      7  C   UNL     1       5.668   6.256  17.893  0.00  0.00    +0.000 A 
ATOM      8  C   UNL     1       6.626   5.711  18.777  0.00  0.00    +0.000 A 
ATOM      9  C   UNL     1       7.859   6.327  19.037  0.00  0.00    +0.000 A 
ATOM     10  C   UNL     1       8.230   7.460  18.330  0.00  0.00    +0.000 A 
ATOM     11  C   UNL     1       7.357   7.981  17.387  0.00  0.00    +0.000 A 
ATOM     12  C   UNL     1       6.087   7.412  17.209  0.00  0.00    +0.000 A 
ENDBRANCH   6   7
BRANCH   1  13
ATOM     13  C   UNL     1       3.087   7.837  18.829  0.00  0.00    +0.000 C 
BRANCH  13  14
ATOM     14  O   UNL     1       2.338   7.836  20.054  0.00  0.00    +0.000 OA
ATOM     15  H   UNL     1       1.549   8.384  19.913  0.00  0.00    +0.000 HD
ENDBRANCH  13  14
BRANCH  13  16
ATOM     16  C   UNL     1       2.413   8.890  17.891  0.00  0.00    +0.000 C 
BRANCH  16  17
ATOM     17  N   UNL     1       0.941   9.048  17.924  0.00  0.00    +0.000 NA
ATOM     18  H   UNL     1       0.597   8.960  16.962  0.00  0.00    +0.000 HD
BRANCH  17  20
ATOM     19  C   UNL     1      -0.039  10.287  19.843  0.00  0.00    +0.000 C 
ATOM     20  C   UNL     1       0.590  10.387  18.453  0.00  0.00    +0.000 C 
ATOM     21  C   UNL     1       1.807  11.318  18.539  0.00  0.00    +0.000 C 
ENDBRANCH  17  20
ENDBRANCH  16  17
ENDBRANCH  13  16
ENDBRANCH   1  13
BRANCH   4  22
ATOM     22  O   UNL     1       2.367   2.505  16.798  0.00  0.00    +0.000 OA
BRANCH  22  23
ATOM     23  C   UNL     1       2.394   1.488  17.786  0.00  0.00    +0.000 C 
BRANCH  23  24
ATOM     24  C   UNL     1       2.347   1.964  19.195  0.00  0.00    +0.000 A 
ATOM     25  C   UNL     1       3.514   2.225  19.903  0.00  0.00    +0.000 A 
ATOM     26  C   UNL     1       3.430   2.803  21.158  0.00  0.00    +0.000 A 
ATOM     27  C   UNL     1       2.181   3.121  21.687  0.00  0.00    +0.000 A 
ATOM     28  C   UNL     1       1.012   2.885  20.972  0.00  0.00    +0.000 A 
ATOM     29  C   UNL     1       1.091   2.310  19.713  0.00  0.00    +0.000 A 
ENDBRANCH  23  24
ENDBRANCH  22  23
ENDBRANCH   4  22
BRANCH   5  30
ATOM     30  O   UNL     1       5.211   3.750  16.720  0.00  0.00    +0.000 OA
BRANCH  30  31
ATOM     31  C   UNL     1       5.221   3.214  15.404  0.00  0.00    +0.000 C 
BRANCH  31  32
ATOM     32  C   UNL     1       6.053   3.934  14.395  0.00  0.00    +0.000 A 
ATOM     33  C   UNL     1       6.987   4.890  14.792  0.00  0.00    +0.000 A 
ATOM     34  C   UNL     1       7.814   5.465  13.837  0.00  0.00    +0.000 A 
ATOM     35  C   UNL     1       7.721   5.065  12.504  0.00  0.00    +0.000 A 
ATOM     36  C   UNL     1       6.829   4.068  12.118  0.00  0.00    +0.000 A 
ATOM     37  C   UNL     1       6.002   3.495  13.065  0.00  0.00    +0.000 A 
ENDBRANCH  31  32
ENDBRANCH  30  31
ENDBRANCH   5  30
TORSDOF 12
ENDMDL
MODEL 7
REMARK VINA RESULT:      -6.6      2.490      7.177
REMARK  Name = 
REMARK  14 active torsions:
REMARK  status: ('A' for Active; 'I' for Inactive)
REMARK    1  A    between atoms: C_1  and  C_2
REMARK    2  A    between atoms: C_2  and  C_3
REMARK    3  A    between atoms: C_2  and  N_4
REMARK    4  A    between atoms: N_4  and  C_5
REMARK    5  A    between atoms: C_5  and  C_6
REMARK    6  A    between atoms: C_6  and  O_7
REMARK    7  A    between atoms: C_6  and  C_8
REMARK    8  A    between atoms: C_11  and  O_12
REMARK    9  A    between atoms: O_12  and  C_13
REMARK   10  A    between atoms: C_13  and  C_14
REMARK   11  A    between atoms: C_20  and  O_21
REMARK   12  A    between atoms: O_21  and  C_22
REMARK   13  A    between atoms: C_22  and  C_23
REMARK   14  A    between atoms: C_29  and  C_30
REMARK                            x       y       z     vdW  Elec       q    Type
REMARK                         _______ _______ _______ _____ _____    ______ ____
ROOT
ATOM      1  C   UNL     1       2.111   5.640  19.994  0.00  0.00    +0.000 A 
ATOM      2  C   UNL     1       2.824   4.985  18.962  0.00  0.00    +0.000 A 
ATOM      3  C   UNL     1       3.346   5.651  17.868  0.00  0.00    +0.000 A 
ATOM      4  C   UNL     1       3.224   7.025  17.746  0.00  0.00    +0.000 A 
ATOM      5  C   UNL     1       2.470   7.741  18.712  0.00  0.00    +0.000 A 
ATOM      6  C   UNL     1       1.928   7.068  19.895  0.00  0.00    +0.000 A 
ENDROOT
BRANCH   6   7
ATOM      7  C   UNL     1       1.249   7.884  20.982  0.00  0.00    +0.000 A 
ATOM      8  C   UNL     1      -0.156   7.950  21.122  0.00  0.00    +0.000 A 
ATOM      9  C   UNL     1      -0.791   8.838  22.003  0.00  0.00    +0.000 A 
ATOM     10  C   UNL     1      -0.037   9.618  22.865  0.00  0.00    +0.000 A 
ATOM     11  C   UNL     1       1.346   9.522  22.824  0.00  0.00    +0.000 A 
ATOM     12  C   UNL     1       1.970   8.703  21.870  0.00  0.00    +0.000 A 
ENDBRANCH   6   7
BRANCH   1  13
ATOM     13  C   UNL     1       1.593   4.740  21.146  0.00  0.00    +0.000 C 
BRANCH  13  14
ATOM     14  O   UNL     1       2.668   4.449  22.052  0.00  0.00    +0.000 OA
ATOM     15  H   UNL     1       2.957   5.291  22.442  0.00  0.00    +0.000 HD
ENDBRANCH  13  14
BRANCH  13  16
ATOM     16  C   UNL     1       1.050   3.365  20.638  0.00  0.00    +0.000 C 
BRANCH  16  17
ATOM     17  N   UNL     1       1.966   2.204  20.579  0.00  0.00    +0.000 NA
ATOM     18  H   UNL     1       2.919   2.552  20.723  0.00  0.00    +0.000 HD
BRANCH  17  20
ATOM     19  C   UNL     1       0.838   2.249  18.364  0.00  0.00    +0.000 C 
ATOM     20  C   UNL     1       1.873   1.555  19.250  0.00  0.00    +0.000 C 
ATOM     21  C   UNL     1       3.217   1.549  18.510  0.00  0.00    +0.000 C 
ENDBRANCH  17  20
ENDBRANCH  16  17
ENDBRANCH  13  16
ENDBRANCH   1  13
BRANCH   4  22
ATOM     22  O   UNL     1       3.913   7.452  16.636  0.00  0.00    +0.000 OA
BRANCH  22  23
ATOM     23  C   UNL     1       5.113   6.772  16.309  0.00  0.00    +0.000 C 
BRANCH  23  24
ATOM     24  C   UNL     1       6.226   6.933  17.285  0.00  0.00    +0.000 A 
ATOM     25  C   UNL     1       6.638   5.873  18.083  0.00  0.00    +0.000 A 
ATOM     26  C   UNL     1       7.767   6.018  18.871  0.00  0.00    +0.000 A 
ATOM     27  C   UNL     1       8.475   7.217  18.847  0.00  0.00    +0.000 A 
ATOM     28  C   UNL     1       8.079   8.272  18.031  0.00  0.00    +0.000 A 
ATOM     29  C   UNL     1       6.953   8.130  17.236  0.00  0.00    +0.000 A 
ENDBRANCH  23  24
ENDBRANCH  22  23
ENDBRANCH   4  22
BRANCH   5  30
ATOM     30  O   UNL     1       2.221   9.103  18.650  0.00  0.00    +0.000 OA
BRANCH  30  31
ATOM     31  C   UNL     1       1.140   9.572  17.856  0.00  0.00    +0.000 C 
BRANCH  31  32
ATOM     32  C   UNL     1       0.097  10.379  18.556  0.00  0.00    +0.000 A 
ATOM     33  C   UNL     1       0.451  11.309  19.533  0.00  0.00    +0.000 A 
ATOM     34  C   UNL     1      -0.533  12.114  20.089  0.00  0.00    +0.000 A 
ATOM     35  C   UNL     1      -1.852  12.003  19.651  0.00  0.00    +0.000 A 
ATOM     36  C   UNL     1      -2.196  11.116  18.634  0.00  0.00    +0.000 A 
ATOM     37  C   UNL     1      -1.219  10.311  18.080  0.00  0.00    +0.000 A 
ENDBRANCH  31  32
ENDBRANCH  30  31
ENDBRANCH   5  30
TORSDOF 12
ENDMDL
MODEL 8
REMARK VINA RESULT:      -6.6      0.866      1.362
REMARK  Name = 
REMARK  14 active torsions:
REMARK  status: ('A' for Active; 'I' for Inactive)
REMARK    1  A    between atoms: C_1  and  C_2
REMARK    2  A    between atoms: C_2  and  C_3
REMARK    3  A    between atoms: C_2  and  N_4
REMARK    4  A    between atoms: N_4  and  C_5
REMARK    5  A    between atoms: C_5  and  C_6
REMARK    6  A    between atoms: C_6  and  O_7
REMARK    7  A    between atoms: C_6  and  C_8
REMARK    8  A    between atoms: C_11  and  O_12
REMARK    9  A    between atoms: O_12  and  C_13
REMARK   10  A    between atoms: C_13  and  C_14
REMARK   11  A    between atoms: C_20  and  O_21
REMARK   12  A    between atoms: O_21  and  C_22
REMARK   13  A    between atoms: C_22  and  C_23
REMARK   14  A    between atoms: C_29  and  C_30
REMARK                            x       y       z     vdW  Elec       q    Type
REMARK                         _______ _______ _______ _____ _____    ______ ____
ROOT
ATOM      1  C   UNL     1       5.506   6.225  17.339  0.00  0.00    +0.000 A 
ATOM      2  C   UNL     1       5.444   7.616  17.085  0.00  0.00    +0.000 A 
ATOM      3  C   UNL     1       4.270   8.344  17.164  0.00  0.00    +0.000 A 
ATOM      4  C   UNL     1       3.082   7.740  17.539  0.00  0.00    +0.000 A 
ATOM      5  C   UNL     1       3.056   6.336  17.751  0.00  0.00    +0.000 A 
ATOM      6  C   UNL     1       4.287   5.544  17.701  0.00  0.00    +0.000 A 
ENDROOT
BRANCH   6   7
ATOM      7  C   UNL     1       4.250   4.071  18.072  0.00  0.00    +0.000 A 
ATOM      8  C   UNL     1       3.607   3.098  17.274  0.00  0.00    +0.000 A 
ATOM      9  C   UNL     1       3.414   1.774  17.697  0.00  0.00    +0.000 A 
ATOM     10  C   UNL     1       3.962   1.342  18.894  0.00  0.00    +0.000 A 
ATOM     11  C   UNL     1       4.678   2.241  19.670  0.00  0.00    +0.000 A 
ATOM     12  C   UNL     1       4.779   3.586  19.282  0.00  0.00    +0.000 A 
ENDBRANCH   6   7
BRANCH   1  13
ATOM     13  C   UNL     1       6.904   5.567  17.204  0.00  0.00    +0.000 C 
BRANCH  13  14
ATOM     14  O   UNL     1       7.901   6.583  17.013  0.00  0.00    +0.000 OA
ATOM     15  H   UNL     1       7.472   7.443  17.157  0.00  0.00    +0.000 HD
ENDBRANCH  13  14
BRANCH  13  16
ATOM     16  C   UNL     1       7.000   4.606  15.975  0.00  0.00    +0.000 C 
BRANCH  16  17
ATOM     17  N   UNL     1       7.623   5.095  14.724  0.00  0.00    +0.000 NA
ATOM     18  H   UNL     1       7.824   6.092  14.845  0.00  0.00    +0.000 HD
BRANCH  17  20
ATOM     19  C   UNL     1       7.430   4.522  12.312  0.00  0.00    +0.000 C 
ATOM     20  C   UNL     1       6.686   4.913  13.590  0.00  0.00    +0.000 C 
ATOM     21  C   UNL     1       5.623   3.844  13.878  0.00  0.00    +0.000 C 
ENDBRANCH  17  20
ENDBRANCH  16  17
ENDBRANCH  13  16
ENDBRANCH   1  13
BRANCH   4  22
ATOM     22  O   UNL     1       2.096   8.691  17.643  0.00  0.00    +0.000 OA
BRANCH  22  23
ATOM     23  C   UNL     1       1.712   9.096  18.947  0.00  0.00    +0.000 C 
BRANCH  23  24
ATOM     24  C   UNL     1       0.425   9.839  19.032  0.00  0.00    +0.000 A 
ATOM     25  C   UNL     1       0.132  10.642  20.128  0.00  0.00    +0.000 A 
ATOM     26  C   UNL     1      -1.007  11.429  20.106  0.00  0.00    +0.000 A 
ATOM     27  C   UNL     1      -1.834  11.411  18.985  0.00  0.00    +0.000 A 
ATOM     28  C   UNL     1      -1.531  10.628  17.876  0.00  0.00    +0.000 A 
ATOM     29  C   UNL     1      -0.390   9.841  17.892  0.00  0.00    +0.000 A 
ENDBRANCH  23  24
ENDBRANCH  22  23
ENDBRANCH   4  22
BRANCH   5  30
ATOM     30  O   UNL     1       1.910   5.618  18.056  0.00  0.00    +0.000 OA
BRANCH  30  31
ATOM     31  C   UNL     1       1.355   5.726  19.359  0.00  0.00    +0.000 C 
BRANCH  31  32
ATOM     32  C   UNL     1       1.376   4.493  20.200  0.00  0.00    +0.000 A 
ATOM     33  C   UNL     1       0.791   3.311  19.747  0.00  0.00    +0.000 A 
ATOM     34  C   UNL     1       0.918   2.158  20.509  0.00  0.00    +0.000 A 
ATOM     35  C   UNL     1       1.645   2.187  21.698  0.00  0.00    +0.000 A 
ATOM     36  C   UNL     1       2.278   3.353  22.121  0.00  0.00    +0.000 A 
ATOM     37  C   UNL     1       2.152   4.503  21.367  0.00  0.00    +0.000 A 
ENDBRANCH  31  32
ENDBRANCH  30  31
ENDBRANCH   5  30
TORSDOF 12
ENDMDL
MODEL 9
REMARK VINA RESULT:      -6.5      2.128      7.512
REMARK  Name = 
REMARK  14 active torsions:
REMARK  status: ('A' for Active; 'I' for Inactive)
REMARK    1  A    between atoms: C_1  and  C_2
REMARK    2  A    between atoms: C_2  and  C_3
REMARK    3  A    between atoms: C_2  and  N_4
REMARK    4  A    between atoms: N_4  and  C_5
REMARK    5  A    between atoms: C_5  and  C_6
REMARK    6  A    between atoms: C_6  and  O_7
REMARK    7  A    between atoms: C_6  and  C_8
REMARK    8  A    between atoms: C_11  and  O_12
REMARK    9  A    between atoms: O_12  and  C_13
REMARK   10  A    between atoms: C_13  and  C_14
REMARK   11  A    between atoms: C_20  and  O_21
REMARK   12  A    between atoms: O_21  and  C_22
REMARK   13  A    between atoms: C_22  and  C_23
REMARK   14  A    between atoms: C_29  and  C_30
REMARK                            x       y       z     vdW  Elec       q    Type
REMARK                         _______ _______ _______ _____ _____    ______ ____
ROOT
ATOM      1  C   UNL     1       3.083   6.473  18.079  0.00  0.00    +0.000 A 
ATOM      2  C   UNL     1       1.827   5.830  17.970  0.00  0.00    +0.000 A 
ATOM      3  C   UNL     1       1.681   4.539  17.496  0.00  0.00    +0.000 A 
ATOM      4  C   UNL     1       2.784   3.785  17.133  0.00  0.00    +0.000 A 
ATOM      5  C   UNL     1       4.071   4.384  17.159  0.00  0.00    +0.000 A 
ATOM      6  C   UNL     1       4.260   5.740  17.681  0.00  0.00    +0.000 A 
ENDROOT
BRANCH   6   7
ATOM      7  C   UNL     1       5.664   6.301  17.829  0.00  0.00    +0.000 A 
ATOM      8  C   UNL     1       6.611   5.762  18.728  0.00  0.00    +0.000 A 
ATOM      9  C   UNL     1       7.841   6.382  19.000  0.00  0.00    +0.000 A 
ATOM     10  C   UNL     1       8.219   7.512  18.291  0.00  0.00    +0.000 A 
ATOM     11  C   UNL     1       7.356   8.026  17.334  0.00  0.00    +0.000 A 
ATOM     12  C   UNL     1       6.090   7.453  17.143  0.00  0.00    +0.000 A 
ENDBRANCH   6   7
BRANCH   1  13
ATOM     13  C   UNL     1       3.063   7.923  18.629  0.00  0.00    +0.000 C 
BRANCH  13  14
ATOM     14  O   UNL     1       2.171   8.003  19.751  0.00  0.00    +0.000 OA
ATOM     15  H   UNL     1       2.472   8.737  20.312  0.00  0.00    +0.000 HD
ENDBRANCH  13  14
BRANCH  13  16
ATOM     16  C   UNL     1       2.555   8.960  17.576  0.00  0.00    +0.000 C 
BRANCH  16  17
ATOM     17  N   UNL     1       1.271   9.657  17.811  0.00  0.00    +0.000 NA
ATOM     18  H   UNL     1       0.906   9.954  16.900  0.00  0.00    +0.000 HD
BRANCH  17  20
ATOM     19  C   UNL     1       2.394  11.869  17.974  0.00  0.00    +0.000 C 
ATOM     20  C   UNL     1       1.491  10.847  18.666  0.00  0.00    +0.000 C 
ATOM     21  C   UNL     1       0.177  11.542  19.047  0.00  0.00    +0.000 C 
ENDBRANCH  17  20
ENDBRANCH  16  17
ENDBRANCH  13  16
ENDBRANCH   1  13
BRANCH   4  22
ATOM     22  O   UNL     1       2.384   2.513  16.801  0.00  0.00    +0.000 OA
BRANCH  22  23
ATOM     23  C   UNL     1       2.274   1.566  17.851  0.00  0.00    +0.000 C 
BRANCH  23  24
ATOM     24  C   UNL     1       2.242   2.136  19.225  0.00  0.00    +0.000 A 
ATOM     25  C   UNL     1       1.037   2.430  19.852  0.00  0.00    +0.000 A 
ATOM     26  C   UNL     1       1.042   2.822  21.180  0.00  0.00    +0.000 A 
ATOM     27  C   UNL     1       2.251   2.905  21.868  0.00  0.00    +0.000 A 
ATOM     28  C   UNL     1       3.456   2.587  21.252  0.00  0.00    +0.000 A 
ATOM     29  C   UNL     1       3.456   2.191  19.924  0.00  0.00    +0.000 A 
ENDBRANCH  23  24
ENDBRANCH  22  23
ENDBRANCH   4  22
BRANCH   5  30
ATOM     30  O   UNL     1       5.232   3.749  16.748  0.00  0.00    +0.000 OA
BRANCH  30  31
ATOM     31  C   UNL     1       5.286   3.185  15.445  0.00  0.00    +0.000 C 
BRANCH  31  32
ATOM     32  C   UNL     1       6.090   3.926  14.428  0.00  0.00    +0.000 A 
ATOM     33  C   UNL     1       7.024   4.885  14.818  0.00  0.00    +0.000 A 
ATOM     34  C   UNL     1       7.825   5.480  13.854  0.00  0.00    +0.000 A 
ATOM     35  C   UNL     1       7.706   5.098  12.518  0.00  0.00    +0.000 A 
ATOM     36  C   UNL     1       6.814   4.098  12.137  0.00  0.00    +0.000 A 
ATOM     37  C   UNL     1       6.014   3.506  13.093  0.00  0.00    +0.000 A 
ENDBRANCH  31  32
ENDBRANCH  30  31
ENDBRANCH   5  30
TORSDOF 12
ENDMDL
