MODEL 1
REMARK VINA RESULT:      -7.0      0.000      0.000
REMARK  Name = 
REMARK  2 active torsions:
REMARK  status: ('A' for Active; 'I' for Inactive)
REMARK    1  A    between atoms: N_1  and  C_2
REMARK    2  A    between atoms: C_2  and  C_3
REMARK                            x       y       z     vdW  Elec       q    Type
REMARK                         _______ _______ _______ _____ _____    ______ ____
ROOT
ATOM      1  C   UNL     1       2.990   3.079  18.861  0.00  0.00    +0.000 C 
ATOM      2  C   UNL     1       2.750   3.622  17.446  0.00  0.00    +0.000 C 
ATOM      3  C   UNL     1       4.047   4.004  16.728  0.00  0.00    +0.000 C 
ATOM      4  C   UNL     1       4.367   5.375  17.288  0.00  0.00    +0.000 C 
ATOM      5  C   UNL     1       3.445   5.487  18.484  0.00  0.00    +0.000 C 
ATOM      6  C   UNL     1       2.112   4.938  17.983  0.00  0.00    +0.000 C 
ATOM      7  C   UNL     1       1.373   4.555  19.307  0.00  0.00    +0.000 C 
ATOM      8  C   UNL     1       2.398   4.776  20.451  0.00  0.00    +0.000 C 
ATOM      9  C   UNL     1       2.133   3.736  21.534  0.00  0.00    +0.000 C 
ATOM     10  C   UNL     1       1.295   2.692  20.815  0.00  0.00    +0.000 C 
ATOM     11  C   UNL     1       1.509   3.040  19.353  0.00  0.00    +0.000 C 
ATOM     12  C   UNL     1       3.581   4.383  19.565  0.00  0.00    +0.000 C 
ENDROOT
BRANCH   1  13
ATOM     13  C   UNL     1       3.801   1.808  19.065  0.00  0.00    +0.000 C 
BRANCH  13  14
ATOM     14  N   UNL     1       4.967   2.009  19.928  0.00  0.00    +0.000 NA
ATOM     15  H   UNL     1       5.614   2.675  19.491  0.00  0.00    +0.000 HD
ATOM     16  H   UNL     1       4.675   2.447  20.799  0.00  0.00    +0.000 HD
ENDBRANCH  13  14
ENDBRANCH   1  13
TORSDOF 2
ENDMDL
MODEL 2
REMARK VINA RESULT:      -6.9      0.890      1.225
REMARK  Name = 
REMARK  2 active torsions:
REMARK  status: ('A' for Active; 'I' for Inactive)
REMARK    1  A    between atoms: N_1  and  C_2
REMARK    2  A    between atoms: C_2  and  C_3
REMARK                            x       y       z     vdW  Elec       q    Type
REMARK                         _______ _______ _______ _____ _____    ______ ____
ROOT
ATOM      1  C   UNL     1       3.351   3.178  18.512  0.00  0.00    +0.000 C 
ATOM      2  C   UNL     1       4.010   4.018  17.409  0.00  0.00    +0.000 C 
ATOM      3  C   UNL     1       5.467   4.369  17.721  0.00  0.00    +0.000 C 
ATOM      4  C   UNL     1       5.349   5.551  18.662  0.00  0.00    +0.000 C 
ATOM      5  C   UNL     1       3.887   5.537  19.055  0.00  0.00    +0.000 C 
ATOM      6  C   UNL     1       3.148   5.270  17.749  0.00  0.00    +0.000 C 
ATOM      7  C   UNL     1       1.764   4.727  18.234  0.00  0.00    +0.000 C 
ATOM      8  C   UNL     1       1.875   4.586  19.776  0.00  0.00    +0.000 C 
ATOM      9  C   UNL     1       1.030   3.393  20.208  0.00  0.00    +0.000 C 
ATOM     10  C   UNL     1       0.826   2.626  18.912  0.00  0.00    +0.000 C 
ATOM     11  C   UNL     1       1.879   3.228  17.998  0.00  0.00    +0.000 C 
ATOM     12  C   UNL     1       3.362   4.233  19.710  0.00  0.00    +0.000 C 
ENDROOT
BRANCH   1  13
ATOM     13  C   UNL     1       3.899   1.801  18.855  0.00  0.00    +0.000 C 
BRANCH  13  14
ATOM     14  N   UNL     1       4.852   1.828  19.967  0.00  0.00    +0.000 NA
ATOM     15  H   UNL     1       5.374   0.945  20.001  0.00  0.00    +0.000 HD
ATOM     16  H   UNL     1       5.551   2.549  19.800  0.00  0.00    +0.000 HD
ENDBRANCH  13  14
ENDBRANCH   1  13
TORSDOF 2
ENDMDL
MODEL 3
REMARK VINA RESULT:      -6.7      1.020      1.137
REMARK  Name = 
REMARK  2 active torsions:
REMARK  status: ('A' for Active; 'I' for Inactive)
REMARK    1  A    between atoms: N_1  and  C_2
REMARK    2  A    between atoms: C_2  and  C_3
REMARK                            x       y       z     vdW  Elec       q    Type
REMARK                         _______ _______ _______ _____ _____    ______ ____
ROOT
ATOM      1  C   UNL     1       2.805   3.487  18.434  0.00  0.00    +0.000 C 
ATOM      2  C   UNL     1       3.140   4.683  17.533  0.00  0.00    +0.000 C 
ATOM      3  C   UNL     1       4.597   4.684  17.064  0.00  0.00    +0.000 C 
ATOM      4  C   UNL     1       5.345   5.262  18.247  0.00  0.00    +0.000 C 
ATOM      5  C   UNL     1       4.324   5.212  19.363  0.00  0.00    +0.000 C 
ATOM      6  C   UNL     1       3.031   5.693  18.713  0.00  0.00    +0.000 C 
ATOM      7  C   UNL     1       1.928   5.131  19.668  0.00  0.00    +0.000 C 
ATOM      8  C   UNL     1       2.669   4.247  20.706  0.00  0.00    +0.000 C 
ATOM      9  C   UNL     1       1.752   3.090  21.088  0.00  0.00    +0.000 C 
ATOM     10  C   UNL     1       0.726   3.077  19.967  0.00  0.00    +0.000 C 
ATOM     11  C   UNL     1       1.384   3.934  18.901  0.00  0.00    +0.000 C 
ATOM     12  C   UNL     1       3.730   3.817  19.692  0.00  0.00    +0.000 C 
ENDROOT
BRANCH   1  13
ATOM     13  C   UNL     1       2.922   2.068  17.898  0.00  0.00    +0.000 C 
BRANCH  13  14
ATOM     14  N   UNL     1       4.016   1.315  18.514  0.00  0.00    +0.000 NA
ATOM     15  H   UNL     1       4.802   1.943  18.717  0.00  0.00    +0.000 HD
ATOM     16  H   UNL     1       3.717   0.956  19.419  0.00  0.00    +0.000 HD
ENDBRANCH  13  14
ENDBRANCH   1  13
TORSDOF 2
ENDMDL
MODEL 4
REMARK VINA RESULT:      -6.6      1.054      3.288
REMARK  Name = 
REMARK  2 active torsions:
REMARK  status: ('A' for Active; 'I' for Inactive)
REMARK    1  A    between atoms: N_1  and  C_2
REMARK    2  A    between atoms: C_2  and  C_3
REMARK                            x       y       z     vdW  Elec       q    Type
REMARK                         _______ _______ _______ _____ _____    ______ ____
ROOT
ATOM      1  C   UNL     1       3.530   3.655  19.599  0.00  0.00    +0.000 C 
ATOM      2  C   UNL     1       2.125   4.060  20.062  0.00  0.00    +0.000 C 
ATOM      3  C   UNL     1       1.168   2.870  20.171  0.00  0.00    +0.000 C 
ATOM      4  C   UNL     1       0.720   2.649  18.741  0.00  0.00    +0.000 C 
ATOM      5  C   UNL     1       1.698   3.481  17.937  0.00  0.00    +0.000 C 
ATOM      6  C   UNL     1       1.813   4.785  18.719  0.00  0.00    +0.000 C 
ATOM      7  C   UNL     1       3.171   5.375  18.217  0.00  0.00    +0.000 C 
ATOM      8  C   UNL     1       3.797   4.290  17.300  0.00  0.00    +0.000 C 
ATOM      9  C   UNL     1       5.314   4.360  17.446  0.00  0.00    +0.000 C 
ATOM     10  C   UNL     1       5.502   5.141  18.736  0.00  0.00    +0.000 C 
ATOM     11  C   UNL     1       4.123   5.080  19.368  0.00  0.00    +0.000 C 
ATOM     12  C   UNL     1       3.201   3.146  18.122  0.00  0.00    +0.000 C 
ENDROOT
BRANCH   1  13
ATOM     13  C   UNL     1       4.368   2.705  20.440  0.00  0.00    +0.000 C 
BRANCH  13  14
ATOM     14  N   UNL     1       4.899   1.578  19.668  0.00  0.00    +0.000 NA
ATOM     15  H   UNL     1       5.919   1.660  19.587  0.00  0.00    +0.000 HD
ATOM     16  H   UNL     1       4.737   0.710  20.175  0.00  0.00    +0.000 HD
ENDBRANCH  13  14
ENDBRANCH   1  13
TORSDOF 2
ENDMDL
MODEL 5
REMARK VINA RESULT:      -6.6      1.112      3.384
REMARK  Name = 
REMARK  2 active torsions:
REMARK  status: ('A' for Active; 'I' for Inactive)
REMARK    1  A    between atoms: N_1  and  C_2
REMARK    2  A    between atoms: C_2  and  C_3
REMARK                            x       y       z     vdW  Elec       q    Type
REMARK                         _______ _______ _______ _____ _____    ______ ____
ROOT
ATOM      1  C   UNL     1       3.376   3.181  18.728  0.00  0.00    +0.000 C 
ATOM      2  C   UNL     1       3.038   3.092  20.222  0.00  0.00    +0.000 C 
ATOM      3  C   UNL     1       1.598   2.639  20.480  0.00  0.00    +0.000 C 
ATOM      4  C   UNL     1       0.792   3.908  20.289  0.00  0.00    +0.000 C 
ATOM      5  C   UNL     1       1.776   4.849  19.625  0.00  0.00    +0.000 C 
ATOM      6  C   UNL     1       3.075   4.640  20.395  0.00  0.00    +0.000 C 
ATOM      7  C   UNL     1       4.160   5.163  19.398  0.00  0.00    +0.000 C 
ATOM      8  C   UNL     1       3.410   5.491  18.080  0.00  0.00    +0.000 C 
ATOM      9  C   UNL     1       4.347   5.199  16.913  0.00  0.00    +0.000 C 
ATOM     10  C   UNL     1       5.412   4.311  17.537  0.00  0.00    +0.000 C 
ATOM     11  C   UNL     1       4.766   3.882  18.842  0.00  0.00    +0.000 C 
ATOM     12  C   UNL     1       2.398   4.364  18.289  0.00  0.00    +0.000 C 
ENDROOT
BRANCH   1  13
ATOM     13  C   UNL     1       3.319   1.936  17.856  0.00  0.00    +0.000 C 
BRANCH  13  14
ATOM     14  N   UNL     1       4.050   0.804  18.431  0.00  0.00    +0.000 NA
ATOM     15  H   UNL     1       3.514   0.402  19.210  0.00  0.00    +0.000 HD
ATOM     16  H   UNL     1       4.123   0.059  17.741  0.00  0.00    +0.000 HD
ENDBRANCH  13  14
ENDBRANCH   1  13
TORSDOF 2
ENDMDL
MODEL 6
REMARK VINA RESULT:      -6.6      0.671      3.464
REMARK  Name = 
REMARK  2 active torsions:
REMARK  status: ('A' for Active; 'I' for Inactive)
REMARK    1  A    between atoms: N_1  and  C_2
REMARK    2  A    between atoms: C_2  and  C_3
REMARK                            x       y       z     vdW  Elec       q    Type
REMARK                         _______ _______ _______ _____ _____    ______ ____
ROOT
ATOM      1  C   UNL     1       3.490   3.894  19.529  0.00  0.00    +0.000 C 
ATOM      2  C   UNL     1       2.634   4.514  20.641  0.00  0.00    +0.000 C 
ATOM      3  C   UNL     1       2.274   3.513  21.743  0.00  0.00    +0.000 C 
ATOM      4  C   UNL     1       1.104   2.752  21.155  0.00  0.00    +0.000 C 
ATOM      5  C   UNL     1       1.133   3.143  19.693  0.00  0.00    +0.000 C 
ATOM      6  C   UNL     1       1.392   4.646  19.710  0.00  0.00    +0.000 C 
ATOM      7  C   UNL     1       1.951   4.921  18.276  0.00  0.00    +0.000 C 
ATOM      8  C   UNL     1       2.107   3.531  17.602  0.00  0.00    +0.000 C 
ATOM      9  C   UNL     1       3.311   3.588  16.668  0.00  0.00    +0.000 C 
ATOM     10  C   UNL     1       4.067   4.815  17.150  0.00  0.00    +0.000 C 
ATOM     11  C   UNL     1       3.447   5.076  18.511  0.00  0.00    +0.000 C 
ATOM     12  C   UNL     1       2.448   2.846  18.926  0.00  0.00    +0.000 C 
ENDROOT
BRANCH   1  13
ATOM     13  C   UNL     1       4.866   3.330  19.848  0.00  0.00    +0.000 C 
BRANCH  13  14
ATOM     14  N   UNL     1       4.903   1.866  19.817  0.00  0.00    +0.000 NA
ATOM     15  H   UNL     1       4.293   1.486  20.550  0.00  0.00    +0.000 HD
ATOM     16  H   UNL     1       4.509   1.533  18.939  0.00  0.00    +0.000 HD
ENDBRANCH  13  14
ENDBRANCH   1  13
TORSDOF 2
ENDMDL
MODEL 7
REMARK VINA RESULT:      -6.5      1.702      3.660
REMARK  Name = 
REMARK  2 active torsions:
REMARK  status: ('A' for Active; 'I' for Inactive)
REMARK    1  A    between atoms: N_1  and  C_2
REMARK    2  A    between atoms: C_2  and  C_3
REMARK                            x       y       z     vdW  Elec       q    Type
REMARK                         _______ _______ _______ _____ _____    ______ ____
ROOT
ATOM      1  C   UNL     1       2.747   4.850  18.713  0.00  0.00    +0.000 C 
ATOM      2  C   UNL     1       1.742   4.010  17.915  0.00  0.00    +0.000 C 
ATOM      3  C   UNL     1       0.864   3.127  18.807  0.00  0.00    +0.000 C 
ATOM      4  C   UNL     1       1.751   1.935  19.101  0.00  0.00    +0.000 C 
ATOM      5  C   UNL     1       3.120   2.400  18.652  0.00  0.00    +0.000 C 
ATOM      6  C   UNL     1       2.862   3.102  17.324  0.00  0.00    +0.000 C 
ATOM      7  C   UNL     1       4.121   4.015  17.160  0.00  0.00    +0.000 C 
ATOM      8  C   UNL     1       4.928   3.874  18.479  0.00  0.00    +0.000 C 
ATOM      9  C   UNL     1       5.608   5.209  18.766  0.00  0.00    +0.000 C 
ATOM     10  C   UNL     1       4.840   6.185  17.889  0.00  0.00    +0.000 C 
ATOM     11  C   UNL     1       3.595   5.397  17.523  0.00  0.00    +0.000 C 
ATOM     12  C   UNL     1       3.663   3.691  19.319  0.00  0.00    +0.000 C 
ENDROOT
BRANCH   1  13
ATOM     13  C   UNL     1       2.256   5.880  19.719  0.00  0.00    +0.000 C 
BRANCH  13  14
ATOM     14  N   UNL     1       2.417   5.442  21.108  0.00  0.00    +0.000 NA
ATOM     15  H   UNL     1       2.790   6.212  21.676  0.00  0.00    +0.000 HD
ATOM     16  H   UNL     1       1.505   5.228  21.506  0.00  0.00    +0.000 HD
ENDBRANCH  13  14
ENDBRANCH   1  13
TORSDOF 2
ENDMDL
MODEL 8
REMARK VINA RESULT:      -6.5      1.738      3.809
REMARK  Name = 
REMARK  2 active torsions:
REMARK  status: ('A' for Active; 'I' for Inactive)
REMARK    1  A    between atoms: N_1  and  C_2
REMARK    2  A    between atoms: C_2  and  C_3
REMARK                            x       y       z     vdW  Elec       q    Type
REMARK                         _______ _______ _______ _____ _____    ______ ____
ROOT
ATOM      1  C   UNL     1       2.569   4.488  18.644  0.00  0.00    +0.000 C 
ATOM      2  C   UNL     1       1.386   3.533  18.851  0.00  0.00    +0.000 C 
ATOM      3  C   UNL     1       0.704   3.719  20.209  0.00  0.00    +0.000 C 
ATOM      4  C   UNL     1       1.597   2.948  21.159  0.00  0.00    +0.000 C 
ATOM      5  C   UNL     1       2.845   2.699  20.338  0.00  0.00    +0.000 C 
ATOM      6  C   UNL     1       2.317   2.290  18.967  0.00  0.00    +0.000 C 
ATOM      7  C   UNL     1       3.535   2.569  18.026  0.00  0.00    +0.000 C 
ATOM      8  C   UNL     1       4.611   3.255  18.909  0.00  0.00    +0.000 C 
ATOM      9  C   UNL     1       5.378   4.247  18.041  0.00  0.00    +0.000 C 
ATOM     10  C   UNL     1       4.464   4.437  16.842  0.00  0.00    +0.000 C 
ATOM     11  C   UNL     1       3.146   3.867  17.333  0.00  0.00    +0.000 C 
ATOM     12  C   UNL     1       3.561   3.954  19.775  0.00  0.00    +0.000 C 
ENDROOT
BRANCH   1  13
ATOM     13  C   UNL     1       2.346   5.992  18.635  0.00  0.00    +0.000 C 
BRANCH  13  14
ATOM     14  N   UNL     1       2.735   6.633  19.893  0.00  0.00    +0.000 NA
ATOM     15  H   UNL     1       2.195   7.496  20.027  0.00  0.00    +0.000 HD
ATOM     16  H   UNL     1       2.484   6.032  20.674  0.00  0.00    +0.000 HD
ENDBRANCH  13  14
ENDBRANCH   1  13
TORSDOF 2
ENDMDL
MODEL 9
REMARK VINA RESULT:      -6.4      1.033      1.448
REMARK  Name = 
REMARK  2 active torsions:
REMARK  status: ('A' for Active; 'I' for Inactive)
REMARK    1  A    between atoms: N_1  and  C_2
REMARK    2  A    between atoms: C_2  and  C_3
REMARK                            x       y       z     vdW  Elec       q    Type
REMARK                         _______ _______ _______ _____ _____    ______ ____
ROOT
ATOM      1  C   UNL     1       3.506   3.523  18.074  0.00  0.00    +0.000 C 
ATOM      2  C   UNL     1       4.061   4.292  16.867  0.00  0.00    +0.000 C 
ATOM      3  C   UNL     1       5.575   4.132  16.706  0.00  0.00    +0.000 C 
ATOM      4  C   UNL     1       6.140   5.124  17.701  0.00  0.00    +0.000 C 
ATOM      5  C   UNL     1       4.940   5.488  18.549  0.00  0.00    +0.000 C 
ATOM      6  C   UNL     1       3.810   5.673  17.542  0.00  0.00    +0.000 C 
ATOM      7  C   UNL     1       2.528   5.502  18.421  0.00  0.00    +0.000 C 
ATOM      8  C   UNL     1       3.025   5.085  19.831  0.00  0.00    +0.000 C 
ATOM      9  C   UNL     1       1.989   4.149  20.444  0.00  0.00    +0.000 C 
ATOM     10  C   UNL     1       1.173   3.701  19.243  0.00  0.00    +0.000 C 
ATOM     11  C   UNL     1       2.055   4.097  18.073  0.00  0.00    +0.000 C 
ATOM     12  C   UNL     1       4.218   4.315  19.262  0.00  0.00    +0.000 C 
ENDROOT
BRANCH   1  13
ATOM     13  C   UNL     1       3.630   2.008  18.138  0.00  0.00    +0.000 C 
BRANCH  13  14
ATOM     14  N   UNL     1       4.442   1.551  19.269  0.00  0.00    +0.000 NA
ATOM     15  H   UNL     1       4.726   2.354  19.842  0.00  0.00    +0.000 HD
ATOM     16  H   UNL     1       3.876   0.968  19.882  0.00  0.00    +0.000 HD
ENDBRANCH  13  14
ENDBRANCH   1  13
TORSDOF 2
ENDMDL
