MODEL 1
REMARK VINA RESULT:      -8.9      0.000      0.000
REMARK  Name = 
REMARK  5 active torsions:
REMARK  status: ('A' for Active; 'I' for Inactive)
REMARK    1  A    between atoms: C_1  and  C_2
REMARK    2  A    between atoms: C_2  and  C_3
REMARK    3  A    between atoms: C_3  and  C_4
REMARK    4  A    between atoms: C_6  and  C_7
REMARK    5  A    between atoms: C_14  and  C_15
REMARK                            x       y       z     vdW  Elec       q    Type
REMARK                         _______ _______ _______ _____ _____    ______ ____
ROOT
ATOM      1  C   UNL     1       6.112   4.485  17.227  0.00  0.00    +0.000 A 
ATOM      2  N   UNL     1       6.922   3.986  18.222  0.00  0.00    +0.000 NA
ATOM      3  C   UNL     1       6.127   3.799  19.250  0.00  0.00    +0.000 A 
ATOM      4  N   UNL     1       4.826   4.162  18.983  0.00  0.00    +0.000 N 
ATOM      5  C   UNL     1       4.806   4.591  17.673  0.00  0.00    +0.000 A 
ATOM      6  C   UNL     1       3.550   4.962  16.993  0.00  0.00    +0.000 C 
ATOM      7  N   UNL     1       2.990   6.136  17.628  0.00  0.00    +0.000 NA
ATOM      8  C   UNL     1       2.545   6.076  18.836  0.00  0.00    +0.000 C 
ATOM      9  C   UNL     1       2.567   4.850  19.697  0.00  0.00    +0.000 A 
ATOM     10  C   UNL     1       1.442   4.574  20.488  0.00  0.00    +0.000 A 
ATOM     11  F   UNL     1       0.321   5.300  20.370  0.00  0.00    +0.000 F 
ATOM     12  C   UNL     1       1.450   3.558  21.438  0.00  0.00    +0.000 A 
ATOM     13  C   UNL     1       2.587   2.776  21.601  0.00  0.00    +0.000 A 
ATOM     14  C   UNL     1       3.710   3.004  20.804  0.00  0.00    +0.000 A 
ATOM     15  C   UNL     1       3.702   4.027  19.836  0.00  0.00    +0.000 A 
ENDROOT
BRANCH   8  16
ATOM     16  C   UNL     1       1.982   7.347  19.401  0.00  0.00    +0.000 A 
ATOM     17  C   UNL     1       1.648   8.386  18.522  0.00  0.00    +0.000 A 
ATOM     18  C   UNL     1       1.057   9.551  19.009  0.00  0.00    +0.000 A 
ATOM     19  C   UNL     1       0.811   9.687  20.375  0.00  0.00    +0.000 A 
ATOM     20  C   UNL     1       1.179   8.673  21.259  0.00  0.00    +0.000 A 
ATOM     21  C   UNL     1       1.777   7.510  20.776  0.00  0.00    +0.000 A 
ENDBRANCH   8  16
BRANCH   1  24
ATOM     22  C   UNL     1       6.897   4.569  13.824  0.00  0.00    +0.000 A 
ATOM     23  N   UNL     1       6.235   4.026  14.818  0.00  0.00    +0.000 NA
ATOM     24  C   UNL     1       6.635   4.786  15.889  0.00  0.00    +0.000 A 
ATOM     25  N   UNL     1       7.524   5.745  15.589  0.00  0.00    +0.000 NA
ATOM     26  O   UNL     1       7.698   5.600  14.208  0.00  0.00    +0.000 OA
BRANCH  22  27
ATOM     27  C   UNL     1       6.879   4.194  12.394  0.00  0.00    +0.000 C 
BRANCH  27  29
ATOM     28  C   UNL     1       4.602   3.399  11.672  0.00  0.00    +0.000 C 
ATOM     29  C   UNL     1       5.982   2.980  12.153  0.00  0.00    +0.000 C 
ENDBRANCH  27  29
ENDBRANCH  22  27
ENDBRANCH   1  24
TORSDOF 4
ENDMDL
MODEL 2
REMARK VINA RESULT:      -7.8      3.848      6.645
REMARK  Name = 
REMARK  5 active torsions:
REMARK  status: ('A' for Active; 'I' for Inactive)
REMARK    1  A    between atoms: C_1  and  C_2
REMARK    2  A    between atoms: C_2  and  C_3
REMARK    3  A    between atoms: C_3  and  C_4
REMARK    4  A    between atoms: C_6  and  C_7
REMARK    5  A    between atoms: C_14  and  C_15
REMARK                            x       y       z     vdW  Elec       q    Type
REMARK                         _______ _______ _______ _____ _____    ______ ____
ROOT
ATOM      1  C   UNL     1       1.994   7.832  19.489  0.00  0.00    +0.000 A 
ATOM      2  N   UNL     1       1.705   7.497  20.792  0.00  0.00    +0.000 NA
ATOM      3  C   UNL     1       1.046   8.527  21.272  0.00  0.00    +0.000 A 
ATOM      4  N   UNL     1       0.894   9.533  20.345  0.00  0.00    +0.000 N 
ATOM      5  C   UNL     1       1.491   9.085  19.187  0.00  0.00    +0.000 A 
ATOM      6  C   UNL     1       1.432   9.858  17.930  0.00  0.00    +0.000 C 
ATOM      7  N   UNL     1       2.160  11.098  18.097  0.00  0.00    +0.000 NA
ATOM      8  C   UNL     1       1.726  12.007  18.901  0.00  0.00    +0.000 C 
ATOM      9  C   UNL     1       0.488  11.890  19.737  0.00  0.00    +0.000 A 
ATOM     10  C   UNL     1      -0.344  13.013  19.851  0.00  0.00    +0.000 A 
ATOM     11  F   UNL     1      -0.121  14.114  19.117  0.00  0.00    +0.000 F 
ATOM     12  C   UNL     1      -1.414  13.042  20.740  0.00  0.00    +0.000 A 
ATOM     13  C   UNL     1      -1.688  11.927  21.524  0.00  0.00    +0.000 A 
ATOM     14  C   UNL     1      -0.899  10.782  21.407  0.00  0.00    +0.000 A 
ATOM     15  C   UNL     1       0.180  10.748  20.502  0.00  0.00    +0.000 A 
ENDROOT
BRANCH   8  16
ATOM     16  C   UNL     1       2.551  13.256  18.999  0.00  0.00    +0.000 A 
ATOM     17  C   UNL     1       2.887  13.936  17.821  0.00  0.00    +0.000 A 
ATOM     18  C   UNL     1       3.591  15.138  17.885  0.00  0.00    +0.000 A 
ATOM     19  C   UNL     1       3.973  15.656  19.122  0.00  0.00    +0.000 A 
ATOM     20  C   UNL     1       3.675  14.962  20.295  0.00  0.00    +0.000 A 
ATOM     21  C   UNL     1       2.979  13.757  20.235  0.00  0.00    +0.000 A 
ENDBRANCH   8  16
BRANCH   1  24
ATOM     22  C   UNL     1       4.109   6.280  17.182  0.00  0.00    +0.000 A 
ATOM     23  N   UNL     1       3.752   7.356  17.840  0.00  0.00    +0.000 NA
ATOM     24  C   UNL     1       2.698   6.903  18.595  0.00  0.00    +0.000 A 
ATOM     25  N   UNL     1       2.390   5.612  18.402  0.00  0.00    +0.000 NA
ATOM     26  O   UNL     1       3.335   5.195  17.457  0.00  0.00    +0.000 OA
BRANCH  22  27
ATOM     27  C   UNL     1       5.207   6.124  16.204  0.00  0.00    +0.000 C 
BRANCH  27  29
ATOM     28  C   UNL     1       5.606   4.384  14.428  0.00  0.00    +0.000 C 
ATOM     29  C   UNL     1       5.487   4.648  15.920  0.00  0.00    +0.000 C 
ENDBRANCH  27  29
ENDBRANCH  22  27
ENDBRANCH   1  24
TORSDOF 4
ENDMDL
MODEL 3
REMARK VINA RESULT:      -7.8      3.917      7.075
REMARK  Name = 
REMARK  5 active torsions:
REMARK  status: ('A' for Active; 'I' for Inactive)
REMARK    1  A    between atoms: C_1  and  C_2
REMARK    2  A    between atoms: C_2  and  C_3
REMARK    3  A    between atoms: C_3  and  C_4
REMARK    4  A    between atoms: C_6  and  C_7
REMARK    5  A    between atoms: C_14  and  C_15
REMARK                            x       y       z     vdW  Elec       q    Type
REMARK                         _______ _______ _______ _____ _____    ______ ____
ROOT
ATOM      1  C   UNL     1       1.885   7.929  19.763  0.00  0.00    +0.000 A 
ATOM      2  N   UNL     1       1.694   7.607  21.088  0.00  0.00    +0.000 NA
ATOM      3  C   UNL     1       1.072   8.642  21.605  0.00  0.00    +0.000 A 
ATOM      4  N   UNL     1       0.851   9.639  20.682  0.00  0.00    +0.000 N 
ATOM      5  C   UNL     1       1.359   9.179  19.487  0.00  0.00    +0.000 A 
ATOM      6  C   UNL     1       1.206   9.939  18.231  0.00  0.00    +0.000 C 
ATOM      7  N   UNL     1       1.943  11.181  18.329  0.00  0.00    +0.000 NA
ATOM      8  C   UNL     1       1.569  12.097  19.155  0.00  0.00    +0.000 C 
ATOM      9  C   UNL     1       0.397  11.989  20.082  0.00  0.00    +0.000 A 
ATOM     10  C   UNL     1      -0.426  13.113  20.247  0.00  0.00    +0.000 A 
ATOM     11  F   UNL     1      -0.260  14.207  19.487  0.00  0.00    +0.000 F 
ATOM     12  C   UNL     1      -1.426  13.151  21.213  0.00  0.00    +0.000 A 
ATOM     13  C   UNL     1      -1.640  12.044  22.026  0.00  0.00    +0.000 A 
ATOM     14  C   UNL     1      -0.860  10.897  21.863  0.00  0.00    +0.000 A 
ATOM     15  C   UNL     1       0.148  10.854  20.880  0.00  0.00    +0.000 A 
ENDROOT
BRANCH   8  16
ATOM     16  C   UNL     1       2.397  13.349  19.178  0.00  0.00    +0.000 A 
ATOM     17  C   UNL     1       2.956  13.765  20.394  0.00  0.00    +0.000 A 
ATOM     18  C   UNL     1       3.788  14.883  20.433  0.00  0.00    +0.000 A 
ATOM     19  C   UNL     1       4.053  15.595  19.264  0.00  0.00    +0.000 A 
ATOM     20  C   UNL     1       3.467  15.208  18.059  0.00  0.00    +0.000 A 
ATOM     21  C   UNL     1       2.628  14.096  18.017  0.00  0.00    +0.000 A 
ENDBRANCH   8  16
BRANCH   1  24
ATOM     22  C   UNL     1       2.911   5.158  17.899  0.00  0.00    +0.000 A 
ATOM     23  N   UNL     1       2.144   5.671  18.830  0.00  0.00    +0.000 NA
ATOM     24  C   UNL     1       2.521   6.992  18.829  0.00  0.00    +0.000 A 
ATOM     25  N   UNL     1       3.495   7.291  17.956  0.00  0.00    +0.000 NA
ATOM     26  O   UNL     1       3.756   6.064  17.334  0.00  0.00    +0.000 OA
BRANCH  22  27
ATOM     27  C   UNL     1       2.967   3.760  17.422  0.00  0.00    +0.000 C 
BRANCH  27  29
ATOM     28  C   UNL     1       2.336   2.118  19.223  0.00  0.00    +0.000 C 
ATOM     29  C   UNL     1       1.843   2.923  18.032  0.00  0.00    +0.000 C 
ENDBRANCH  27  29
ENDBRANCH  22  27
ENDBRANCH   1  24
TORSDOF 4
ENDMDL
MODEL 4
REMARK VINA RESULT:      -7.7      3.963      6.962
REMARK  Name = 
REMARK  5 active torsions:
REMARK  status: ('A' for Active; 'I' for Inactive)
REMARK    1  A    between atoms: C_1  and  C_2
REMARK    2  A    between atoms: C_2  and  C_3
REMARK    3  A    between atoms: C_3  and  C_4
REMARK    4  A    between atoms: C_6  and  C_7
REMARK    5  A    between atoms: C_14  and  C_15
REMARK                            x       y       z     vdW  Elec       q    Type
REMARK                         _______ _______ _______ _____ _____    ______ ____
ROOT
ATOM      1  C   UNL     1       1.970   7.968  19.465  0.00  0.00    +0.000 A 
ATOM      2  N   UNL     1       1.625   7.632  20.755  0.00  0.00    +0.000 NA
ATOM      3  C   UNL     1       0.954   8.666  21.209  0.00  0.00    +0.000 A 
ATOM      4  N   UNL     1       0.847   9.675  20.279  0.00  0.00    +0.000 N 
ATOM      5  C   UNL     1       1.488   9.225  19.145  0.00  0.00    +0.000 A 
ATOM      6  C   UNL     1       1.487  10.000  17.889  0.00  0.00    +0.000 C 
ATOM      7  N   UNL     1       2.215  11.236  18.089  0.00  0.00    +0.000 NA
ATOM      8  C   UNL     1       1.754  12.145  18.877  0.00  0.00    +0.000 C 
ATOM      9  C   UNL     1       0.481  12.035  19.660  0.00  0.00    +0.000 A 
ATOM     10  C   UNL     1      -0.348  13.163  19.742  0.00  0.00    +0.000 A 
ATOM     11  F   UNL     1      -0.088  14.264  19.020  0.00  0.00    +0.000 F 
ATOM     12  C   UNL     1      -1.454  13.197  20.586  0.00  0.00    +0.000 A 
ATOM     13  C   UNL     1      -1.767  12.083  21.354  0.00  0.00    +0.000 A 
ATOM     14  C   UNL     1      -0.981  10.933  21.268  0.00  0.00    +0.000 A 
ATOM     15  C   UNL     1       0.134  10.893  20.409  0.00  0.00    +0.000 A 
ENDROOT
BRANCH   8  16
ATOM     16  C   UNL     1       2.581  13.390  19.011  0.00  0.00    +0.000 A 
ATOM     17  C   UNL     1       2.997  13.788  20.289  0.00  0.00    +0.000 A 
ATOM     18  C   UNL     1       3.826  14.899  20.438  0.00  0.00    +0.000 A 
ATOM     19  C   UNL     1       4.230  15.622  19.316  0.00  0.00    +0.000 A 
ATOM     20  C   UNL     1       3.786  15.253  18.047  0.00  0.00    +0.000 A 
ATOM     21  C   UNL     1       2.951  14.148  17.894  0.00  0.00    +0.000 A 
ENDBRANCH   8  16
BRANCH   1  24
ATOM     22  C   UNL     1       4.168   6.408  17.242  0.00  0.00    +0.000 A 
ATOM     23  N   UNL     1       3.789   7.485  17.886  0.00  0.00    +0.000 NA
ATOM     24  C   UNL     1       2.705   7.036  18.600  0.00  0.00    +0.000 A 
ATOM     25  N   UNL     1       2.401   5.746  18.396  0.00  0.00    +0.000 NA
ATOM     26  O   UNL     1       3.380   5.326  17.488  0.00  0.00    +0.000 OA
BRANCH  22  27
ATOM     27  C   UNL     1       5.302   6.247  16.307  0.00  0.00    +0.000 C 
BRANCH  27  29
ATOM     28  C   UNL     1       7.357   7.148  17.449  0.00  0.00    +0.000 C 
ATOM     29  C   UNL     1       6.588   5.898  17.055  0.00  0.00    +0.000 C 
ENDBRANCH  27  29
ENDBRANCH  22  27
ENDBRANCH   1  24
TORSDOF 4
ENDMDL
MODEL 5
REMARK VINA RESULT:      -7.7      4.015      7.108
REMARK  Name = 
REMARK  5 active torsions:
REMARK  status: ('A' for Active; 'I' for Inactive)
REMARK    1  A    between atoms: C_1  and  C_2
REMARK    2  A    between atoms: C_2  and  C_3
REMARK    3  A    between atoms: C_3  and  C_4
REMARK    4  A    between atoms: C_6  and  C_7
REMARK    5  A    between atoms: C_14  and  C_15
REMARK                            x       y       z     vdW  Elec       q    Type
REMARK                         _______ _______ _______ _____ _____    ______ ____
ROOT
ATOM      1  C   UNL     1       1.833   8.028  19.672  0.00  0.00    +0.000 A 
ATOM      2  N   UNL     1       1.432   7.758  20.960  0.00  0.00    +0.000 NA
ATOM      3  C   UNL     1       0.764   8.823  21.340  0.00  0.00    +0.000 A 
ATOM      4  N   UNL     1       0.713   9.790  20.363  0.00  0.00    +0.000 N 
ATOM      5  C   UNL     1       1.389   9.278  19.277  0.00  0.00    +0.000 A 
ATOM      6  C   UNL     1       1.451   9.994  17.988  0.00  0.00    +0.000 C 
ATOM      7  N   UNL     1       2.195  11.225  18.160  0.00  0.00    +0.000 NA
ATOM      8  C   UNL     1       1.721  12.177  18.887  0.00  0.00    +0.000 C 
ATOM      9  C   UNL     1       0.417  12.125  19.624  0.00  0.00    +0.000 A 
ATOM     10  C   UNL     1      -0.393  13.271  19.622  0.00  0.00    +0.000 A 
ATOM     11  F   UNL     1      -0.083  14.333  18.862  0.00  0.00    +0.000 F 
ATOM     12  C   UNL     1      -1.529  13.363  20.418  0.00  0.00    +0.000 A 
ATOM     13  C   UNL     1      -1.894  12.291  21.224  0.00  0.00    +0.000 A 
ATOM     14  C   UNL     1      -1.128  11.124  21.221  0.00  0.00    +0.000 A 
ATOM     15  C   UNL     1       0.019  11.025  20.409  0.00  0.00    +0.000 A 
ENDROOT
BRANCH   8  16
ATOM     16  C   UNL     1       2.567  13.412  18.999  0.00  0.00    +0.000 A 
ATOM     17  C   UNL     1       2.963  14.066  17.825  0.00  0.00    +0.000 A 
ATOM     18  C   UNL     1       3.689  15.254  17.898  0.00  0.00    +0.000 A 
ATOM     19  C   UNL     1       4.033  15.784  19.142  0.00  0.00    +0.000 A 
ATOM     20  C   UNL     1       3.675  15.115  20.312  0.00  0.00    +0.000 A 
ATOM     21  C   UNL     1       2.956  13.923  20.243  0.00  0.00    +0.000 A 
ENDBRANCH   8  16
BRANCH   1  24
ATOM     22  C   UNL     1       3.310   5.164  18.322  0.00  0.00    +0.000 A 
ATOM     23  N   UNL     1       2.535   5.717  19.224  0.00  0.00    +0.000 NA
ATOM     24  C   UNL     1       2.583   7.045  18.878  0.00  0.00    +0.000 A 
ATOM     25  N   UNL     1       3.368   7.319  17.826  0.00  0.00    +0.000 NA
ATOM     26  O   UNL     1       3.854   6.060  17.453  0.00  0.00    +0.000 OA
BRANCH  22  27
ATOM     27  C   UNL     1       3.654   3.735  18.157  0.00  0.00    +0.000 C 
BRANCH  27  29
ATOM     28  C   UNL     1       1.761   2.130  18.580  0.00  0.00    +0.000 C 
ATOM     29  C   UNL     1       2.494   2.957  17.536  0.00  0.00    +0.000 C 
ENDBRANCH  27  29
ENDBRANCH  22  27
ENDBRANCH   1  24
TORSDOF 4
ENDMDL
MODEL 6
REMARK VINA RESULT:      -7.7      4.665      8.091
REMARK  Name = 
REMARK  5 active torsions:
REMARK  status: ('A' for Active; 'I' for Inactive)
REMARK    1  A    between atoms: C_1  and  C_2
REMARK    2  A    between atoms: C_2  and  C_3
REMARK    3  A    between atoms: C_3  and  C_4
REMARK    4  A    between atoms: C_6  and  C_7
REMARK    5  A    between atoms: C_14  and  C_15
REMARK                            x       y       z     vdW  Elec       q    Type
REMARK                         _______ _______ _______ _____ _____    ______ ____
ROOT
ATOM      1  C   UNL     1       1.319   8.572  20.703  0.00  0.00    +0.000 A 
ATOM      2  N   UNL     1       1.061   8.528  22.054  0.00  0.00    +0.000 NA
ATOM      3  C   UNL     1       0.561   9.708  22.346  0.00  0.00    +0.000 A 
ATOM      4  N   UNL     1       0.486  10.534  21.248  0.00  0.00    +0.000 N 
ATOM      5  C   UNL     1       0.959   9.802  20.180  0.00  0.00    +0.000 A 
ATOM      6  C   UNL     1       0.930  10.327  18.801  0.00  0.00    +0.000 C 
ATOM      7  N   UNL     1       1.813  11.470  18.705  0.00  0.00    +0.000 NA
ATOM      8  C   UNL     1       1.539  12.562  19.332  0.00  0.00    +0.000 C 
ATOM      9  C   UNL     1       0.342  12.768  20.210  0.00  0.00    +0.000 A 
ATOM     10  C   UNL     1      -0.337  13.992  20.130  0.00  0.00    +0.000 A 
ATOM     11  F   UNL     1      -0.019  14.898  19.193  0.00  0.00    +0.000 F 
ATOM     12  C   UNL     1      -1.346  14.327  21.028  0.00  0.00    +0.000 A 
ATOM     13  C   UNL     1      -1.714  13.425  22.018  0.00  0.00    +0.000 A 
ATOM     14  C   UNL     1      -1.080  12.184  22.102  0.00  0.00    +0.000 A 
ATOM     15  C   UNL     1      -0.064  11.839  21.189  0.00  0.00    +0.000 A 
ENDROOT
BRANCH   8  16
ATOM     16  C   UNL     1       2.516  13.689  19.164  0.00  0.00    +0.000 A 
ATOM     17  C   UNL     1       2.743  14.198  17.879  0.00  0.00    +0.000 A 
ATOM     18  C   UNL     1       3.591  15.290  17.700  0.00  0.00    +0.000 A 
ATOM     19  C   UNL     1       4.224  15.867  18.801  0.00  0.00    +0.000 A 
ATOM     20  C   UNL     1       4.032  15.338  20.077  0.00  0.00    +0.000 A 
ATOM     21  C   UNL     1       3.192  14.241  20.259  0.00  0.00    +0.000 A 
ENDBRANCH   8  16
BRANCH   1  24
ATOM     22  C   UNL     1       2.296   5.395  19.629  0.00  0.00    +0.000 A 
ATOM     23  N   UNL     1       1.703   6.153  20.519  0.00  0.00    +0.000 NA
ATOM     24  C   UNL     1       1.853   7.409  19.984  0.00  0.00    +0.000 A 
ATOM     25  N   UNL     1       2.530   7.442  18.827  0.00  0.00    +0.000 NA
ATOM     26  O   UNL     1       2.826   6.095  18.589  0.00  0.00    +0.000 OA
BRANCH  22  27
ATOM     27  C   UNL     1       2.458   3.925  19.635  0.00  0.00    +0.000 C 
BRANCH  27  29
ATOM     28  C   UNL     1       1.423   2.703  21.578  0.00  0.00    +0.000 C 
ATOM     29  C   UNL     1       1.204   3.234  20.171  0.00  0.00    +0.000 C 
ENDBRANCH  27  29
ENDBRANCH  22  27
ENDBRANCH   1  24
TORSDOF 4
ENDMDL
MODEL 7
REMARK VINA RESULT:      -7.7      4.668      8.010
REMARK  Name = 
REMARK  5 active torsions:
REMARK  status: ('A' for Active; 'I' for Inactive)
REMARK    1  A    between atoms: C_1  and  C_2
REMARK    2  A    between atoms: C_2  and  C_3
REMARK    3  A    between atoms: C_3  and  C_4
REMARK    4  A    between atoms: C_6  and  C_7
REMARK    5  A    between atoms: C_14  and  C_15
REMARK                            x       y       z     vdW  Elec       q    Type
REMARK                         _______ _______ _______ _____ _____    ______ ____
ROOT
ATOM      1  C   UNL     1       1.181   8.921  20.604  0.00  0.00    +0.000 A 
ATOM      2  N   UNL     1       1.336   8.649  21.944  0.00  0.00    +0.000 NA
ATOM      3  C   UNL     1       0.581   9.530  22.561  0.00  0.00    +0.000 A 
ATOM      4  N   UNL     1      -0.060  10.379  21.688  0.00  0.00    +0.000 N 
ATOM      5  C   UNL     1       0.311   9.982  20.421  0.00  0.00    +0.000 A 
ATOM      6  C   UNL     1      -0.268  10.597  19.211  0.00  0.00    +0.000 C 
ATOM      7  N   UNL     1       0.132  11.987  19.142  0.00  0.00    +0.000 NA
ATOM      8  C   UNL     1      -0.298  12.834  20.013  0.00  0.00    +0.000 C 
ATOM      9  C   UNL     1      -1.204  12.499  21.158  0.00  0.00    +0.000 A 
ATOM     10  C   UNL     1      -2.239  13.394  21.469  0.00  0.00    +0.000 A 
ATOM     11  F   UNL     1      -2.506  14.443  20.676  0.00  0.00    +0.000 F 
ATOM     12  C   UNL     1      -3.012  13.246  22.616  0.00  0.00    +0.000 A 
ATOM     13  C   UNL     1      -2.777  12.175  23.471  0.00  0.00    +0.000 A 
ATOM     14  C   UNL     1      -1.776  11.249  23.170  0.00  0.00    +0.000 A 
ATOM     15  C   UNL     1      -0.998  11.393  22.006  0.00  0.00    +0.000 A 
ENDROOT
BRANCH   8  16
ATOM     16  C   UNL     1       0.172  14.250  19.850  0.00  0.00    +0.000 A 
ATOM     17  C   UNL     1       0.987  14.808  20.844  0.00  0.00    +0.000 A 
ATOM     18  C   UNL     1       1.498  16.095  20.687  0.00  0.00    +0.000 A 
ATOM     19  C   UNL     1       1.185  16.834  19.546  0.00  0.00    +0.000 A 
ATOM     20  C   UNL     1       0.341  16.298  18.573  0.00  0.00    +0.000 A 
ATOM     21  C   UNL     1      -0.178  15.014  18.730  0.00  0.00    +0.000 A 
ENDBRANCH   8  16
BRANCH   1  24
ATOM     22  C   UNL     1       2.650   6.395  18.689  0.00  0.00    +0.000 A 
ATOM     23  N   UNL     1       2.039   6.770  19.788  0.00  0.00    +0.000 NA
ATOM     24  C   UNL     1       1.844   8.112  19.574  0.00  0.00    +0.000 A 
ATOM     25  N   UNL     1       2.330   8.566  18.409  0.00  0.00    +0.000 NA
ATOM     26  O   UNL     1       2.868   7.417  17.817  0.00  0.00    +0.000 OA
BRANCH  22  27
ATOM     27  C   UNL     1       3.119   5.044  18.313  0.00  0.00    +0.000 C 
BRANCH  27  29
ATOM     28  C   UNL     1       1.363   3.260  18.577  0.00  0.00    +0.000 C 
ATOM     29  C   UNL     1       2.012   4.248  17.622  0.00  0.00    +0.000 C 
ENDBRANCH  27  29
ENDBRANCH  22  27
ENDBRANCH   1  24
TORSDOF 4
ENDMDL
MODEL 8
REMARK VINA RESULT:      -7.6      9.392     12.446
REMARK  Name = 
REMARK  5 active torsions:
REMARK  status: ('A' for Active; 'I' for Inactive)
REMARK    1  A    between atoms: C_1  and  C_2
REMARK    2  A    between atoms: C_2  and  C_3
REMARK    3  A    between atoms: C_3  and  C_4
REMARK    4  A    between atoms: C_6  and  C_7
REMARK    5  A    between atoms: C_14  and  C_15
REMARK                            x       y       z     vdW  Elec       q    Type
REMARK                         _______ _______ _______ _____ _____    ______ ____
ROOT
ATOM      1  C   UNL     1       5.062  15.626  19.314  0.00  0.00    +0.000 A 
ATOM      2  N   UNL     1       5.166  16.717  20.147  0.00  0.00    +0.000 NA
ATOM      3  C   UNL     1       6.368  17.201  19.928  0.00  0.00    +0.000 A 
ATOM      4  N   UNL     1       7.067  16.472  18.992  0.00  0.00    +0.000 N 
ATOM      5  C   UNL     1       6.224  15.463  18.580  0.00  0.00    +0.000 A 
ATOM      6  C   UNL     1       6.593  14.535  17.493  0.00  0.00    +0.000 C 
ATOM      7  N   UNL     1       7.723  13.733  17.911  0.00  0.00    +0.000 NA
ATOM      8  C   UNL     1       8.876  14.277  18.098  0.00  0.00    +0.000 C 
ATOM      9  C   UNL     1       9.171  15.737  17.934  0.00  0.00    +0.000 A 
ATOM     10  C   UNL     1      10.375  16.106  17.316  0.00  0.00    +0.000 A 
ATOM     11  F   UNL     1      11.172  15.185  16.755  0.00  0.00    +0.000 F 
ATOM     12  C   UNL     1      10.801  17.430  17.280  0.00  0.00    +0.000 A 
ATOM     13  C   UNL     1      10.012  18.423  17.847  0.00  0.00    +0.000 A 
ATOM     14  C   UNL     1       8.792  18.091  18.439  0.00  0.00    +0.000 A 
ATOM     15  C   UNL     1       8.354  16.753  18.469  0.00  0.00    +0.000 A 
ENDROOT
BRANCH   8  16
ATOM     16  C   UNL     1       9.983  13.359  18.527  0.00  0.00    +0.000 A 
ATOM     17  C   UNL     1      10.384  12.335  17.659  0.00  0.00    +0.000 A 
ATOM     18  C   UNL     1      11.456  11.511  17.999  0.00  0.00    +0.000 A 
ATOM     19  C   UNL     1      12.121  11.698  19.210  0.00  0.00    +0.000 A 
ATOM     20  C   UNL     1      11.700  12.690  20.096  0.00  0.00    +0.000 A 
ATOM     21  C   UNL     1      10.623  13.510  19.763  0.00  0.00    +0.000 A 
ENDBRANCH   8  16
BRANCH   1  24
ATOM     22  C   UNL     1       2.323  13.537  19.897  0.00  0.00    +0.000 A 
ATOM     23  N   UNL     1       3.422  14.106  20.330  0.00  0.00    +0.000 NA
ATOM     24  C   UNL     1       3.829  14.832  19.238  0.00  0.00    +0.000 A 
ATOM     25  N   UNL     1       3.038  14.707  18.162  0.00  0.00    +0.000 NA
ATOM     26  O   UNL     1       2.030  13.842  18.603  0.00  0.00    +0.000 OA
BRANCH  22  27
ATOM     27  C   UNL     1       1.409  12.630  20.624  0.00  0.00    +0.000 C 
BRANCH  27  29
ATOM     28  C   UNL     1       0.550  10.265  20.553  0.00  0.00    +0.000 C 
ATOM     29  C   UNL     1       0.949  11.478  19.730  0.00  0.00    +0.000 C 
ENDBRANCH  27  29
ENDBRANCH  22  27
ENDBRANCH   1  24
TORSDOF 4
ENDMDL
MODEL 9
REMARK VINA RESULT:      -7.5      4.202      7.310
REMARK  Name = 
REMARK  5 active torsions:
REMARK  status: ('A' for Active; 'I' for Inactive)
REMARK    1  A    between atoms: C_1  and  C_2
REMARK    2  A    between atoms: C_2  and  C_3
REMARK    3  A    between atoms: C_3  and  C_4
REMARK    4  A    between atoms: C_6  and  C_7
REMARK    5  A    between atoms: C_14  and  C_15
REMARK                            x       y       z     vdW  Elec       q    Type
REMARK                         _______ _______ _______ _____ _____    ______ ____
ROOT
ATOM      1  C   UNL     1       1.648   8.436  20.167  0.00  0.00    +0.000 A 
ATOM      2  N   UNL     1       1.691   8.034  21.482  0.00  0.00    +0.000 NA
ATOM      3  C   UNL     1       1.011   8.945  22.141  0.00  0.00    +0.000 A 
ATOM      4  N   UNL     1       0.527   9.937  21.320  0.00  0.00    +0.000 N 
ATOM      5  C   UNL     1       0.922   9.608  20.041  0.00  0.00    +0.000 A 
ATOM      6  C   UNL     1       0.491  10.390  18.866  0.00  0.00    +0.000 C 
ATOM      7  N   UNL     1       1.056  11.721  18.944  0.00  0.00    +0.000 NA
ATOM      8  C   UNL     1       0.679  12.537  19.867  0.00  0.00    +0.000 C 
ATOM      9  C   UNL     1      -0.325  12.220  20.934  0.00  0.00    +0.000 A 
ATOM     10  C   UNL     1      -1.263  13.205  21.276  0.00  0.00    +0.000 A 
ATOM     11  F   UNL     1      -1.357  14.343  20.571  0.00  0.00    +0.000 F 
ATOM     12  C   UNL     1      -2.113  13.056  22.366  0.00  0.00    +0.000 A 
ATOM     13  C   UNL     1      -2.056  11.896  23.130  0.00  0.00    +0.000 A 
ATOM     14  C   UNL     1      -1.157  10.883  22.793  0.00  0.00    +0.000 A 
ATOM     15  C   UNL     1      -0.301  11.029  21.685  0.00  0.00    +0.000 A 
ENDROOT
BRANCH   8  16
ATOM     16  C   UNL     1       1.323  13.893  19.859  0.00  0.00    +0.000 A 
ATOM     17  C   UNL     1       2.035  14.309  20.991  0.00  0.00    +0.000 A 
ATOM     18  C   UNL     1       2.703  15.533  20.985  0.00  0.00    +0.000 A 
ATOM     19  C   UNL     1       2.650  16.349  19.856  0.00  0.00    +0.000 A 
ATOM     20  C   UNL     1       1.908  15.958  18.742  0.00  0.00    +0.000 A 
ATOM     21  C   UNL     1       1.232  14.739  18.746  0.00  0.00    +0.000 A 
ENDBRANCH   8  16
BRANCH   1  24
ATOM     22  C   UNL     1       2.912   5.921  18.098  0.00  0.00    +0.000 A 
ATOM     23  N   UNL     1       2.285   6.273  19.194  0.00  0.00    +0.000 NA
ATOM     24  C   UNL     1       2.269   7.642  19.099  0.00  0.00    +0.000 A 
ATOM     25  N   UNL     1       2.878   8.131  18.008  0.00  0.00    +0.000 NA
ATOM     26  O   UNL     1       3.307   6.979  17.338  0.00  0.00    +0.000 OA
BRANCH  22  27
ATOM     27  C   UNL     1       3.234   4.560  17.619  0.00  0.00    +0.000 C 
BRANCH  27  29
ATOM     28  C   UNL     1       5.132   4.296  15.986  0.00  0.00    +0.000 C 
ATOM     29  C   UNL     1       4.743   4.376  17.453  0.00  0.00    +0.000 C 
ENDBRANCH  27  29
ENDBRANCH  22  27
ENDBRANCH   1  24
TORSDOF 4
ENDMDL
