MODEL 1
REMARK VINA RESULT:      -7.5      0.000      0.000
REMARK  Name = 
REMARK  9 active torsions:
REMARK  status: ('A' for Active; 'I' for Inactive)
REMARK    1  A    between atoms: C_1  and  O_2
REMARK    2  A    between atoms: O_2  and  C_3
REMARK    3  A    between atoms: C_6  and  S_7
REMARK    4  A    between atoms: S_7  and  N_10
REMARK    5  A    between atoms: N_10  and  C_11
REMARK    6  A    between atoms: C_11  and  C_12
REMARK    7  A    between atoms: C_12  and  S_13
REMARK    8  A    between atoms: S_13  and  N_16
REMARK    9  A    between atoms: N_19  and  C_20
REMARK                            x       y       z     vdW  Elec       q    Type
REMARK                         _______ _______ _______ _____ _____    ______ ____
ROOT
ATOM      1  S   UNL     1       7.245   6.934  17.339  0.00  0.00    +0.000 S 
ATOM      2  O   UNL     1       5.944   7.565  17.362  0.00  0.00    +0.000 OA
ATOM      3  O   UNL     1       7.987   6.768  16.106  0.00  0.00    +0.000 OA
ENDROOT
BRANCH   1   4
ATOM      4  N   UNL     1       7.115   5.407  18.095  0.00  0.00    +0.000 NA
ATOM      5  C   UNL     1       6.420   5.391  19.437  0.00  0.00    +0.000 C 
ATOM      6  C   UNL     1       4.898   5.594  19.289  0.00  0.00    +0.000 C 
ATOM      7  N   UNL     1       4.356   4.611  18.336  0.00  0.00    +0.000 N 
ATOM      8  C   UNL     1       5.012   4.552  17.020  0.00  0.00    +0.000 C 
ATOM      9  C   UNL     1       6.527   4.333  17.222  0.00  0.00    +0.000 C 
BRANCH   7  10
ATOM     10  C   UNL     1       3.228   3.871  18.631  0.00  0.00    +0.000 A 
ATOM     11  C   UNL     1       2.008   4.120  17.984  0.00  0.00    +0.000 A 
ATOM     12  C   UNL     1       0.861   3.371  18.270  0.00  0.00    +0.000 A 
ATOM     13  C   UNL     1       0.907   2.349  19.213  0.00  0.00    +0.000 A 
ATOM     14  C   UNL     1       2.102   2.076  19.869  0.00  0.00    +0.000 A 
ATOM     15  C   UNL     1       3.238   2.826  19.574  0.00  0.00    +0.000 A 
ATOM     16  F   UNL     1       4.383   2.474  20.185  0.00  0.00    +0.000 F 
ENDBRANCH   7  10
ENDBRANCH   1   4
BRANCH   1  17
ATOM     17  C   UNL     1       8.313   7.780  18.477  0.00  0.00    +0.000 C 
BRANCH  17  18
ATOM     18  C   UNL     1       8.445   9.264  18.199  0.00  0.00    +0.000 C 
BRANCH  18  19
ATOM     19  N   UNL     1       9.079  10.047  19.274  0.00  0.00    +0.000 NA
ATOM     20  H   UNL     1       8.471  10.342  20.045  0.00  0.00    +0.000 HD
BRANCH  19  21
ATOM     21  S   UNL     1      10.114  11.325  18.929  0.00  0.00    +0.000 S 
ATOM     22  O   UNL     1      10.588  11.107  17.581  0.00  0.00    +0.000 OA
ATOM     23  O   UNL     1      11.018  11.501  20.041  0.00  0.00    +0.000 OA
BRANCH  21  27
ATOM     24  C   UNL     1       7.126  14.745  18.858  0.00  0.00    +0.000 A 
ATOM     25  C   UNL     1       7.378  14.011  17.694  0.00  0.00    +0.000 A 
ATOM     26  C   UNL     1       8.314  12.980  17.699  0.00  0.00    +0.000 A 
ATOM     27  C   UNL     1       9.009  12.704  18.876  0.00  0.00    +0.000 A 
ATOM     28  C   UNL     1       8.794  13.449  20.036  0.00  0.00    +0.000 A 
ATOM     29  C   UNL     1       7.847  14.477  20.025  0.00  0.00    +0.000 A 
BRANCH  24  31
ATOM     30  C   UNL     1       5.039  15.352  17.945  0.00  0.00    +0.000 C 
ATOM     31  O   UNL     1       6.168  15.713  18.733  0.00  0.00    +0.000 OA
ENDBRANCH  24  31
ENDBRANCH  21  27
ENDBRANCH  19  21
ENDBRANCH  18  19
ENDBRANCH  17  18
ENDBRANCH   1  17
TORSDOF 8
ENDMDL
MODEL 2
REMARK VINA RESULT:      -7.5      2.079      2.792
REMARK  Name = 
REMARK  9 active torsions:
REMARK  status: ('A' for Active; 'I' for Inactive)
REMARK    1  A    between atoms: C_1  and  O_2
REMARK    2  A    between atoms: O_2  and  C_3
REMARK    3  A    between atoms: C_6  and  S_7
REMARK    4  A    between atoms: S_7  and  N_10
REMARK    5  A    between atoms: N_10  and  C_11
REMARK    6  A    between atoms: C_11  and  C_12
REMARK    7  A    between atoms: C_12  and  S_13
REMARK    8  A    between atoms: S_13  and  N_16
REMARK    9  A    between atoms: N_19  and  C_20
REMARK                            x       y       z     vdW  Elec       q    Type
REMARK                         _______ _______ _______ _____ _____    ______ ____
ROOT
ATOM      1  S   UNL     1       7.201   6.914  17.349  0.00  0.00    +0.000 S 
ATOM      2  O   UNL     1       5.901   7.544  17.424  0.00  0.00    +0.000 OA
ATOM      3  O   UNL     1       7.934   6.829  16.102  0.00  0.00    +0.000 OA
ENDROOT
BRANCH   1   4
ATOM      4  N   UNL     1       7.074   5.340  18.003  0.00  0.00    +0.000 NA
ATOM      5  C   UNL     1       6.365   5.233  19.334  0.00  0.00    +0.000 C 
ATOM      6  C   UNL     1       4.844   5.436  19.184  0.00  0.00    +0.000 C 
ATOM      7  N   UNL     1       4.317   4.515  18.164  0.00  0.00    +0.000 N 
ATOM      8  C   UNL     1       4.986   4.545  16.854  0.00  0.00    +0.000 C 
ATOM      9  C   UNL     1       6.501   4.321  17.057  0.00  0.00    +0.000 C 
BRANCH   7  10
ATOM     10  C   UNL     1       3.192   3.750  18.399  0.00  0.00    +0.000 A 
ATOM     11  C   UNL     1       3.293   2.456  18.932  0.00  0.00    +0.000 A 
ATOM     12  C   UNL     1       2.158   1.675  19.181  0.00  0.00    +0.000 A 
ATOM     13  C   UNL     1       0.889   2.173  18.902  0.00  0.00    +0.000 A 
ATOM     14  C   UNL     1       0.756   3.453  18.376  0.00  0.00    +0.000 A 
ATOM     15  C   UNL     1       1.892   4.222  18.136  0.00  0.00    +0.000 A 
ATOM     16  F   UNL     1       1.702   5.477  17.692  0.00  0.00    +0.000 F 
ENDBRANCH   7  10
ENDBRANCH   1   4
BRANCH   1  17
ATOM     17  C   UNL     1       8.278   7.681  18.534  0.00  0.00    +0.000 C 
BRANCH  17  18
ATOM     18  C   UNL     1       8.496   9.160  18.289  0.00  0.00    +0.000 C 
BRANCH  18  19
ATOM     19  N   UNL     1       9.306   9.849  19.308  0.00  0.00    +0.000 NA
ATOM     20  H   UNL     1       8.955   9.819  20.271  0.00  0.00    +0.000 HD
BRANCH  19  21
ATOM     21  S   UNL     1       9.915  11.393  19.042  0.00  0.00    +0.000 S 
ATOM     22  O   UNL     1       9.132  11.955  17.965  0.00  0.00    +0.000 OA
ATOM     23  O   UNL     1      11.357  11.318  18.984  0.00  0.00    +0.000 OA
BRANCH  21  27
ATOM     24  C   UNL     1       8.914  13.540  22.916  0.00  0.00    +0.000 A 
ATOM     25  C   UNL     1       8.575  12.193  22.755  0.00  0.00    +0.000 A 
ATOM     26  C   UNL     1       8.852  11.534  21.560  0.00  0.00    +0.000 A 
ATOM     27  C   UNL     1       9.453  12.244  20.520  0.00  0.00    +0.000 A 
ATOM     28  C   UNL     1       9.766  13.598  20.654  0.00  0.00    +0.000 A 
ATOM     29  C   UNL     1       9.493  14.249  21.860  0.00  0.00    +0.000 A 
BRANCH  24  31
ATOM     30  C   UNL     1       8.235  13.121  25.134  0.00  0.00    +0.000 C 
ATOM     31  O   UNL     1       8.616  14.068  24.142  0.00  0.00    +0.000 OA
ENDBRANCH  24  31
ENDBRANCH  21  27
ENDBRANCH  19  21
ENDBRANCH  18  19
ENDBRANCH  17  18
ENDBRANCH   1  17
TORSDOF 8
ENDMDL
MODEL 3
REMARK VINA RESULT:      -7.5      1.842      2.420
REMARK  Name = 
REMARK  9 active torsions:
REMARK  status: ('A' for Active; 'I' for Inactive)
REMARK    1  A    between atoms: C_1  and  O_2
REMARK    2  A    between atoms: O_2  and  C_3
REMARK    3  A    between atoms: C_6  and  S_7
REMARK    4  A    between atoms: S_7  and  N_10
REMARK    5  A    between atoms: N_10  and  C_11
REMARK    6  A    between atoms: C_11  and  C_12
REMARK    7  A    between atoms: C_12  and  S_13
REMARK    8  A    between atoms: S_13  and  N_16
REMARK    9  A    between atoms: N_19  and  C_20
REMARK                            x       y       z     vdW  Elec       q    Type
REMARK                         _______ _______ _______ _____ _____    ______ ____
ROOT
ATOM      1  S   UNL     1       7.089   6.713  17.192  0.00  0.00    +0.000 S 
ATOM      2  O   UNL     1       5.799   7.368  17.176  0.00  0.00    +0.000 OA
ATOM      3  O   UNL     1       7.845   6.494  15.976  0.00  0.00    +0.000 OA
ENDROOT
BRANCH   1   4
ATOM      4  N   UNL     1       6.920   5.213  17.994  0.00  0.00    +0.000 NA
ATOM      5  C   UNL     1       6.340   5.271  19.389  0.00  0.00    +0.000 C 
ATOM      6  C   UNL     1       4.829   5.577  19.361  0.00  0.00    +0.000 C 
ATOM      7  N   UNL     1       4.143   4.616  18.481  0.00  0.00    +0.000 N 
ATOM      8  C   UNL     1       4.680   4.487  17.118  0.00  0.00    +0.000 C 
ATOM      9  C   UNL     1       6.189   4.166  17.199  0.00  0.00    +0.000 C 
BRANCH   7  10
ATOM     10  C   UNL     1       2.996   3.962  18.886  0.00  0.00    +0.000 A 
ATOM     11  C   UNL     1       2.051   4.597  19.706  0.00  0.00    +0.000 A 
ATOM     12  C   UNL     1       0.882   3.946  20.117  0.00  0.00    +0.000 A 
ATOM     13  C   UNL     1       0.629   2.638  19.715  0.00  0.00    +0.000 A 
ATOM     14  C   UNL     1       1.546   1.983  18.900  0.00  0.00    +0.000 A 
ATOM     15  C   UNL     1       2.703   2.642  18.495  0.00  0.00    +0.000 A 
ATOM     16  F   UNL     1       3.521   1.987  17.651  0.00  0.00    +0.000 F 
ENDBRANCH   7  10
ENDBRANCH   1   4
BRANCH   1  17
ATOM     17  C   UNL     1       8.156   7.574  18.319  0.00  0.00    +0.000 C 
BRANCH  17  18
ATOM     18  C   UNL     1       8.255   9.062  18.046  0.00  0.00    +0.000 C 
BRANCH  18  19
ATOM     19  N   UNL     1       9.086   9.818  18.998  0.00  0.00    +0.000 NA
ATOM     20  H   UNL     1       8.788   9.804  19.979  0.00  0.00    +0.000 HD
BRANCH  19  21
ATOM     21  S   UNL     1       9.612  11.376  18.653  0.00  0.00    +0.000 S 
ATOM     22  O   UNL     1       8.700  11.898  17.659  0.00  0.00    +0.000 OA
ATOM     23  O   UNL     1      11.041  11.347  18.443  0.00  0.00    +0.000 OA
BRANCH  21  27
ATOM     24  C   UNL     1       8.960  13.566  22.578  0.00  0.00    +0.000 A 
ATOM     25  C   UNL     1       8.786  12.180  22.513  0.00  0.00    +0.000 A 
ATOM     26  C   UNL     1       8.955  11.503  21.307  0.00  0.00    +0.000 A 
ATOM     27  C   UNL     1       9.280  12.232  20.163  0.00  0.00    +0.000 A 
ATOM     28  C   UNL     1       9.423  13.620  20.205  0.00  0.00    +0.000 A 
ATOM     29  C   UNL     1       9.261  14.290  21.421  0.00  0.00    +0.000 A 
BRANCH  24  31
ATOM     30  C   UNL     1       8.311  15.450  23.838  0.00  0.00    +0.000 C 
ATOM     31  O   UNL     1       8.792  14.110  23.821  0.00  0.00    +0.000 OA
ENDBRANCH  24  31
ENDBRANCH  21  27
ENDBRANCH  19  21
ENDBRANCH  18  19
ENDBRANCH  17  18
ENDBRANCH   1  17
TORSDOF 8
ENDMDL
MODEL 4
REMARK VINA RESULT:      -7.4      0.990      1.585
REMARK  Name = 
REMARK  9 active torsions:
REMARK  status: ('A' for Active; 'I' for Inactive)
REMARK    1  A    between atoms: C_1  and  O_2
REMARK    2  A    between atoms: O_2  and  C_3
REMARK    3  A    between atoms: C_6  and  S_7
REMARK    4  A    between atoms: S_7  and  N_10
REMARK    5  A    between atoms: N_10  and  C_11
REMARK    6  A    between atoms: C_11  and  C_12
REMARK    7  A    between atoms: C_12  and  S_13
REMARK    8  A    between atoms: S_13  and  N_16
REMARK    9  A    between atoms: N_19  and  C_20
REMARK                            x       y       z     vdW  Elec       q    Type
REMARK                         _______ _______ _______ _____ _____    ______ ____
ROOT
ATOM      1  S   UNL     1       7.207   6.963  17.376  0.00  0.00    +0.000 S 
ATOM      2  O   UNL     1       5.902   7.586  17.405  0.00  0.00    +0.000 OA
ATOM      3  O   UNL     1       7.948   6.809  16.140  0.00  0.00    +0.000 OA
ENDROOT
BRANCH   1   4
ATOM      4  N   UNL     1       7.089   5.431  18.124  0.00  0.00    +0.000 NA
ATOM      5  C   UNL     1       6.328   5.390  19.429  0.00  0.00    +0.000 C 
ATOM      6  C   UNL     1       4.810   5.544  19.205  0.00  0.00    +0.000 C 
ATOM      7  N   UNL     1       4.348   4.546  18.225  0.00  0.00    +0.000 N 
ATOM      8  C   UNL     1       5.070   4.511  16.944  0.00  0.00    +0.000 C 
ATOM      9  C   UNL     1       6.580   4.340  17.222  0.00  0.00    +0.000 C 
BRANCH   7  10
ATOM     10  C   UNL     1       3.232   3.769  18.463  0.00  0.00    +0.000 A 
ATOM     11  C   UNL     1       3.342   2.508  19.068  0.00  0.00    +0.000 A 
ATOM     12  C   UNL     1       2.216   1.715  19.320  0.00  0.00    +0.000 A 
ATOM     13  C   UNL     1       0.947   2.168  18.972  0.00  0.00    +0.000 A 
ATOM     14  C   UNL     1       0.805   3.414  18.374  0.00  0.00    +0.000 A 
ATOM     15  C   UNL     1       1.932   4.196  18.131  0.00  0.00    +0.000 A 
ATOM     16  F   UNL     1       1.731   5.421  17.615  0.00  0.00    +0.000 F 
ENDBRANCH   7  10
ENDBRANCH   1   4
BRANCH   1  17
ATOM     17  C   UNL     1       8.272   7.809  18.517  0.00  0.00    +0.000 C 
BRANCH  17  18
ATOM     18  C   UNL     1       8.521   9.260  18.155  0.00  0.00    +0.000 C 
BRANCH  18  19
ATOM     19  N   UNL     1       9.115  10.078  19.226  0.00  0.00    +0.000 NA
ATOM     20  H   UNL     1       8.493  10.347  19.996  0.00  0.00    +0.000 HD
BRANCH  19  21
ATOM     21  S   UNL     1      10.087  11.403  18.875  0.00  0.00    +0.000 S 
ATOM     22  O   UNL     1      10.584  11.194  17.534  0.00  0.00    +0.000 OA
ATOM     23  O   UNL     1      10.971  11.637  19.994  0.00  0.00    +0.000 OA
BRANCH  21  27
ATOM     24  C   UNL     1       7.217  14.910  18.577  0.00  0.00    +0.000 A 
ATOM     25  C   UNL     1       7.970  14.720  19.739  0.00  0.00    +0.000 A 
ATOM     26  C   UNL     1       8.831  13.631  19.852  0.00  0.00    +0.000 A 
ATOM     27  C   UNL     1       8.915  12.723  18.796  0.00  0.00    +0.000 A 
ATOM     28  C   UNL     1       8.143  12.881  17.643  0.00  0.00    +0.000 A 
ATOM     29  C   UNL     1       7.288  13.981  17.535  0.00  0.00    +0.000 A 
BRANCH  24  31
ATOM     30  C   UNL     1       6.099  16.539  19.864  0.00  0.00    +0.000 C 
ATOM     31  O   UNL     1       6.429  16.028  18.577  0.00  0.00    +0.000 OA
ENDBRANCH  24  31
ENDBRANCH  21  27
ENDBRANCH  19  21
ENDBRANCH  18  19
ENDBRANCH  17  18
ENDBRANCH   1  17
TORSDOF 8
ENDMDL
MODEL 5
REMARK VINA RESULT:      -7.2      1.582      2.301
REMARK  Name = 
REMARK  9 active torsions:
REMARK  status: ('A' for Active; 'I' for Inactive)
REMARK    1  A    between atoms: C_1  and  O_2
REMARK    2  A    between atoms: O_2  and  C_3
REMARK    3  A    between atoms: C_6  and  S_7
REMARK    4  A    between atoms: S_7  and  N_10
REMARK    5  A    between atoms: N_10  and  C_11
REMARK    6  A    between atoms: C_11  and  C_12
REMARK    7  A    between atoms: C_12  and  S_13
REMARK    8  A    between atoms: S_13  and  N_16
REMARK    9  A    between atoms: N_19  and  C_20
REMARK                            x       y       z     vdW  Elec       q    Type
REMARK                         _______ _______ _______ _____ _____    ______ ____
ROOT
ATOM      1  S   UNL     1       6.916   6.284  16.986  0.00  0.00    +0.000 S 
ATOM      2  O   UNL     1       7.722   6.071  15.804  0.00  0.00    +0.000 OA
ATOM      3  O   UNL     1       7.217   5.626  18.241  0.00  0.00    +0.000 OA
ENDROOT
BRANCH   1   4
ATOM      4  N   UNL     1       5.285   5.961  16.590  0.00  0.00    +0.000 NA
ATOM      5  C   UNL     1       4.910   4.501  16.474  0.00  0.00    +0.000 C 
ATOM      6  C   UNL     1       4.847   3.821  17.857  0.00  0.00    +0.000 C 
ATOM      7  N   UNL     1       3.958   4.586  18.747  0.00  0.00    +0.000 N 
ATOM      8  C   UNL     1       4.248   6.022  18.878  0.00  0.00    +0.000 C 
ATOM      9  C   UNL     1       4.285   6.659  17.471  0.00  0.00    +0.000 C 
BRANCH   7  10
ATOM     10  C   UNL     1       2.981   3.961  19.496  0.00  0.00    +0.000 A 
ATOM     11  C   UNL     1       3.270   3.418  20.757  0.00  0.00    +0.000 A 
ATOM     12  C   UNL     1       2.285   2.789  21.527  0.00  0.00    +0.000 A 
ATOM     13  C   UNL     1       0.981   2.688  21.053  0.00  0.00    +0.000 A 
ATOM     14  C   UNL     1       0.662   3.219  19.808  0.00  0.00    +0.000 A 
ATOM     15  C   UNL     1       1.649   3.846  19.052  0.00  0.00    +0.000 A 
ATOM     16  F   UNL     1       1.272   4.403  17.887  0.00  0.00    +0.000 F 
ENDBRANCH   7  10
ENDBRANCH   1   4
BRANCH   1  17
ATOM     17  C   UNL     1       6.839   8.026  17.320  0.00  0.00    +0.000 C 
BRANCH  17  18
ATOM     18  C   UNL     1       8.132   8.600  17.861  0.00  0.00    +0.000 C 
BRANCH  18  19
ATOM     19  N   UNL     1       8.121  10.054  18.098  0.00  0.00    +0.000 NA
ATOM     20  H   UNL     1       7.696  10.634  17.368  0.00  0.00    +0.000 HD
BRANCH  19  21
ATOM     21  S   UNL     1       9.488  10.859  18.651  0.00  0.00    +0.000 S 
ATOM     22  O   UNL     1      10.405  10.912  17.534  0.00  0.00    +0.000 OA
ATOM     23  O   UNL     1       9.868  10.302  19.929  0.00  0.00    +0.000 OA
BRANCH  21  27
ATOM     24  C   UNL     1       8.121  15.147  19.254  0.00  0.00    +0.000 A 
ATOM     25  C   UNL     1       8.605  14.409  20.338  0.00  0.00    +0.000 A 
ATOM     26  C   UNL     1       8.999  13.083  20.169  0.00  0.00    +0.000 A 
ATOM     27  C   UNL     1       8.885  12.500  18.907  0.00  0.00    +0.000 A 
ATOM     28  C   UNL     1       8.372  13.214  17.823  0.00  0.00    +0.000 A 
ATOM     29  C   UNL     1       7.987  14.546  17.999  0.00  0.00    +0.000 A 
BRANCH  24  31
ATOM     30  C   UNL     1       6.774  16.609  20.522  0.00  0.00    +0.000 C 
ATOM     31  O   UNL     1       7.792  16.444  19.540  0.00  0.00    +0.000 OA
ENDBRANCH  24  31
ENDBRANCH  21  27
ENDBRANCH  19  21
ENDBRANCH  18  19
ENDBRANCH  17  18
ENDBRANCH   1  17
TORSDOF 8
ENDMDL
MODEL 6
REMARK VINA RESULT:      -7.1      5.866      7.927
REMARK  Name = 
REMARK  9 active torsions:
REMARK  status: ('A' for Active; 'I' for Inactive)
REMARK    1  A    between atoms: C_1  and  O_2
REMARK    2  A    between atoms: O_2  and  C_3
REMARK    3  A    between atoms: C_6  and  S_7
REMARK    4  A    between atoms: S_7  and  N_10
REMARK    5  A    between atoms: N_10  and  C_11
REMARK    6  A    between atoms: C_11  and  C_12
REMARK    7  A    between atoms: C_12  and  S_13
REMARK    8  A    between atoms: S_13  and  N_16
REMARK    9  A    between atoms: N_19  and  C_20
REMARK                            x       y       z     vdW  Elec       q    Type
REMARK                         _______ _______ _______ _____ _____    ______ ____
ROOT
ATOM      1  S   UNL     1       3.215   6.138  18.547  0.00  0.00    +0.000 S 
ATOM      2  O   UNL     1       3.019   6.103  19.979  0.00  0.00    +0.000 OA
ATOM      3  O   UNL     1       2.413   5.331  17.650  0.00  0.00    +0.000 OA
ENDROOT
BRANCH   1   4
ATOM      4  N   UNL     1       4.863   5.822  18.222  0.00  0.00    +0.000 NA
ATOM      5  C   UNL     1       5.208   4.389  17.889  0.00  0.00    +0.000 C 
ATOM      6  C   UNL     1       4.720   4.001  16.479  0.00  0.00    +0.000 C 
ATOM      7  N   UNL     1       5.227   4.970  15.493  0.00  0.00    +0.000 N 
ATOM      8  C   UNL     1       4.954   6.388  15.776  0.00  0.00    +0.000 C 
ATOM      9  C   UNL     1       5.475   6.729  17.189  0.00  0.00    +0.000 C 
BRANCH   7  10
ATOM     10  C   UNL     1       5.826   4.556  14.320  0.00  0.00    +0.000 A 
ATOM     11  C   UNL     1       5.152   3.720  13.418  0.00  0.00    +0.000 A 
ATOM     12  C   UNL     1       5.747   3.299  12.223  0.00  0.00    +0.000 A 
ATOM     13  C   UNL     1       7.037   3.707  11.900  0.00  0.00    +0.000 A 
ATOM     14  C   UNL     1       7.731   4.538  12.773  0.00  0.00    +0.000 A 
ATOM     15  C   UNL     1       7.127   4.953  13.957  0.00  0.00    +0.000 A 
ATOM     16  F   UNL     1       7.815   5.811  14.731  0.00  0.00    +0.000 F 
ENDBRANCH   7  10
ENDBRANCH   1   4
BRANCH   1  17
ATOM     17  C   UNL     1       3.082   7.819  17.990  0.00  0.00    +0.000 C 
BRANCH  17  18
ATOM     18  C   UNL     1       1.655   8.323  17.913  0.00  0.00    +0.000 C 
BRANCH  18  19
ATOM     19  N   UNL     1       1.515   9.765  17.649  0.00  0.00    +0.000 NA
ATOM     20  H   UNL     1       2.310  10.227  17.194  0.00  0.00    +0.000 HD
BRANCH  19  21
ATOM     21  S   UNL     1       0.924  10.815  18.821  0.00  0.00    +0.000 S 
ATOM     22  O   UNL     1       1.503  12.108  18.533  0.00  0.00    +0.000 OA
ATOM     23  O   UNL     1       1.057  10.186  20.115  0.00  0.00    +0.000 OA
BRANCH  21  27
ATOM     24  C   UNL     1      -3.526  10.929  17.926  0.00  0.00    +0.000 A 
ATOM     25  C   UNL     1      -2.695  10.050  17.226  0.00  0.00    +0.000 A 
ATOM     26  C   UNL     1      -1.324  10.028  17.472  0.00  0.00    +0.000 A 
ATOM     27  C   UNL     1      -0.793  10.910  18.413  0.00  0.00    +0.000 A 
ATOM     28  C   UNL     1      -1.605  11.818  19.096  0.00  0.00    +0.000 A 
ATOM     29  C   UNL     1      -2.981  11.826  18.848  0.00  0.00    +0.000 A 
BRANCH  24  31
ATOM     30  C   UNL     1      -5.751  11.195  18.661  0.00  0.00    +0.000 C 
ATOM     31  O   UNL     1      -4.855  10.838  17.614  0.00  0.00    +0.000 OA
ENDBRANCH  24  31
ENDBRANCH  21  27
ENDBRANCH  19  21
ENDBRANCH  18  19
ENDBRANCH  17  18
ENDBRANCH   1  17
TORSDOF 8
ENDMDL
MODEL 7
REMARK VINA RESULT:      -7.1      5.513      7.091
REMARK  Name = 
REMARK  9 active torsions:
REMARK  status: ('A' for Active; 'I' for Inactive)
REMARK    1  A    between atoms: C_1  and  O_2
REMARK    2  A    between atoms: O_2  and  C_3
REMARK    3  A    between atoms: C_6  and  S_7
REMARK    4  A    between atoms: S_7  and  N_10
REMARK    5  A    between atoms: N_10  and  C_11
REMARK    6  A    between atoms: C_11  and  C_12
REMARK    7  A    between atoms: C_12  and  S_13
REMARK    8  A    between atoms: S_13  and  N_16
REMARK    9  A    between atoms: N_19  and  C_20
REMARK                            x       y       z     vdW  Elec       q    Type
REMARK                         _______ _______ _______ _____ _____    ______ ____
ROOT
ATOM      1  S   UNL     1       1.669   2.978  20.522  0.00  0.00    +0.000 S 
ATOM      2  O   UNL     1       1.423   2.274  21.761  0.00  0.00    +0.000 OA
ATOM      3  O   UNL     1       0.584   3.406  19.663  0.00  0.00    +0.000 OA
ENDROOT
BRANCH   1   4
ATOM      4  N   UNL     1       2.759   2.052  19.585  0.00  0.00    +0.000 NA
ATOM      5  C   UNL     1       2.518   2.059  18.093  0.00  0.00    +0.000 C 
ATOM      6  C   UNL     1       2.915   3.408  17.462  0.00  0.00    +0.000 C 
ATOM      7  N   UNL     1       4.300   3.744  17.834  0.00  0.00    +0.000 N 
ATOM      8  C   UNL     1       4.609   3.722  19.272  0.00  0.00    +0.000 C 
ATOM      9  C   UNL     1       4.209   2.348  19.853  0.00  0.00    +0.000 C 
BRANCH   7  10
ATOM     10  C   UNL     1       5.217   4.159  16.890  0.00  0.00    +0.000 A 
ATOM     11  C   UNL     1       5.352   3.488  15.665  0.00  0.00    +0.000 A 
ATOM     12  C   UNL     1       6.273   3.904  14.697  0.00  0.00    +0.000 A 
ATOM     13  C   UNL     1       7.086   5.009  14.932  0.00  0.00    +0.000 A 
ATOM     14  C   UNL     1       6.975   5.697  16.135  0.00  0.00    +0.000 A 
ATOM     15  C   UNL     1       6.052   5.275  17.089  0.00  0.00    +0.000 A 
ATOM     16  F   UNL     1       5.937   6.018  18.204  0.00  0.00    +0.000 F 
ENDBRANCH   7  10
ENDBRANCH   1   4
BRANCH   1  17
ATOM     17  C   UNL     1       2.658   4.412  20.863  0.00  0.00    +0.000 C 
BRANCH  17  18
ATOM     18  C   UNL     1       1.963   5.720  20.545  0.00  0.00    +0.000 C 
BRANCH  18  19
ATOM     19  N   UNL     1       2.824   6.759  19.954  0.00  0.00    +0.000 NA
ATOM     20  H   UNL     1       3.154   7.495  20.586  0.00  0.00    +0.000 HD
BRANCH  19  21
ATOM     21  S   UNL     1       2.436   7.486  18.490  0.00  0.00    +0.000 S 
ATOM     22  O   UNL     1       1.609   6.539  17.776  0.00  0.00    +0.000 OA
ATOM     23  O   UNL     1       3.640   8.040  17.914  0.00  0.00    +0.000 OA
BRANCH  21  27
ATOM     24  C   UNL     1      -0.416  10.775  19.784  0.00  0.00    +0.000 A 
ATOM     25  C   UNL     1      -0.122  10.598  18.429  0.00  0.00    +0.000 A 
ATOM     26  C   UNL     1       0.775   9.611  18.024  0.00  0.00    +0.000 A 
ATOM     27  C   UNL     1       1.387   8.817  18.993  0.00  0.00    +0.000 A 
ATOM     28  C   UNL     1       1.129   9.004  20.353  0.00  0.00    +0.000 A 
ATOM     29  C   UNL     1       0.222   9.990  20.749  0.00  0.00    +0.000 A 
BRANCH  24  31
ATOM     30  C   UNL     1      -2.420  11.838  19.140  0.00  0.00    +0.000 C 
ATOM     31  O   UNL     1      -1.330  11.757  20.052  0.00  0.00    +0.000 OA
ENDBRANCH  24  31
ENDBRANCH  21  27
ENDBRANCH  19  21
ENDBRANCH  18  19
ENDBRANCH  17  18
ENDBRANCH   1  17
TORSDOF 8
ENDMDL
MODEL 8
REMARK VINA RESULT:      -7.0      1.016      1.562
REMARK  Name = 
REMARK  9 active torsions:
REMARK  status: ('A' for Active; 'I' for Inactive)
REMARK    1  A    between atoms: C_1  and  O_2
REMARK    2  A    between atoms: O_2  and  C_3
REMARK    3  A    between atoms: C_6  and  S_7
REMARK    4  A    between atoms: S_7  and  N_10
REMARK    5  A    between atoms: N_10  and  C_11
REMARK    6  A    between atoms: C_11  and  C_12
REMARK    7  A    between atoms: C_12  and  S_13
REMARK    8  A    between atoms: S_13  and  N_16
REMARK    9  A    between atoms: N_19  and  C_20
REMARK                            x       y       z     vdW  Elec       q    Type
REMARK                         _______ _______ _______ _____ _____    ______ ____
ROOT
ATOM      1  S   UNL     1       7.079   6.891  17.283  0.00  0.00    +0.000 S 
ATOM      2  O   UNL     1       7.898   6.455  16.174  0.00  0.00    +0.000 OA
ATOM      3  O   UNL     1       7.169   6.267  18.587  0.00  0.00    +0.000 OA
ENDROOT
BRANCH   1   4
ATOM      4  N   UNL     1       5.443   6.861  16.788  0.00  0.00    +0.000 NA
ATOM      5  C   UNL     1       5.014   5.646  15.998  0.00  0.00    +0.000 C 
ATOM      6  C   UNL     1       4.902   4.398  16.897  0.00  0.00    +0.000 C 
ATOM      7  N   UNL     1       4.029   4.688  18.046  0.00  0.00    +0.000 N 
ATOM      8  C   UNL     1       4.373   5.880  18.838  0.00  0.00    +0.000 C 
ATOM      9  C   UNL     1       4.457   7.102  17.897  0.00  0.00    +0.000 C 
BRANCH   7  10
ATOM     10  C   UNL     1       3.016   3.826  18.416  0.00  0.00    +0.000 A 
ATOM     11  C   UNL     1       1.684   4.075  18.053  0.00  0.00    +0.000 A 
ATOM     12  C   UNL     1       0.650   3.203  18.415  0.00  0.00    +0.000 A 
ATOM     13  C   UNL     1       0.926   2.056  19.152  0.00  0.00    +0.000 A 
ATOM     14  C   UNL     1       2.237   1.780  19.525  0.00  0.00    +0.000 A 
ATOM     15  C   UNL     1       3.257   2.652  19.155  0.00  0.00    +0.000 A 
ATOM     16  F   UNL     1       4.514   2.302  19.481  0.00  0.00    +0.000 F 
ENDBRANCH   7  10
ENDBRANCH   1   4
BRANCH   1  17
ATOM     17  C   UNL     1       7.321   8.633  17.524  0.00  0.00    +0.000 C 
BRANCH  17  18
ATOM     18  C   UNL     1       8.500   8.966  18.416  0.00  0.00    +0.000 C 
BRANCH  18  19
ATOM     19  N   UNL     1       9.173  10.241  18.115  0.00  0.00    +0.000 NA
ATOM     20  H   UNL     1       9.842  10.234  17.338  0.00  0.00    +0.000 HD
BRANCH  19  21
ATOM     21  S   UNL     1       9.826  11.194  19.335  0.00  0.00    +0.000 S 
ATOM     22  O   UNL     1      11.213  11.401  18.985  0.00  0.00    +0.000 OA
ATOM     23  O   UNL     1       9.431  10.645  20.612  0.00  0.00    +0.000 OA
BRANCH  21  27
ATOM     24  C   UNL     1       7.517  15.068  18.807  0.00  0.00    +0.000 A 
ATOM     25  C   UNL     1       7.634  14.173  17.739  0.00  0.00    +0.000 A 
ATOM     26  C   UNL     1       8.365  12.996  17.883  0.00  0.00    +0.000 A 
ATOM     27  C   UNL     1       8.994  12.735  19.100  0.00  0.00    +0.000 A 
ATOM     28  C   UNL     1       8.915  13.635  20.164  0.00  0.00    +0.000 A 
ATOM     29  C   UNL     1       8.172  14.810  20.014  0.00  0.00    +0.000 A 
BRANCH  24  31
ATOM     30  C   UNL     1       5.349  15.944  18.504  0.00  0.00    +0.000 C 
ATOM     31  O   UNL     1       6.753  16.174  18.551  0.00  0.00    +0.000 OA
ENDBRANCH  24  31
ENDBRANCH  21  27
ENDBRANCH  19  21
ENDBRANCH  18  19
ENDBRANCH  17  18
ENDBRANCH   1  17
TORSDOF 8
ENDMDL
MODEL 9
REMARK VINA RESULT:      -7.0      5.932      7.107
REMARK  Name = 
REMARK  9 active torsions:
REMARK  status: ('A' for Active; 'I' for Inactive)
REMARK    1  A    between atoms: C_1  and  O_2
REMARK    2  A    between atoms: O_2  and  C_3
REMARK    3  A    between atoms: C_6  and  S_7
REMARK    4  A    between atoms: S_7  and  N_10
REMARK    5  A    between atoms: N_10  and  C_11
REMARK    6  A    between atoms: C_11  and  C_12
REMARK    7  A    between atoms: C_12  and  S_13
REMARK    8  A    between atoms: S_13  and  N_16
REMARK    9  A    between atoms: N_19  and  C_20
REMARK                            x       y       z     vdW  Elec       q    Type
REMARK                         _______ _______ _______ _____ _____    ______ ____
ROOT
ATOM      1  S   UNL     1       1.526   3.278  20.891  0.00  0.00    +0.000 S 
ATOM      2  O   UNL     1       1.407   2.715  22.217  0.00  0.00    +0.000 OA
ATOM      3  O   UNL     1       0.383   3.388  20.006  0.00  0.00    +0.000 OA
ENDROOT
BRANCH   1   4
ATOM      4  N   UNL     1       2.766   2.445  20.061  0.00  0.00    +0.000 NA
ATOM      5  C   UNL     1       2.485   2.111  18.614  0.00  0.00    +0.000 C 
ATOM      6  C   UNL     1       2.550   3.366  17.721  0.00  0.00    +0.000 C 
ATOM      7  N   UNL     1       3.835   4.056  17.925  0.00  0.00    +0.000 N 
ATOM      8  C   UNL     1       4.185   4.379  19.317  0.00  0.00    +0.000 C 
ATOM      9  C   UNL     1       4.121   3.090  20.165  0.00  0.00    +0.000 C 
BRANCH   7  10
ATOM     10  C   UNL     1       4.607   4.467  16.857  0.00  0.00    +0.000 A 
ATOM     11  C   UNL     1       5.314   3.542  16.074  0.00  0.00    +0.000 A 
ATOM     12  C   UNL     1       6.094   3.948  14.985  0.00  0.00    +0.000 A 
ATOM     13  C   UNL     1       6.185   5.295  14.650  0.00  0.00    +0.000 A 
ATOM     14  C   UNL     1       5.493   6.236  15.404  0.00  0.00    +0.000 A 
ATOM     15  C   UNL     1       4.718   5.820  16.483  0.00  0.00    +0.000 A 
ATOM     16  F   UNL     1       4.015   6.764  17.136  0.00  0.00    +0.000 F 
ENDBRANCH   7  10
ENDBRANCH   1   4
BRANCH   1  17
ATOM     17  C   UNL     1       2.241   4.898  21.017  0.00  0.00    +0.000 C 
BRANCH  17  18
ATOM     18  C   UNL     1       1.342   6.002  20.497  0.00  0.00    +0.000 C 
BRANCH  18  19
ATOM     19  N   UNL     1       1.779   7.370  20.824  0.00  0.00    +0.000 NA
ATOM     20  H   UNL     1       2.721   7.470  21.215  0.00  0.00    +0.000 HD
BRANCH  19  21
ATOM     21  S   UNL     1       0.774   8.434  21.651  0.00  0.00    +0.000 S 
ATOM     22  O   UNL     1       1.475   8.788  22.865  0.00  0.00    +0.000 OA
ATOM     23  O   UNL     1      -0.563   7.887  21.669  0.00  0.00    +0.000 OA
BRANCH  21  27
ATOM     24  C   UNL     1       1.014  12.102  18.985  0.00  0.00    +0.000 A 
ATOM     25  C   UNL     1       0.774  12.247  20.355  0.00  0.00    +0.000 A 
ATOM     26  C   UNL     1       0.670  11.127  21.175  0.00  0.00    +0.000 A 
ATOM     27  C   UNL     1       0.788   9.859  20.606  0.00  0.00    +0.000 A 
ATOM     28  C   UNL     1       0.993   9.697  19.235  0.00  0.00    +0.000 A 
ATOM     29  C   UNL     1       1.105  10.827  18.420  0.00  0.00    +0.000 A 
BRANCH  24  31
ATOM     30  C   UNL     1      -0.044  14.093  18.293  0.00  0.00    +0.000 C 
ATOM     31  O   UNL     1       1.122  13.275  18.290  0.00  0.00    +0.000 OA
ENDBRANCH  24  31
ENDBRANCH  21  27
ENDBRANCH  19  21
ENDBRANCH  18  19
ENDBRANCH  17  18
ENDBRANCH   1  17
TORSDOF 8
ENDMDL
