MODEL 1
REMARK VINA RESULT:      -7.1      0.000      0.000
REMARK  Name = 
REMARK  5 active torsions:
REMARK  status: ('A' for Active; 'I' for Inactive)
REMARK    1  A    between atoms: C_8  and  C_9
REMARK    2  A    between atoms: C_10  and  O_11
REMARK    3  A    between atoms: C_17  and  C_18
REMARK    4  A    between atoms: C_20  and  C_21
REMARK    5  A    between atoms: C_20  and  C_22
REMARK                            x       y       z     vdW  Elec       q    Type
REMARK                         _______ _______ _______ _____ _____    ______ ____
ROOT
ATOM      1  C   UNL     1       4.227   3.631  16.242  0.00  0.00    +0.000 C 
ATOM      2  C   UNL     1       4.441   4.041  17.502  0.00  0.00    +0.000 C 
ATOM      3  C   UNL     1       5.635   3.686  18.341  0.00  0.00    +0.000 C 
ATOM      4  C   UNL     1       6.348   4.875  19.012  0.00  0.00    +0.000 C 
ATOM      5  C   UNL     1       6.201   6.273  18.444  0.00  0.00    +0.000 C 
ATOM      6  C   UNL     1       5.201   6.752  17.222  0.00  0.00    +0.000 C 
ATOM      7  C   UNL     1       3.877   6.400  17.938  0.00  0.00    +0.000 A 
ATOM      8  C   UNL     1       2.984   7.368  18.469  0.00  0.00    +0.000 A 
ATOM      9  C   UNL     1       3.069   8.799  18.004  0.00  0.00    +0.000 C 
ATOM     10  C   UNL     1       2.006   6.962  19.410  0.00  0.00    +0.000 A 
ATOM     11  C   UNL     1       1.855   5.617  19.722  0.00  0.00    +0.000 A 
ATOM     12  C   UNL     1       2.562   4.679  18.996  0.00  0.00    +0.000 A 
ATOM     13  C   UNL     1       3.558   5.032  18.113  0.00  0.00    +0.000 A 
ATOM     14  C   UNL     1       2.115   3.346  19.407  0.00  0.00    +0.000 C 
ATOM     15  O   UNL     1       2.480   2.302  18.905  0.00  0.00    +0.000 OA
ATOM     16  C   UNL     1       1.108   3.472  20.520  0.00  0.00    +0.000 C 
ATOM     17  C   UNL     1       1.520   2.560  21.676  0.00  0.00    +0.000 C 
ATOM     18  C   UNL     1       1.068   4.986  20.835  0.00  0.00    +0.000 C 
ATOM     19  C   UNL     1       6.738   6.693  17.170  0.00  0.00    +0.000 C 
ATOM     20  C   UNL     1       7.483   8.007  17.143  0.00  0.00    +0.000 C 
ATOM     21  C   UNL     1       7.390   5.668  16.261  0.00  0.00    +0.000 C 
ENDROOT
BRANCH  10  22
ATOM     22  O   UNL     1       1.181   7.842  20.048  0.00  0.00    +0.000 OA
ATOM     23  H   UNL     1       1.712   8.541  20.467  0.00  0.00    +0.000 HD
ENDBRANCH  10  22
TORSDOF 1
ENDMDL
MODEL 2
REMARK VINA RESULT:      -6.5      8.499     11.859
REMARK  Name = 
REMARK  5 active torsions:
REMARK  status: ('A' for Active; 'I' for Inactive)
REMARK    1  A    between atoms: C_8  and  C_9
REMARK    2  A    between atoms: C_10  and  O_11
REMARK    3  A    between atoms: C_17  and  C_18
REMARK    4  A    between atoms: C_20  and  C_21
REMARK    5  A    between atoms: C_20  and  C_22
REMARK                            x       y       z     vdW  Elec       q    Type
REMARK                         _______ _______ _______ _____ _____    ______ ____
ROOT
ATOM      1  C   UNL     1       6.834  15.345  19.874  0.00  0.00    +0.000 C 
ATOM      2  C   UNL     1       8.135  15.179  20.159  0.00  0.00    +0.000 C 
ATOM      3  C   UNL     1       8.859  15.808  21.314  0.00  0.00    +0.000 C 
ATOM      4  C   UNL     1       9.689  14.842  22.179  0.00  0.00    +0.000 C 
ATOM      5  C   UNL     1       9.363  13.361  22.196  0.00  0.00    +0.000 C 
ATOM      6  C   UNL     1       8.273  12.570  21.242  0.00  0.00    +0.000 C 
ATOM      7  C   UNL     1       8.971  12.876  19.897  0.00  0.00    +0.000 A 
ATOM      8  C   UNL     1       9.687  11.911  19.140  0.00  0.00    +0.000 A 
ATOM      9  C   UNL     1       9.459  10.443  19.393  0.00  0.00    +0.000 C 
ATOM     10  C   UNL     1      10.584  12.349  18.135  0.00  0.00    +0.000 A 
ATOM     11  C   UNL     1      10.677  13.700  17.825  0.00  0.00    +0.000 A 
ATOM     12  C   UNL     1       9.782  14.581  18.398  0.00  0.00    +0.000 A 
ATOM     13  C   UNL     1       8.933  14.206  19.415  0.00  0.00    +0.000 A 
ATOM     14  C   UNL     1       9.986  15.901  17.797  0.00  0.00    +0.000 C 
ATOM     15  O   UNL     1       9.307  16.883  18.022  0.00  0.00    +0.000 OA
ATOM     16  C   UNL     1      11.142  15.843  16.833  0.00  0.00    +0.000 C 
ATOM     17  C   UNL     1      12.116  16.978  17.149  0.00  0.00    +0.000 C 
ATOM     18  C   UNL     1      11.701  14.409  16.985  0.00  0.00    +0.000 C 
ATOM     19  C   UNL     1       8.156  12.801  22.759  0.00  0.00    +0.000 C 
ATOM     20  C   UNL     1       8.315  11.599  23.660  0.00  0.00    +0.000 C 
ATOM     21  C   UNL     1       7.067  13.730  23.264  0.00  0.00    +0.000 C 
ENDROOT
BRANCH  10  22
ATOM     22  O   UNL     1      11.388  11.496  17.436  0.00  0.00    +0.000 OA
ATOM     23  H   UNL     1      11.491  11.821  16.525  0.00  0.00    +0.000 HD
ENDBRANCH  10  22
TORSDOF 1
ENDMDL
MODEL 3
REMARK VINA RESULT:      -6.2      8.357      9.903
REMARK  Name = 
REMARK  5 active torsions:
REMARK  status: ('A' for Active; 'I' for Inactive)
REMARK    1  A    between atoms: C_8  and  C_9
REMARK    2  A    between atoms: C_10  and  O_11
REMARK    3  A    between atoms: C_17  and  C_18
REMARK    4  A    between atoms: C_20  and  C_21
REMARK    5  A    between atoms: C_20  and  C_22
REMARK                            x       y       z     vdW  Elec       q    Type
REMARK                         _______ _______ _______ _____ _____    ______ ____
ROOT
ATOM      1  C   UNL     1       9.353  10.854  18.981  0.00  0.00    +0.000 C 
ATOM      2  C   UNL     1       9.755  11.848  19.787  0.00  0.00    +0.000 C 
ATOM      3  C   UNL     1      11.171  12.101  20.216  0.00  0.00    +0.000 C 
ATOM      4  C   UNL     1      11.671  13.545  20.029  0.00  0.00    +0.000 C 
ATOM      5  C   UNL     1      11.004  14.459  19.020  0.00  0.00    +0.000 C 
ATOM      6  C   UNL     1       9.636  14.152  18.150  0.00  0.00    +0.000 C 
ATOM      7  C   UNL     1       8.686  14.028  19.364  0.00  0.00    +0.000 A 
ATOM      8  C   UNL     1       7.724  15.010  19.718  0.00  0.00    +0.000 A 
ATOM      9  C   UNL     1       7.289  16.032  18.700  0.00  0.00    +0.000 C 
ATOM     10  C   UNL     1       7.166  14.993  21.020  0.00  0.00    +0.000 A 
ATOM     11  C   UNL     1       7.479  13.962  21.897  0.00  0.00    +0.000 A 
ATOM     12  C   UNL     1       8.212  12.888  21.433  0.00  0.00    +0.000 A 
ATOM     13  C   UNL     1       8.815  12.890  20.196  0.00  0.00    +0.000 A 
ATOM     14  C   UNL     1       8.271  11.878  22.493  0.00  0.00    +0.000 C 
ATOM     15  O   UNL     1       8.773  10.778  22.382  0.00  0.00    +0.000 OA
ATOM     16  C   UNL     1       7.583  12.401  23.727  0.00  0.00    +0.000 C 
ATOM     17  C   UNL     1       8.509  12.226  24.930  0.00  0.00    +0.000 C 
ATOM     18  C   UNL     1       7.204  13.858  23.371  0.00  0.00    +0.000 C 
ATOM     19  C   UNL     1      11.064  14.271  17.589  0.00  0.00    +0.000 C 
ATOM     20  C   UNL     1      11.383  15.488  16.753  0.00  0.00    +0.000 C 
ATOM     21  C   UNL     1      11.724  13.026  17.027  0.00  0.00    +0.000 C 
ENDROOT
BRANCH  10  22
ATOM     22  O   UNL     1       6.318  15.959  21.477  0.00  0.00    +0.000 OA
ATOM     23  H   UNL     1       6.330  15.969  22.449  0.00  0.00    +0.000 HD
ENDBRANCH  10  22
TORSDOF 1
ENDMDL
MODEL 4
REMARK VINA RESULT:      -6.1      9.055     11.539
REMARK  Name = 
REMARK  5 active torsions:
REMARK  status: ('A' for Active; 'I' for Inactive)
REMARK    1  A    between atoms: C_8  and  C_9
REMARK    2  A    between atoms: C_10  and  O_11
REMARK    3  A    between atoms: C_17  and  C_18
REMARK    4  A    between atoms: C_20  and  C_21
REMARK    5  A    between atoms: C_20  and  C_22
REMARK                            x       y       z     vdW  Elec       q    Type
REMARK                         _______ _______ _______ _____ _____    ______ ____
ROOT
ATOM      1  C   UNL     1      11.216  16.441  22.419  0.00  0.00    +0.000 C 
ATOM      2  C   UNL     1      10.195  15.918  21.723  0.00  0.00    +0.000 C 
ATOM      3  C   UNL     1       9.188  16.705  20.933  0.00  0.00    +0.000 C 
ATOM      4  C   UNL     1       8.964  16.227  19.487  0.00  0.00    +0.000 C 
ATOM      5  C   UNL     1      10.031  15.419  18.775  0.00  0.00    +0.000 C 
ATOM      6  C   UNL     1      11.422  14.814  19.426  0.00  0.00    +0.000 C 
ATOM      7  C   UNL     1      10.738  13.880  20.450  0.00  0.00    +0.000 A 
ATOM      8  C   UNL     1      10.692  12.466  20.322  0.00  0.00    +0.000 A 
ATOM      9  C   UNL     1      11.658  11.766  19.402  0.00  0.00    +0.000 C 
ATOM     10  C   UNL     1       9.752  11.734  21.089  0.00  0.00    +0.000 A 
ATOM     11  C   UNL     1       8.965  12.384  22.031  0.00  0.00    +0.000 A 
ATOM     12  C   UNL     1       9.218  13.712  22.313  0.00  0.00    +0.000 A 
ATOM     13  C   UNL     1      10.082  14.471  21.556  0.00  0.00    +0.000 A 
ATOM     14  C   UNL     1       8.369  14.115  23.436  0.00  0.00    +0.000 C 
ATOM     15  O   UNL     1       8.402  15.198  23.984  0.00  0.00    +0.000 OA
ATOM     16  C   UNL     1       7.474  12.967  23.830  0.00  0.00    +0.000 C 
ATOM     17  C   UNL     1       6.029  13.460  23.902  0.00  0.00    +0.000 C 
ATOM     18  C   UNL     1       7.765  11.873  22.777  0.00  0.00    +0.000 C 
ATOM     19  C   UNL     1      11.320  15.942  18.384  0.00  0.00    +0.000 C 
ATOM     20  C   UNL     1      11.784  15.635  16.980  0.00  0.00    +0.000 C 
ATOM     21  C   UNL     1      11.713  17.347  18.801  0.00  0.00    +0.000 C 
ENDROOT
BRANCH  10  22
ATOM     22  O   UNL     1       9.568  10.390  20.950  0.00  0.00    +0.000 OA
ATOM     23  H   UNL     1       8.986  10.066  21.659  0.00  0.00    +0.000 HD
ENDBRANCH  10  22
TORSDOF 1
ENDMDL
MODEL 5
REMARK VINA RESULT:      -6.1      7.296     10.560
REMARK  Name = 
REMARK  5 active torsions:
REMARK  status: ('A' for Active; 'I' for Inactive)
REMARK    1  A    between atoms: C_8  and  C_9
REMARK    2  A    between atoms: C_10  and  O_11
REMARK    3  A    between atoms: C_17  and  C_18
REMARK    4  A    between atoms: C_20  and  C_21
REMARK    5  A    between atoms: C_20  and  C_22
REMARK                            x       y       z     vdW  Elec       q    Type
REMARK                         _______ _______ _______ _____ _____    ______ ____
ROOT
ATOM      1  C   UNL     1      -0.609  14.725  21.264  0.00  0.00    +0.000 C 
ATOM      2  C   UNL     1      -0.990  13.447  21.411  0.00  0.00    +0.000 C 
ATOM      3  C   UNL     1      -0.802  12.621  22.651  0.00  0.00    +0.000 C 
ATOM      4  C   UNL     1      -2.061  11.891  23.156  0.00  0.00    +0.000 C 
ATOM      5  C   UNL     1      -3.439  12.393  22.773  0.00  0.00    +0.000 C 
ATOM      6  C   UNL     1      -3.800  13.595  21.701  0.00  0.00    +0.000 C 
ATOM      7  C   UNL     1      -3.196  12.902  20.458  0.00  0.00    +0.000 A 
ATOM      8  C   UNL     1      -3.974  12.330  19.418  0.00  0.00    +0.000 A 
ATOM      9  C   UNL     1      -5.419  12.726  19.258  0.00  0.00    +0.000 C 
ATOM     10  C   UNL     1      -3.365  11.414  18.525  0.00  0.00    +0.000 A 
ATOM     11  C   UNL     1      -2.000  11.166  18.605  0.00  0.00    +0.000 A 
ATOM     12  C   UNL     1      -1.230  11.933  19.457  0.00  0.00    +0.000 A 
ATOM     13  C   UNL     1      -1.788  12.793  20.375  0.00  0.00    +0.000 A 
ATOM     14  C   UNL     1       0.177  11.587  19.242  0.00  0.00    +0.000 C 
ATOM     15  O   UNL     1       1.120  12.136  19.776  0.00  0.00    +0.000 OA
ATOM     16  C   UNL     1       0.275  10.473  18.233  0.00  0.00    +0.000 C 
ATOM     17  C   UNL     1       1.158   9.361  18.797  0.00  0.00    +0.000 C 
ATOM     18  C   UNL     1      -1.194  10.088  17.939  0.00  0.00    +0.000 C 
ATOM     19  C   UNL     1      -4.004  13.643  23.226  0.00  0.00    +0.000 C 
ATOM     20  C   UNL     1      -5.424  13.606  23.739  0.00  0.00    +0.000 C 
ATOM     21  C   UNL     1      -3.148  14.597  24.038  0.00  0.00    +0.000 C 
ENDROOT
BRANCH  10  22
ATOM     22  O   UNL     1      -4.062  10.738  17.566  0.00  0.00    +0.000 OA
ATOM     23  H   UNL     1      -3.444  10.392  16.899  0.00  0.00    +0.000 HD
ENDBRANCH  10  22
TORSDOF 1
ENDMDL
MODEL 6
REMARK VINA RESULT:      -5.9      9.071     11.948
REMARK  Name = 
REMARK  5 active torsions:
REMARK  status: ('A' for Active; 'I' for Inactive)
REMARK    1  A    between atoms: C_8  and  C_9
REMARK    2  A    between atoms: C_10  and  O_11
REMARK    3  A    between atoms: C_17  and  C_18
REMARK    4  A    between atoms: C_20  and  C_21
REMARK    5  A    between atoms: C_20  and  C_22
REMARK                            x       y       z     vdW  Elec       q    Type
REMARK                         _______ _______ _______ _____ _____    ______ ____
ROOT
ATOM      1  C   UNL     1       7.873  16.516  19.798  0.00  0.00    +0.000 C 
ATOM      2  C   UNL     1       9.036  15.946  20.150  0.00  0.00    +0.000 C 
ATOM      3  C   UNL     1      10.281  16.685  20.548  0.00  0.00    +0.000 C 
ATOM      4  C   UNL     1      10.933  16.221  21.863  0.00  0.00    +0.000 C 
ATOM      5  C   UNL     1      10.110  15.492  22.908  0.00  0.00    +0.000 C 
ATOM      6  C   UNL     1       8.555  14.959  22.758  0.00  0.00    +0.000 C 
ATOM      7  C   UNL     1       8.826  13.967  21.604  0.00  0.00    +0.000 A 
ATOM      8  C   UNL     1       8.839  12.556  21.762  0.00  0.00    +0.000 A 
ATOM      9  C   UNL     1       8.185  11.932  22.967  0.00  0.00    +0.000 C 
ATOM     10  C   UNL     1       9.444  11.755  20.762  0.00  0.00    +0.000 A 
ATOM     11  C   UNL     1       9.920  12.339  19.595  0.00  0.00    +0.000 A 
ATOM     12  C   UNL     1       9.658  13.674  19.361  0.00  0.00    +0.000 A 
ATOM     13  C   UNL     1       9.121  14.497  20.325  0.00  0.00    +0.000 A 
ATOM     14  C   UNL     1      10.121  14.005  18.011  0.00  0.00    +0.000 C 
ATOM     15  O   UNL     1       9.969  15.078  17.464  0.00  0.00    +0.000 OA
ATOM     16  C   UNL     1      10.782  12.799  17.395  0.00  0.00    +0.000 C 
ATOM     17  C   UNL     1      12.151  13.202  16.847  0.00  0.00    +0.000 C 
ATOM     18  C   UNL     1      10.789  11.743  18.525  0.00  0.00    +0.000 C 
ATOM     19  C   UNL     1       9.044  16.098  23.671  0.00  0.00    +0.000 C 
ATOM     20  C   UNL     1       9.040  15.845  25.160  0.00  0.00    +0.000 C 
ATOM     21  C   UNL     1       8.610  17.516  23.350  0.00  0.00    +0.000 C 
ENDROOT
BRANCH  10  22
ATOM     22  O   UNL     1       9.595  10.405  20.885  0.00  0.00    +0.000 OA
ATOM     23  H   UNL     1      10.233  10.212  21.593  0.00  0.00    +0.000 HD
ENDBRANCH  10  22
TORSDOF 1
ENDMDL
MODEL 7
REMARK VINA RESULT:      -5.9      7.004     10.024
REMARK  Name = 
REMARK  5 active torsions:
REMARK  status: ('A' for Active; 'I' for Inactive)
REMARK    1  A    between atoms: C_8  and  C_9
REMARK    2  A    between atoms: C_10  and  O_11
REMARK    3  A    between atoms: C_17  and  C_18
REMARK    4  A    between atoms: C_20  and  C_21
REMARK    5  A    between atoms: C_20  and  C_22
REMARK                            x       y       z     vdW  Elec       q    Type
REMARK                         _______ _______ _______ _____ _____    ______ ____
ROOT
ATOM      1  C   UNL     1      -2.695  12.594  22.171  0.00  0.00    +0.000 C 
ATOM      2  C   UNL     1      -2.545  13.067  20.924  0.00  0.00    +0.000 C 
ATOM      3  C   UNL     1      -2.325  14.507  20.561  0.00  0.00    +0.000 C 
ATOM      4  C   UNL     1      -1.141  14.777  19.614  0.00  0.00    +0.000 C 
ATOM      5  C   UNL     1      -0.003  13.780  19.512  0.00  0.00    +0.000 C 
ATOM      6  C   UNL     1       0.075  12.284  20.203  0.00  0.00    +0.000 C 
ATOM      7  C   UNL     1      -1.135  11.685  19.450  0.00  0.00    +0.000 A 
ATOM      8  C   UNL     1      -1.021  10.735  18.401  0.00  0.00    +0.000 A 
ATOM      9  C   UNL     1       0.253   9.947  18.239  0.00  0.00    +0.000 C 
ATOM     10  C   UNL     1      -2.126  10.523  17.539  0.00  0.00    +0.000 A 
ATOM     11  C   UNL     1      -3.335  11.159  17.788  0.00  0.00    +0.000 A 
ATOM     12  C   UNL     1      -3.487  11.872  18.961  0.00  0.00    +0.000 A 
ATOM     13  C   UNL     1      -2.428  12.145  19.796  0.00  0.00    +0.000 A 
ATOM     14  C   UNL     1      -4.882  12.306  19.058  0.00  0.00    +0.000 C 
ATOM     15  O   UNL     1      -5.368  12.888  20.008  0.00  0.00    +0.000 OA
ATOM     16  C   UNL     1      -5.629  11.891  17.817  0.00  0.00    +0.000 C 
ATOM     17  C   UNL     1      -6.371  13.100  17.249  0.00  0.00    +0.000 C 
ATOM     18  C   UNL     1      -4.545  11.272  16.904  0.00  0.00    +0.000 C 
ATOM     19  C   UNL     1       0.934  13.505  20.577  0.00  0.00    +0.000 C 
ATOM     20  C   UNL     1       2.398  13.466  20.206  0.00  0.00    +0.000 C 
ATOM     21  C   UNL     1       0.725  14.143  21.937  0.00  0.00    +0.000 C 
ENDROOT
BRANCH  10  22
ATOM     22  O   UNL     1      -2.068   9.710  16.445  0.00  0.00    +0.000 OA
ATOM     23  H   UNL     1      -1.754  10.219  15.678  0.00  0.00    +0.000 HD
ENDBRANCH  10  22
TORSDOF 1
ENDMDL
MODEL 8
REMARK VINA RESULT:      -5.9      9.523     12.269
REMARK  Name = 
REMARK  5 active torsions:
REMARK  status: ('A' for Active; 'I' for Inactive)
REMARK    1  A    between atoms: C_8  and  C_9
REMARK    2  A    between atoms: C_10  and  O_11
REMARK    3  A    between atoms: C_17  and  C_18
REMARK    4  A    between atoms: C_20  and  C_21
REMARK    5  A    between atoms: C_20  and  C_22
REMARK                            x       y       z     vdW  Elec       q    Type
REMARK                         _______ _______ _______ _____ _____    ______ ____
ROOT
ATOM      1  C   UNL     1      -4.416  12.367  24.674  0.00  0.00    +0.000 C 
ATOM      2  C   UNL     1      -4.481  13.272  23.685  0.00  0.00    +0.000 C 
ATOM      3  C   UNL     1      -5.034  14.662  23.815  0.00  0.00    +0.000 C 
ATOM      4  C   UNL     1      -4.127  15.787  23.283  0.00  0.00    +0.000 C 
ATOM      5  C   UNL     1      -2.631  15.568  23.159  0.00  0.00    +0.000 C 
ATOM      6  C   UNL     1      -1.810  14.154  23.386  0.00  0.00    +0.000 C 
ATOM      7  C   UNL     1      -2.490  13.376  22.237  0.00  0.00    +0.000 A 
ATOM      8  C   UNL     1      -1.848  13.052  21.012  0.00  0.00    +0.000 A 
ATOM      9  C   UNL     1      -0.344  13.086  20.924  0.00  0.00    +0.000 C 
ATOM     10  C   UNL     1      -2.637  12.673  19.898  0.00  0.00    +0.000 A 
ATOM     11  C   UNL     1      -4.010  12.516  20.038  0.00  0.00    +0.000 A 
ATOM     12  C   UNL     1      -4.565  12.586  21.300  0.00  0.00    +0.000 A 
ATOM     13  C   UNL     1      -3.846  13.002  22.397  0.00  0.00    +0.000 A 
ATOM     14  C   UNL     1      -5.984  12.235  21.198  0.00  0.00    +0.000 C 
ATOM     15  O   UNL     1      -6.744  12.122  22.138  0.00  0.00    +0.000 OA
ATOM     16  C   UNL     1      -6.344  12.001  19.754  0.00  0.00    +0.000 C 
ATOM     17  C   UNL     1      -7.584  12.824  19.406  0.00  0.00    +0.000 C 
ATOM     18  C   UNL     1      -5.057  12.355  18.973  0.00  0.00    +0.000 C 
ATOM     19  C   UNL     1      -1.738  15.403  24.282  0.00  0.00    +0.000 C 
ATOM     20  C   UNL     1      -0.457  16.203  24.260  0.00  0.00    +0.000 C 
ATOM     21  C   UNL     1      -2.312  15.317  25.685  0.00  0.00    +0.000 C 
ENDROOT
BRANCH  10  22
ATOM     22  O   UNL     1      -2.111  12.450  18.659  0.00  0.00    +0.000 OA
ATOM     23  H   UNL     1      -1.464  13.146  18.450  0.00  0.00    +0.000 HD
ENDBRANCH  10  22
TORSDOF 1
ENDMDL
MODEL 9
REMARK VINA RESULT:      -5.9      8.395     10.091
REMARK  Name = 
REMARK  5 active torsions:
REMARK  status: ('A' for Active; 'I' for Inactive)
REMARK    1  A    between atoms: C_8  and  C_9
REMARK    2  A    between atoms: C_10  and  O_11
REMARK    3  A    between atoms: C_17  and  C_18
REMARK    4  A    between atoms: C_20  and  C_21
REMARK    5  A    between atoms: C_20  and  C_22
REMARK                            x       y       z     vdW  Elec       q    Type
REMARK                         _______ _______ _______ _____ _____    ______ ____
ROOT
ATOM      1  C   UNL     1       9.223  10.575  20.197  0.00  0.00    +0.000 C 
ATOM      2  C   UNL     1       9.665  11.801  20.516  0.00  0.00    +0.000 C 
ATOM      3  C   UNL     1      11.095  12.163  20.800  0.00  0.00    +0.000 C 
ATOM      4  C   UNL     1      11.634  13.381  20.029  0.00  0.00    +0.000 C 
ATOM      5  C   UNL     1      10.980  13.815  18.732  0.00  0.00    +0.000 C 
ATOM      6  C   UNL     1       9.591  13.218  18.069  0.00  0.00    +0.000 C 
ATOM      7  C   UNL     1       8.656  13.641  19.224  0.00  0.00    +0.000 A 
ATOM      8  C   UNL     1       7.728  14.713  19.138  0.00  0.00    +0.000 A 
ATOM      9  C   UNL     1       7.309  15.233  17.788  0.00  0.00    +0.000 C 
ATOM     10  C   UNL     1       7.189  15.256  20.330  0.00  0.00    +0.000 A 
ATOM     11  C   UNL     1       7.483  14.674  21.557  0.00  0.00    +0.000 A 
ATOM     12  C   UNL     1       8.177  13.481  21.581  0.00  0.00    +0.000 A 
ATOM     13  C   UNL     1       8.762  12.949  20.454  0.00  0.00    +0.000 A 
ATOM     14  C   UNL     1       8.221  13.002  22.965  0.00  0.00    +0.000 C 
ATOM     15  O   UNL     1       8.689  11.940  23.321  0.00  0.00    +0.000 OA
ATOM     16  C   UNL     1       7.567  14.014  23.870  0.00  0.00    +0.000 C 
ATOM     17  C   UNL     1       8.505  14.325  25.036  0.00  0.00    +0.000 C 
ATOM     18  C   UNL     1       7.226  15.202  22.940  0.00  0.00    +0.000 C 
ATOM     19  C   UNL     1      11.014  13.047  17.508  0.00  0.00    +0.000 C 
ATOM     20  C   UNL     1      11.358  13.794  16.241  0.00  0.00    +0.000 C 
ATOM     21  C   UNL     1      11.629  11.659  17.515  0.00  0.00    +0.000 C 
ENDROOT
BRANCH  10  22
ATOM     22  O   UNL     1       6.376  16.352  20.344  0.00  0.00    +0.000 OA
ATOM     23  H   UNL     1       5.511  16.111  20.717  0.00  0.00    +0.000 HD
ENDBRANCH  10  22
TORSDOF 1
ENDMDL
