MODEL 1
REMARK VINA RESULT:      -7.3      0.000      0.000
REMARK  Name = 
REMARK  11 active torsions:
REMARK  status: ('A' for Active; 'I' for Inactive)
REMARK    1  A    between atoms: C_1  and  C_2
REMARK    2  A    between atoms: C_2  and  O_4
REMARK    3  A    between atoms: O_4  and  C_5
REMARK    4  A    between atoms: C_5  and  C_6
REMARK    5  A    between atoms: C_6  and  C_7
REMARK    6  A    between atoms: C_6  and  C_12
REMARK    7  A    between atoms: C_7  and  O_8
REMARK    8  A    between atoms: O_8  and  C_9
REMARK    9  A    between atoms: C_9  and  C_10
REMARK   10  A    between atoms: C_12  and  O_13
REMARK   11  A    between atoms: O_13  and  N_14
REMARK                            x       y       z     vdW  Elec       q    Type
REMARK                         _______ _______ _______ _____ _____    ______ ____
ROOT
ATOM      1  O   UNL     1       5.008   4.010  17.509  0.00  0.00    +0.000 OA
ENDROOT
BRANCH   1   2
ATOM      2  N   UNL     1       3.842   3.484  18.094  0.00  0.00    +0.000 N 
ATOM      3  C   UNL     1       3.467   2.169  17.999  0.00  0.00    +0.000 A 
ATOM      4  N   UNL     1       2.456   1.882  18.799  0.00  0.00    +0.000 NA
ATOM      5  C   UNL     1       2.177   3.070  19.438  0.00  0.00    +0.000 A 
ATOM      6  C   UNL     1       1.257   3.431  20.412  0.00  0.00    +0.000 A 
ATOM      7  N   UNL     1       1.203   4.722  20.837  0.00  0.00    +0.000 NA
ATOM      8  C   UNL     1       2.055   5.617  20.304  0.00  0.00    +0.000 A 
ATOM      9  N   UNL     1       1.947   6.924  20.728  0.00  0.00    +0.000 N 
ATOM     10  N   UNL     1       3.015   5.366  19.412  0.00  0.00    +0.000 NA
ATOM     11  C   UNL     1       3.018   4.083  19.006  0.00  0.00    +0.000 A 
ATOM     12  H   UNL     1       1.527   6.959  21.646  0.00  0.00    +0.000 HD
ATOM     13  H   UNL     1       2.827   7.404  20.599  0.00  0.00    +0.000 HD
ENDBRANCH   1   2
BRANCH   1  14
ATOM     14  C   UNL     1       5.151   3.559  16.158  0.00  0.00    +0.000 C 
BRANCH  14  15
ATOM     15  C   UNL     1       6.564   3.876  15.642  0.00  0.00    +0.000 C 
BRANCH  15  16
ATOM     16  C   UNL     1       6.536   4.601  14.286  0.00  0.00    +0.000 C 
BRANCH  16  17
ATOM     17  O   UNL     1       5.429   4.182  13.470  0.00  0.00    +0.000 OA
BRANCH  17  19
ATOM     18  C   UNL     1       4.517   3.169  11.565  0.00  0.00    +0.000 C 
ATOM     19  C   UNL     1       5.756   3.510  12.332  0.00  0.00    +0.000 C 
ATOM     20  O   UNL     1       6.888   3.195  11.992  0.00  0.00    +0.000 OA
ENDBRANCH  17  19
ENDBRANCH  16  17
ENDBRANCH  15  16
BRANCH  15  21
ATOM     21  C   UNL     1       7.321   4.698  16.693  0.00  0.00    +0.000 C 
BRANCH  21  22
ATOM     22  O   UNL     1       7.330   6.088  16.328  0.00  0.00    +0.000 OA
BRANCH  22  23
ATOM     23  C   UNL     1       7.555   6.982  17.326  0.00  0.00    +0.000 C 
ATOM     24  C   UNL     1       7.691   6.290  18.649  0.00  0.00    +0.000 C 
ATOM     25  O   UNL     1       7.659   8.193  17.182  0.00  0.00    +0.000 OA
ENDBRANCH  22  23
ENDBRANCH  21  22
ENDBRANCH  15  21
ENDBRANCH  14  15
ENDBRANCH   1  14
TORSDOF 9
ENDMDL
MODEL 2
REMARK VINA RESULT:      -7.1      0.801      1.027
REMARK  Name = 
REMARK  11 active torsions:
REMARK  status: ('A' for Active; 'I' for Inactive)
REMARK    1  A    between atoms: C_1  and  C_2
REMARK    2  A    between atoms: C_2  and  O_4
REMARK    3  A    between atoms: O_4  and  C_5
REMARK    4  A    between atoms: C_5  and  C_6
REMARK    5  A    between atoms: C_6  and  C_7
REMARK    6  A    between atoms: C_6  and  C_12
REMARK    7  A    between atoms: C_7  and  O_8
REMARK    8  A    between atoms: O_8  and  C_9
REMARK    9  A    between atoms: C_9  and  C_10
REMARK   10  A    between atoms: C_12  and  O_13
REMARK   11  A    between atoms: O_13  and  N_14
REMARK                            x       y       z     vdW  Elec       q    Type
REMARK                         _______ _______ _______ _____ _____    ______ ____
ROOT
ATOM      1  O   UNL     1       5.060   3.646  17.766  0.00  0.00    +0.000 OA
ENDROOT
BRANCH   1   2
ATOM      2  N   UNL     1       3.788   3.249  18.215  0.00  0.00    +0.000 N 
ATOM      3  C   UNL     1       3.282   1.985  18.056  0.00  0.00    +0.000 A 
ATOM      4  N   UNL     1       2.166   1.809  18.740  0.00  0.00    +0.000 NA
ATOM      5  C   UNL     1       1.954   3.016  19.369  0.00  0.00    +0.000 A 
ATOM      6  C   UNL     1       0.980   3.471  20.247  0.00  0.00    +0.000 A 
ATOM      7  N   UNL     1       1.025   4.756  20.688  0.00  0.00    +0.000 NA
ATOM      8  C   UNL     1       2.022   5.554  20.265  0.00  0.00    +0.000 A 
ATOM      9  N   UNL     1       2.016   6.862  20.700  0.00  0.00    +0.000 N 
ATOM     10  N   UNL     1       3.039   5.203  19.475  0.00  0.00    +0.000 NA
ATOM     11  C   UNL     1       2.942   3.930  19.047  0.00  0.00    +0.000 A 
ATOM     12  H   UNL     1       1.507   6.938  21.569  0.00  0.00    +0.000 HD
ATOM     13  H   UNL     1       2.953   7.240  20.674  0.00  0.00    +0.000 HD
ENDBRANCH   1   2
BRANCH   1  14
ATOM     14  C   UNL     1       4.976   4.281  16.486  0.00  0.00    +0.000 C 
BRANCH  14  15
ATOM     15  C   UNL     1       6.271   4.042  15.693  0.00  0.00    +0.000 C 
BRANCH  15  16
ATOM     16  C   UNL     1       6.189   4.611  14.267  0.00  0.00    +0.000 C 
BRANCH  16  17
ATOM     17  O   UNL     1       5.290   3.860  13.434  0.00  0.00    +0.000 OA
BRANCH  17  19
ATOM     18  C   UNL     1       7.080   4.043  11.934  0.00  0.00    +0.000 C 
ATOM     19  C   UNL     1       5.846   3.292  12.328  0.00  0.00    +0.000 C 
ATOM     20  O   UNL     1       5.397   2.333  11.718  0.00  0.00    +0.000 OA
ENDBRANCH  17  19
ENDBRANCH  16  17
ENDBRANCH  15  16
BRANCH  15  21
ATOM     21  C   UNL     1       7.459   4.637  16.458  0.00  0.00    +0.000 C 
BRANCH  21  22
ATOM     22  O   UNL     1       7.374   6.072  16.476  0.00  0.00    +0.000 OA
BRANCH  22  23
ATOM     23  C   UNL     1       7.443   6.674  17.692  0.00  0.00    +0.000 C 
ATOM     24  C   UNL     1       7.746   8.136  17.552  0.00  0.00    +0.000 C 
ATOM     25  O   UNL     1       7.263   6.120  18.768  0.00  0.00    +0.000 OA
ENDBRANCH  22  23
ENDBRANCH  21  22
ENDBRANCH  15  21
ENDBRANCH  14  15
ENDBRANCH   1  14
TORSDOF 9
ENDMDL
MODEL 3
REMARK VINA RESULT:      -7.1      3.358      6.398
REMARK  Name = 
REMARK  11 active torsions:
REMARK  status: ('A' for Active; 'I' for Inactive)
REMARK    1  A    between atoms: C_1  and  C_2
REMARK    2  A    between atoms: C_2  and  O_4
REMARK    3  A    between atoms: O_4  and  C_5
REMARK    4  A    between atoms: C_5  and  C_6
REMARK    5  A    between atoms: C_6  and  C_7
REMARK    6  A    between atoms: C_6  and  C_12
REMARK    7  A    between atoms: C_7  and  O_8
REMARK    8  A    between atoms: O_8  and  C_9
REMARK    9  A    between atoms: C_9  and  C_10
REMARK   10  A    between atoms: C_12  and  O_13
REMARK   11  A    between atoms: O_13  and  N_14
REMARK                            x       y       z     vdW  Elec       q    Type
REMARK                         _______ _______ _______ _____ _____    ______ ____
ROOT
ATOM      1  O   UNL     1       4.599   3.328  17.295  0.00  0.00    +0.000 OA
ENDROOT
BRANCH   1   2
ATOM      2  N   UNL     1       5.372   4.441  16.917  0.00  0.00    +0.000 N 
ATOM      3  C   UNL     1       5.141   5.182  15.787  0.00  0.00    +0.000 A 
ATOM      4  N   UNL     1       5.864   6.287  15.763  0.00  0.00    +0.000 NA
ATOM      5  C   UNL     1       6.585   6.252  16.937  0.00  0.00    +0.000 A 
ATOM      6  C   UNL     1       7.496   7.122  17.518  0.00  0.00    +0.000 A 
ATOM      7  N   UNL     1       8.076   6.790  18.702  0.00  0.00    +0.000 NA
ATOM      8  C   UNL     1       7.742   5.625  19.286  0.00  0.00    +0.000 A 
ATOM      9  N   UNL     1       8.378   5.302  20.466  0.00  0.00    +0.000 N 
ATOM     10  N   UNL     1       6.838   4.748  18.847  0.00  0.00    +0.000 NA
ATOM     11  C   UNL     1       6.305   5.107  17.664  0.00  0.00    +0.000 A 
ATOM     12  H   UNL     1       8.702   6.139  20.927  0.00  0.00    +0.000 HD
ATOM     13  H   UNL     1       7.807   4.663  21.003  0.00  0.00    +0.000 HD
ENDBRANCH   1   2
BRANCH   1  14
ATOM     14  C   UNL     1       3.259   3.446  16.807  0.00  0.00    +0.000 C 
BRANCH  14  15
ATOM     15  C   UNL     1       2.272   3.505  17.984  0.00  0.00    +0.000 C 
BRANCH  15  16
ATOM     16  C   UNL     1       2.941   3.142  19.319  0.00  0.00    +0.000 C 
BRANCH  16  17
ATOM     17  O   UNL     1       2.091   2.334  20.150  0.00  0.00    +0.000 OA
BRANCH  17  19
ATOM     18  C   UNL     1       2.368   4.212  21.523  0.00  0.00    +0.000 C 
ATOM     19  C   UNL     1       1.886   2.799  21.414  0.00  0.00    +0.000 C 
ATOM     20  O   UNL     1       1.410   2.158  22.339  0.00  0.00    +0.000 OA
ENDBRANCH  17  19
ENDBRANCH  16  17
ENDBRANCH  15  16
BRANCH  15  21
ATOM     21  C   UNL     1       1.631   4.897  18.047  0.00  0.00    +0.000 C 
BRANCH  21  22
ATOM     22  O   UNL     1       2.618   5.913  17.806  0.00  0.00    +0.000 OA
BRANCH  22  23
ATOM     23  C   UNL     1       2.526   7.046  18.550  0.00  0.00    +0.000 C 
ATOM     24  C   UNL     1       2.753   8.265  17.707  0.00  0.00    +0.000 C 
ATOM     25  O   UNL     1       2.270   7.089  19.746  0.00  0.00    +0.000 OA
ENDBRANCH  22  23
ENDBRANCH  21  22
ENDBRANCH  15  21
ENDBRANCH  14  15
ENDBRANCH   1  14
TORSDOF 9
ENDMDL
MODEL 4
REMARK VINA RESULT:      -7.1      3.299      6.229
REMARK  Name = 
REMARK  11 active torsions:
REMARK  status: ('A' for Active; 'I' for Inactive)
REMARK    1  A    between atoms: C_1  and  C_2
REMARK    2  A    between atoms: C_2  and  O_4
REMARK    3  A    between atoms: O_4  and  C_5
REMARK    4  A    between atoms: C_5  and  C_6
REMARK    5  A    between atoms: C_6  and  C_7
REMARK    6  A    between atoms: C_6  and  C_12
REMARK    7  A    between atoms: C_7  and  O_8
REMARK    8  A    between atoms: O_8  and  C_9
REMARK    9  A    between atoms: C_9  and  C_10
REMARK   10  A    between atoms: C_12  and  O_13
REMARK   11  A    between atoms: O_13  and  N_14
REMARK                            x       y       z     vdW  Elec       q    Type
REMARK                         _______ _______ _______ _____ _____    ______ ____
ROOT
ATOM      1  O   UNL     1       5.006   3.205  16.794  0.00  0.00    +0.000 OA
ENDROOT
BRANCH   1   2
ATOM      2  N   UNL     1       5.654   4.432  16.565  0.00  0.00    +0.000 N 
ATOM      3  C   UNL     1       5.368   5.262  15.512  0.00  0.00    +0.000 A 
ATOM      4  N   UNL     1       5.959   6.437  15.633  0.00  0.00    +0.000 NA
ATOM      5  C   UNL     1       6.649   6.354  16.822  0.00  0.00    +0.000 A 
ATOM      6  C   UNL     1       7.438   7.252  17.527  0.00  0.00    +0.000 A 
ATOM      7  N   UNL     1       8.022   6.860  18.691  0.00  0.00    +0.000 NA
ATOM      8  C   UNL     1       7.810   5.608  19.134  0.00  0.00    +0.000 A 
ATOM      9  N   UNL     1       8.449   5.231  20.296  0.00  0.00    +0.000 N 
ATOM     10  N   UNL     1       7.025   4.688  18.571  0.00  0.00    +0.000 NA
ATOM     11  C   UNL     1       6.484   5.112  17.413  0.00  0.00    +0.000 A 
ATOM     12  H   UNL     1       8.662   6.043  20.856  0.00  0.00    +0.000 HD
ATOM     13  H   UNL     1       7.942   4.477  20.741  0.00  0.00    +0.000 HD
ENDBRANCH   1   2
BRANCH   1  14
ATOM     14  C   UNL     1       4.133   3.290  17.924  0.00  0.00    +0.000 C 
BRANCH  14  15
ATOM     15  C   UNL     1       2.670   3.362  17.458  0.00  0.00    +0.000 C 
BRANCH  15  16
ATOM     16  C   UNL     1       1.755   2.436  18.275  0.00  0.00    +0.000 C 
BRANCH  16  17
ATOM     17  O   UNL     1       2.212   2.279  19.629  0.00  0.00    +0.000 OA
BRANCH  17  19
ATOM     18  C   UNL     1       2.142   2.773  21.918  0.00  0.00    +0.000 C 
ATOM     19  C   UNL     1       1.564   3.032  20.561  0.00  0.00    +0.000 C 
ATOM     20  O   UNL     1       0.627   3.785  20.341  0.00  0.00    +0.000 OA
ENDBRANCH  17  19
ENDBRANCH  16  17
ENDBRANCH  15  16
BRANCH  15  21
ATOM     21  C   UNL     1       2.183   4.815  17.519  0.00  0.00    +0.000 C 
BRANCH  21  22
ATOM     22  O   UNL     1       3.131   5.630  18.228  0.00  0.00    +0.000 OA
BRANCH  22  23
ATOM     23  C   UNL     1       2.739   6.893  18.541  0.00  0.00    +0.000 C 
ATOM     24  C   UNL     1       2.196   6.958  19.937  0.00  0.00    +0.000 C 
ATOM     25  O   UNL     1       2.831   7.866  17.805  0.00  0.00    +0.000 OA
ENDBRANCH  22  23
ENDBRANCH  21  22
ENDBRANCH  15  21
ENDBRANCH  14  15
ENDBRANCH   1  14
TORSDOF 9
ENDMDL
MODEL 5
REMARK VINA RESULT:      -7.1      1.944      2.873
REMARK  Name = 
REMARK  11 active torsions:
REMARK  status: ('A' for Active; 'I' for Inactive)
REMARK    1  A    between atoms: C_1  and  C_2
REMARK    2  A    between atoms: C_2  and  O_4
REMARK    3  A    between atoms: O_4  and  C_5
REMARK    4  A    between atoms: C_5  and  C_6
REMARK    5  A    between atoms: C_6  and  C_7
REMARK    6  A    between atoms: C_6  and  C_12
REMARK    7  A    between atoms: C_7  and  O_8
REMARK    8  A    between atoms: O_8  and  C_9
REMARK    9  A    between atoms: C_9  and  C_10
REMARK   10  A    between atoms: C_12  and  O_13
REMARK   11  A    between atoms: O_13  and  N_14
REMARK                            x       y       z     vdW  Elec       q    Type
REMARK                         _______ _______ _______ _____ _____    ______ ____
ROOT
ATOM      1  O   UNL     1       4.755   6.038  17.845  0.00  0.00    +0.000 OA
ENDROOT
BRANCH   1   2
ATOM      2  N   UNL     1       3.905   5.685  18.909  0.00  0.00    +0.000 N 
ATOM      3  C   UNL     1       2.822   6.429  19.299  0.00  0.00    +0.000 A 
ATOM      4  N   UNL     1       2.070   5.787  20.176  0.00  0.00    +0.000 NA
ATOM      5  C   UNL     1       2.702   4.575  20.348  0.00  0.00    +0.000 A 
ATOM      6  C   UNL     1       2.408   3.451  21.106  0.00  0.00    +0.000 A 
ATOM      7  N   UNL     1       3.259   2.391  21.088  0.00  0.00    +0.000 NA
ATOM      8  C   UNL     1       4.365   2.458  20.325  0.00  0.00    +0.000 A 
ATOM      9  N   UNL     1       5.227   1.382  20.361  0.00  0.00    +0.000 N 
ATOM     10  N   UNL     1       4.711   3.461  19.515  0.00  0.00    +0.000 NA
ATOM     11  C   UNL     1       3.852   4.494  19.580  0.00  0.00    +0.000 A 
ATOM     12  H   UNL     1       4.730   0.547  20.634  0.00  0.00    +0.000 HD
ATOM     13  H   UNL     1       5.769   1.345  19.509  0.00  0.00    +0.000 HD
ENDBRANCH   1   2
BRANCH   1  14
ATOM     14  C   UNL     1       4.595   5.140  16.742  0.00  0.00    +0.000 C 
BRANCH  14  15
ATOM     15  C   UNL     1       5.947   4.512  16.371  0.00  0.00    +0.000 C 
BRANCH  15  16
ATOM     16  C   UNL     1       6.131   4.391  14.850  0.00  0.00    +0.000 C 
BRANCH  16  17
ATOM     17  O   UNL     1       7.209   5.210  14.366  0.00  0.00    +0.000 OA
BRANCH  17  19
ATOM     18  C   UNL     1       6.784   3.901  12.470  0.00  0.00    +0.000 C 
ATOM     19  C   UNL     1       7.489   5.093  13.038  0.00  0.00    +0.000 C 
ATOM     20  O   UNL     1       8.231   5.826  12.400  0.00  0.00    +0.000 OA
ENDBRANCH  17  19
ENDBRANCH  16  17
ENDBRANCH  15  16
BRANCH  15  21
ATOM     21  C   UNL     1       7.082   5.329  17.002  0.00  0.00    +0.000 C 
BRANCH  21  22
ATOM     22  O   UNL     1       7.503   4.728  18.237  0.00  0.00    +0.000 OA
BRANCH  22  23
ATOM     23  C   UNL     1       7.819   5.574  19.253  0.00  0.00    +0.000 C 
ATOM     24  C   UNL     1       8.148   6.941  18.733  0.00  0.00    +0.000 C 
ATOM     25  O   UNL     1       7.820   5.284  20.442  0.00  0.00    +0.000 OA
ENDBRANCH  22  23
ENDBRANCH  21  22
ENDBRANCH  15  21
ENDBRANCH  14  15
ENDBRANCH   1  14
TORSDOF 9
ENDMDL
MODEL 6
REMARK VINA RESULT:      -7.0      1.208      2.046
REMARK  Name = 
REMARK  11 active torsions:
REMARK  status: ('A' for Active; 'I' for Inactive)
REMARK    1  A    between atoms: C_1  and  C_2
REMARK    2  A    between atoms: C_2  and  O_4
REMARK    3  A    between atoms: O_4  and  C_5
REMARK    4  A    between atoms: C_5  and  C_6
REMARK    5  A    between atoms: C_6  and  C_7
REMARK    6  A    between atoms: C_6  and  C_12
REMARK    7  A    between atoms: C_7  and  O_8
REMARK    8  A    between atoms: O_8  and  C_9
REMARK    9  A    between atoms: C_9  and  C_10
REMARK   10  A    between atoms: C_12  and  O_13
REMARK   11  A    between atoms: O_13  and  N_14
REMARK                            x       y       z     vdW  Elec       q    Type
REMARK                         _______ _______ _______ _____ _____    ______ ____
ROOT
ATOM      1  O   UNL     1       4.812   3.715  17.345  0.00  0.00    +0.000 OA
ENDROOT
BRANCH   1   2
ATOM      2  N   UNL     1       4.114   4.697  18.071  0.00  0.00    +0.000 N 
ATOM      3  C   UNL     1       3.911   5.977  17.624  0.00  0.00    +0.000 A 
ATOM      4  N   UNL     1       3.058   6.638  18.385  0.00  0.00    +0.000 NA
ATOM      5  C   UNL     1       2.696   5.735  19.360  0.00  0.00    +0.000 A 
ATOM      6  C   UNL     1       1.818   5.797  20.433  0.00  0.00    +0.000 A 
ATOM      7  N   UNL     1       1.690   4.722  21.256  0.00  0.00    +0.000 NA
ATOM      8  C   UNL     1       2.416   3.619  21.001  0.00  0.00    +0.000 A 
ATOM      9  N   UNL     1       2.292   2.561  21.877  0.00  0.00    +0.000 N 
ATOM     10  N   UNL     1       3.239   3.431  19.967  0.00  0.00    +0.000 NA
ATOM     11  C   UNL     1       3.350   4.526  19.192  0.00  0.00    +0.000 A 
ATOM     12  H   UNL     1       1.401   2.605  22.351  0.00  0.00    +0.000 HD
ATOM     13  H   UNL     1       2.532   1.697  21.413  0.00  0.00    +0.000 HD
ENDBRANCH   1   2
BRANCH   1  14
ATOM     14  C   UNL     1       4.825   4.025  15.947  0.00  0.00    +0.000 C 
BRANCH  14  15
ATOM     15  C   UNL     1       6.262   3.959  15.405  0.00  0.00    +0.000 C 
BRANCH  15  16
ATOM     16  C   UNL     1       6.414   4.717  14.076  0.00  0.00    +0.000 C 
BRANCH  16  17
ATOM     17  O   UNL     1       6.810   3.849  13.000  0.00  0.00    +0.000 OA
BRANCH  17  19
ATOM     18  C   UNL     1       6.301   2.040  11.602  0.00  0.00    +0.000 C 
ATOM     19  C   UNL     1       5.792   3.250  12.321  0.00  0.00    +0.000 C 
ATOM     20  O   UNL     1       4.638   3.650  12.271  0.00  0.00    +0.000 OA
ENDBRANCH  17  19
ENDBRANCH  16  17
ENDBRANCH  15  16
BRANCH  15  21
ATOM     21  C   UNL     1       7.234   4.497  16.463  0.00  0.00    +0.000 C 
BRANCH  21  22
ATOM     22  O   UNL     1       7.551   5.873  16.196  0.00  0.00    +0.000 OA
BRANCH  22  23
ATOM     23  C   UNL     1       7.410   6.746  17.228  0.00  0.00    +0.000 C 
ATOM     24  C   UNL     1       7.615   6.060  18.545  0.00  0.00    +0.000 C 
ATOM     25  O   UNL     1       7.169   7.940  17.116  0.00  0.00    +0.000 OA
ENDBRANCH  22  23
ENDBRANCH  21  22
ENDBRANCH  15  21
ENDBRANCH  14  15
ENDBRANCH   1  14
TORSDOF 9
ENDMDL
MODEL 7
REMARK VINA RESULT:      -6.9      3.369      6.618
REMARK  Name = 
REMARK  11 active torsions:
REMARK  status: ('A' for Active; 'I' for Inactive)
REMARK    1  A    between atoms: C_1  and  C_2
REMARK    2  A    between atoms: C_2  and  O_4
REMARK    3  A    between atoms: O_4  and  C_5
REMARK    4  A    between atoms: C_5  and  C_6
REMARK    5  A    between atoms: C_6  and  C_7
REMARK    6  A    between atoms: C_6  and  C_12
REMARK    7  A    between atoms: C_7  and  O_8
REMARK    8  A    between atoms: O_8  and  C_9
REMARK    9  A    between atoms: C_9  and  C_10
REMARK   10  A    between atoms: C_12  and  O_13
REMARK   11  A    between atoms: O_13  and  N_14
REMARK                            x       y       z     vdW  Elec       q    Type
REMARK                         _______ _______ _______ _____ _____    ______ ____
ROOT
ATOM      1  O   UNL     1       4.655   3.497  17.069  0.00  0.00    +0.000 OA
ENDROOT
BRANCH   1   2
ATOM      2  N   UNL     1       5.440   4.622  16.758  0.00  0.00    +0.000 N 
ATOM      3  C   UNL     1       5.233   5.417  15.660  0.00  0.00    +0.000 A 
ATOM      4  N   UNL     1       5.962   6.518  15.701  0.00  0.00    +0.000 NA
ATOM      5  C   UNL     1       6.662   6.422  16.884  0.00  0.00    +0.000 A 
ATOM      6  C   UNL     1       7.568   7.258  17.522  0.00  0.00    +0.000 A 
ATOM      7  N   UNL     1       8.124   6.868  18.699  0.00  0.00    +0.000 NA
ATOM      8  C   UNL     1       7.774   5.678  19.220  0.00  0.00    +0.000 A 
ATOM      9  N   UNL     1       8.387   5.295  20.395  0.00  0.00    +0.000 N 
ATOM     10  N   UNL     1       6.873   4.828  18.725  0.00  0.00    +0.000 NA
ATOM     11  C   UNL     1       6.363   5.246  17.551  0.00  0.00    +0.000 A 
ATOM     12  H   UNL     1       8.707   6.108  20.901  0.00  0.00    +0.000 HD
ATOM     13  H   UNL     1       7.803   4.636  20.891  0.00  0.00    +0.000 HD
ENDBRANCH   1   2
BRANCH   1  14
ATOM     14  C   UNL     1       3.270   3.849  17.162  0.00  0.00    +0.000 C 
BRANCH  14  15
ATOM     15  C   UNL     1       3.011   4.630  18.460  0.00  0.00    +0.000 C 
BRANCH  15  16
ATOM     16  C   UNL     1       2.667   6.104  18.190  0.00  0.00    +0.000 C 
BRANCH  16  17
ATOM     17  O   UNL     1       2.256   6.793  19.383  0.00  0.00    +0.000 OA
BRANCH  17  19
ATOM     18  C   UNL     1       2.202   8.539  17.822  0.00  0.00    +0.000 C 
ATOM     19  C   UNL     1       1.887   8.093  19.216  0.00  0.00    +0.000 C 
ATOM     20  O   UNL     1       1.401   8.811  20.077  0.00  0.00    +0.000 OA
ENDBRANCH  17  19
ENDBRANCH  16  17
ENDBRANCH  15  16
BRANCH  15  21
ATOM     21  C   UNL     1       1.898   3.941  19.260  0.00  0.00    +0.000 C 
BRANCH  21  22
ATOM     22  O   UNL     1       2.335   2.649  19.712  0.00  0.00    +0.000 OA
BRANCH  22  23
ATOM     23  C   UNL     1       2.552   2.508  21.046  0.00  0.00    +0.000 C 
ATOM     24  C   UNL     1       1.298   2.768  21.826  0.00  0.00    +0.000 C 
ATOM     25  O   UNL     1       3.615   2.190  21.561  0.00  0.00    +0.000 OA
ENDBRANCH  22  23
ENDBRANCH  21  22
ENDBRANCH  15  21
ENDBRANCH  14  15
ENDBRANCH   1  14
TORSDOF 9
ENDMDL
MODEL 8
REMARK VINA RESULT:      -6.9      2.081      2.775
REMARK  Name = 
REMARK  11 active torsions:
REMARK  status: ('A' for Active; 'I' for Inactive)
REMARK    1  A    between atoms: C_1  and  C_2
REMARK    2  A    between atoms: C_2  and  O_4
REMARK    3  A    between atoms: O_4  and  C_5
REMARK    4  A    between atoms: C_5  and  C_6
REMARK    5  A    between atoms: C_6  and  C_7
REMARK    6  A    between atoms: C_6  and  C_12
REMARK    7  A    between atoms: C_7  and  O_8
REMARK    8  A    between atoms: O_8  and  C_9
REMARK    9  A    between atoms: C_9  and  C_10
REMARK   10  A    between atoms: C_12  and  O_13
REMARK   11  A    between atoms: O_13  and  N_14
REMARK                            x       y       z     vdW  Elec       q    Type
REMARK                         _______ _______ _______ _____ _____    ______ ____
ROOT
ATOM      1  O   UNL     1       4.356   5.565  17.111  0.00  0.00    +0.000 OA
ENDROOT
BRANCH   1   2
ATOM      2  N   UNL     1       3.496   5.798  18.199  0.00  0.00    +0.000 N 
ATOM      3  C   UNL     1       3.368   4.948  19.266  0.00  0.00    +0.000 A 
ATOM      4  N   UNL     1       2.662   5.485  20.245  0.00  0.00    +0.000 NA
ATOM      5  C   UNL     1       2.329   6.739  19.781  0.00  0.00    +0.000 A 
ATOM      6  C   UNL     1       1.629   7.801  20.335  0.00  0.00    +0.000 A 
ATOM      7  N   UNL     1       1.437   8.930  19.603  0.00  0.00    +0.000 NA
ATOM      8  C   UNL     1       1.941   8.991  18.357  0.00  0.00    +0.000 A 
ATOM      9  N   UNL     1       1.695  10.134  17.628  0.00  0.00    +0.000 N 
ATOM     10  N   UNL     1       2.679   8.057  17.753  0.00  0.00    +0.000 NA
ATOM     11  C   UNL     1       2.826   6.951  18.506  0.00  0.00    +0.000 A 
ATOM     12  H   UNL     1       1.518  10.911  18.248  0.00  0.00    +0.000 HD
ATOM     13  H   UNL     1       2.407  10.254  16.920  0.00  0.00    +0.000 HD
ENDBRANCH   1   2
BRANCH   1  14
ATOM     14  C   UNL     1       4.648   4.170  16.979  0.00  0.00    +0.000 C 
BRANCH  14  15
ATOM     15  C   UNL     1       5.878   3.971  16.079  0.00  0.00    +0.000 C 
BRANCH  15  16
ATOM     16  C   UNL     1       5.652   4.520  14.661  0.00  0.00    +0.000 C 
BRANCH  16  17
ATOM     17  O   UNL     1       6.862   4.531  13.884  0.00  0.00    +0.000 OA
BRANCH  17  19
ATOM     18  C   UNL     1       5.516   3.293  12.420  0.00  0.00    +0.000 C 
ATOM     19  C   UNL     1       6.731   4.152  12.583  0.00  0.00    +0.000 C 
ATOM     20  O   UNL     1       7.501   4.437  11.677  0.00  0.00    +0.000 OA
ENDBRANCH  17  19
ENDBRANCH  16  17
ENDBRANCH  15  16
BRANCH  15  21
ATOM     21  C   UNL     1       7.104   4.618  16.734  0.00  0.00    +0.000 C 
BRANCH  21  22
ATOM     22  O   UNL     1       7.068   4.428  18.158  0.00  0.00    +0.000 OA
BRANCH  22  23
ATOM     23  C   UNL     1       7.451   5.481  18.927  0.00  0.00    +0.000 C 
ATOM     24  C   UNL     1       7.609   6.722  18.101  0.00  0.00    +0.000 C 
ATOM     25  O   UNL     1       7.627   5.446  20.137  0.00  0.00    +0.000 OA
ENDBRANCH  22  23
ENDBRANCH  21  22
ENDBRANCH  15  21
ENDBRANCH  14  15
ENDBRANCH   1  14
TORSDOF 9
ENDMDL
MODEL 9
REMARK VINA RESULT:      -6.9      3.310      6.391
REMARK  Name = 
REMARK  11 active torsions:
REMARK  status: ('A' for Active; 'I' for Inactive)
REMARK    1  A    between atoms: C_1  and  C_2
REMARK    2  A    between atoms: C_2  and  O_4
REMARK    3  A    between atoms: O_4  and  C_5
REMARK    4  A    between atoms: C_5  and  C_6
REMARK    5  A    between atoms: C_6  and  C_7
REMARK    6  A    between atoms: C_6  and  C_12
REMARK    7  A    between atoms: C_7  and  O_8
REMARK    8  A    between atoms: O_8  and  C_9
REMARK    9  A    between atoms: C_9  and  C_10
REMARK   10  A    between atoms: C_12  and  O_13
REMARK   11  A    between atoms: O_13  and  N_14
REMARK                            x       y       z     vdW  Elec       q    Type
REMARK                         _______ _______ _______ _____ _____    ______ ____
ROOT
ATOM      1  O   UNL     1       5.102   3.418  16.535  0.00  0.00    +0.000 OA
ENDROOT
BRANCH   1   2
ATOM      2  N   UNL     1       5.736   4.666  16.400  0.00  0.00    +0.000 N 
ATOM      3  C   UNL     1       5.443   5.568  15.411  0.00  0.00    +0.000 A 
ATOM      4  N   UNL     1       6.020   6.738  15.621  0.00  0.00    +0.000 NA
ATOM      5  C   UNL     1       6.709   6.574  16.803  0.00  0.00    +0.000 A 
ATOM      6  C   UNL     1       7.486   7.426  17.574  0.00  0.00    +0.000 A 
ATOM      7  N   UNL     1       8.072   6.955  18.707  0.00  0.00    +0.000 NA
ATOM      8  C   UNL     1       7.874   5.671  19.056  0.00  0.00    +0.000 A 
ATOM      9  N   UNL     1       8.514   5.215  20.188  0.00  0.00    +0.000 N 
ATOM     10  N   UNL     1       7.100   4.787  18.423  0.00  0.00    +0.000 NA
ATOM     11  C   UNL     1       6.557   5.290  17.299  0.00  0.00    +0.000 A 
ATOM     12  H   UNL     1       8.717   5.986  20.808  0.00  0.00    +0.000 HD
ATOM     13  H   UNL     1       8.015   4.425  20.574  0.00  0.00    +0.000 HD
ENDBRANCH   1   2
BRANCH   1  14
ATOM     14  C   UNL     1       3.746   3.576  16.964  0.00  0.00    +0.000 C 
BRANCH  14  15
ATOM     15  C   UNL     1       3.684   3.666  18.497  0.00  0.00    +0.000 C 
BRANCH  15  16
ATOM     16  C   UNL     1       3.183   5.037  18.977  0.00  0.00    +0.000 C 
BRANCH  16  17
ATOM     17  O   UNL     1       3.048   5.975  17.895  0.00  0.00    +0.000 OA
BRANCH  17  19
ATOM     18  C   UNL     1       2.255   7.270  19.679  0.00  0.00    +0.000 C 
ATOM     19  C   UNL     1       2.714   7.245  18.255  0.00  0.00    +0.000 C 
ATOM     20  O   UNL     1       2.747   8.224  17.522  0.00  0.00    +0.000 OA
ENDBRANCH  17  19
ENDBRANCH  16  17
ENDBRANCH  15  16
BRANCH  15  21
ATOM     21  C   UNL     1       2.804   2.534  19.041  0.00  0.00    +0.000 C 
BRANCH  21  22
ATOM     22  O   UNL     1       3.029   2.360  20.450  0.00  0.00    +0.000 OA
BRANCH  22  23
ATOM     23  C   UNL     1       2.103   2.893  21.289  0.00  0.00    +0.000 C 
ATOM     24  C   UNL     1       0.769   3.010  20.615  0.00  0.00    +0.000 C 
ATOM     25  O   UNL     1       2.304   3.220  22.451  0.00  0.00    +0.000 OA
ENDBRANCH  22  23
ENDBRANCH  21  22
ENDBRANCH  15  21
ENDBRANCH  14  15
ENDBRANCH   1  14
TORSDOF 9
ENDMDL
