MODEL 1
REMARK VINA RESULT:      -7.4      0.000      0.000
REMARK  Name = 
REMARK  10 active torsions:
REMARK  status: ('A' for Active; 'I' for Inactive)
REMARK    1  A    between atoms: C_1  and  O_2
REMARK    2  A    between atoms: O_2  and  C_3
REMARK    3  A    between atoms: C_3  and  C_5
REMARK    4  A    between atoms: C_5  and  O_6
REMARK    5  A    between atoms: O_6  and  C_7
REMARK    6  A    between atoms: C_10  and  S_11
REMARK    7  A    between atoms: S_11  and  N_14
REMARK    8  A    between atoms: N_17  and  C_18
REMARK    9  A    between atoms: C_21  and  O_22
REMARK   10  A    between atoms: O_22  and  C_23
REMARK                            x       y       z     vdW  Elec       q    Type
REMARK                         _______ _______ _______ _____ _____    ______ ____
ROOT
ATOM      1  S   UNL     1       1.302   3.027  19.985  0.00  0.00    +0.000 S 
ATOM      2  O   UNL     1       0.903   2.994  21.365  0.00  0.00    +0.000 OA
ATOM      3  O   UNL     1       0.404   2.563  18.938  0.00  0.00    +0.000 OA
ENDROOT
BRANCH   1   7
ATOM      4  C   UNL     1       2.307   7.394  18.925  0.00  0.00    +0.000 A 
ATOM      5  C   UNL     1       2.178   7.001  20.260  0.00  0.00    +0.000 A 
ATOM      6  C   UNL     1       1.891   5.665  20.587  0.00  0.00    +0.000 A 
ATOM      7  C   UNL     1       1.717   4.719  19.576  0.00  0.00    +0.000 A 
ATOM      8  C   UNL     1       1.936   5.086  18.243  0.00  0.00    +0.000 A 
ATOM      9  C   UNL     1       2.215   6.423  17.922  0.00  0.00    +0.000 A 
BRANCH   4  10
ATOM     10  O   UNL     1       2.472   8.679  18.491  0.00  0.00    +0.000 OA
BRANCH  10  11
ATOM     11  C   UNL     1       1.401   9.242  17.741  0.00  0.00    +0.000 C 
BRANCH  11  12
ATOM     12  C   UNL     1       0.482  10.070  18.634  0.00  0.00    +0.000 C 
ATOM     13  O   UNL     1      -0.733  10.125  18.556  0.00  0.00    +0.000 OA
BRANCH  12  15
ATOM     14  C   UNL     1       1.279  12.132  19.404  0.00  0.00    +0.000 C 
ATOM     15  O   UNL     1       1.230  10.712  19.581  0.00  0.00    +0.000 OA
ENDBRANCH  12  15
ENDBRANCH  11  12
ENDBRANCH  10  11
ENDBRANCH   4  10
ENDBRANCH   1   7
BRANCH   1  16
ATOM     16  N   UNL     1       2.750   2.129  19.834  0.00  0.00    +0.000 NA
ATOM     17  C   UNL     1       3.030   1.421  18.548  0.00  0.00    +0.000 C 
ATOM     18  C   UNL     1       3.442   2.361  17.397  0.00  0.00    +0.000 C 
ATOM     19  N   UNL     1       4.552   3.237  17.798  0.00  0.00    +0.000 N 
ATOM     20  C   UNL     1       4.488   3.866  19.139  0.00  0.00    +0.000 C 
ATOM     21  C   UNL     1       3.994   2.887  20.223  0.00  0.00    +0.000 C 
BRANCH  19  22
ATOM     22  C   UNL     1       5.357   3.832  16.830  0.00  0.00    +0.000 A 
ATOM     23  C   UNL     1       5.471   3.387  15.502  0.00  0.00    +0.000 A 
ATOM     24  C   UNL     1       6.350   4.010  14.594  0.00  0.00    +0.000 A 
ATOM     25  C   UNL     1       7.131   5.091  14.997  0.00  0.00    +0.000 A 
ATOM     26  C   UNL     1       7.053   5.522  16.313  0.00  0.00    +0.000 A 
ATOM     27  C   UNL     1       6.180   4.902  17.204  0.00  0.00    +0.000 A 
BRANCH  25  28
ATOM     28  O   UNL     1       7.971   5.634  14.063  0.00  0.00    +0.000 OA
ATOM     29  C   UNL     1       7.809   5.104  12.748  0.00  0.00    +0.000 C 
ENDBRANCH  25  28
ENDBRANCH  19  22
ENDBRANCH   1  16
TORSDOF 8
ENDMDL
MODEL 2
REMARK VINA RESULT:      -7.4      0.546      1.163
REMARK  Name = 
REMARK  10 active torsions:
REMARK  status: ('A' for Active; 'I' for Inactive)
REMARK    1  A    between atoms: C_1  and  O_2
REMARK    2  A    between atoms: O_2  and  C_3
REMARK    3  A    between atoms: C_3  and  C_5
REMARK    4  A    between atoms: C_5  and  O_6
REMARK    5  A    between atoms: O_6  and  C_7
REMARK    6  A    between atoms: C_10  and  S_11
REMARK    7  A    between atoms: S_11  and  N_14
REMARK    8  A    between atoms: N_17  and  C_18
REMARK    9  A    between atoms: C_21  and  O_22
REMARK   10  A    between atoms: O_22  and  C_23
REMARK                            x       y       z     vdW  Elec       q    Type
REMARK                         _______ _______ _______ _____ _____    ______ ____
ROOT
ATOM      1  S   UNL     1       1.493   2.983  20.046  0.00  0.00    +0.000 S 
ATOM      2  O   UNL     1       1.148   3.043  21.439  0.00  0.00    +0.000 OA
ATOM      3  O   UNL     1       0.580   2.394  19.077  0.00  0.00    +0.000 OA
ENDROOT
BRANCH   1   7
ATOM      4  C   UNL     1       2.362   7.272  18.612  0.00  0.00    +0.000 A 
ATOM      5  C   UNL     1       2.088   6.259  17.690  0.00  0.00    +0.000 A 
ATOM      6  C   UNL     1       1.802   4.954  18.124  0.00  0.00    +0.000 A 
ATOM      7  C   UNL     1       1.806   4.654  19.488  0.00  0.00    +0.000 A 
ATOM      8  C   UNL     1       1.988   5.683  20.419  0.00  0.00    +0.000 A 
ATOM      9  C   UNL     1       2.279   6.983  19.979  0.00  0.00    +0.000 A 
BRANCH   4  10
ATOM     10  O   UNL     1       2.760   8.541  18.299  0.00  0.00    +0.000 OA
BRANCH  10  11
ATOM     11  C   UNL     1       1.780   9.390  17.712  0.00  0.00    +0.000 C 
BRANCH  11  12
ATOM     12  C   UNL     1       1.574  10.649  18.549  0.00  0.00    +0.000 C 
ATOM     13  O   UNL     1       2.126  11.722  18.378  0.00  0.00    +0.000 OA
BRANCH  12  15
ATOM     14  C   UNL     1       0.230  11.580  20.225  0.00  0.00    +0.000 C 
ATOM     15  O   UNL     1       0.624  10.408  19.503  0.00  0.00    +0.000 OA
ENDBRANCH  12  15
ENDBRANCH  11  12
ENDBRANCH  10  11
ENDBRANCH   4  10
ENDBRANCH   1   7
BRANCH   1  16
ATOM     16  N   UNL     1       2.978   2.145  19.906  0.00  0.00    +0.000 NA
ATOM     17  C   UNL     1       3.273   1.405  18.642  0.00  0.00    +0.000 C 
ATOM     18  C   UNL     1       3.627   2.319  17.452  0.00  0.00    +0.000 C 
ATOM     19  N   UNL     1       4.701   3.258  17.805  0.00  0.00    +0.000 N 
ATOM     20  C   UNL     1       4.626   3.933  19.124  0.00  0.00    +0.000 C 
ATOM     21  C   UNL     1       4.191   2.973  20.249  0.00  0.00    +0.000 C 
BRANCH  19  22
ATOM     22  C   UNL     1       5.466   3.852  16.805  0.00  0.00    +0.000 A 
ATOM     23  C   UNL     1       5.495   3.431  15.465  0.00  0.00    +0.000 A 
ATOM     24  C   UNL     1       6.338   4.050  14.520  0.00  0.00    +0.000 A 
ATOM     25  C   UNL     1       7.165   5.105  14.898  0.00  0.00    +0.000 A 
ATOM     26  C   UNL     1       7.171   5.513  16.224  0.00  0.00    +0.000 A 
ATOM     27  C   UNL     1       6.333   4.896  17.151  0.00  0.00    +0.000 A 
BRANCH  25  28
ATOM     28  O   UNL     1       7.965   5.646  13.929  0.00  0.00    +0.000 OA
ATOM     29  C   UNL     1       7.755   5.107  12.625  0.00  0.00    +0.000 C 
ENDBRANCH  25  28
ENDBRANCH  19  22
ENDBRANCH   1  16
TORSDOF 8
ENDMDL
MODEL 3
REMARK VINA RESULT:      -7.4      2.610      8.126
REMARK  Name = 
REMARK  10 active torsions:
REMARK  status: ('A' for Active; 'I' for Inactive)
REMARK    1  A    between atoms: C_1  and  O_2
REMARK    2  A    between atoms: O_2  and  C_3
REMARK    3  A    between atoms: C_3  and  C_5
REMARK    4  A    between atoms: C_5  and  O_6
REMARK    5  A    between atoms: O_6  and  C_7
REMARK    6  A    between atoms: C_10  and  S_11
REMARK    7  A    between atoms: S_11  and  N_14
REMARK    8  A    between atoms: N_17  and  C_18
REMARK    9  A    between atoms: C_21  and  O_22
REMARK   10  A    between atoms: O_22  and  C_23
REMARK                            x       y       z     vdW  Elec       q    Type
REMARK                         _______ _______ _______ _____ _____    ______ ____
ROOT
ATOM      1  S   UNL     1       4.689   4.316  19.120  0.00  0.00    +0.000 S 
ATOM      2  O   UNL     1       4.952   3.046  19.738  0.00  0.00    +0.000 OA
ATOM      3  O   UNL     1       5.103   5.556  19.758  0.00  0.00    +0.000 OA
ENDROOT
BRANCH   1   7
ATOM      4  C   UNL     1       6.621   4.341  14.940  0.00  0.00    +0.000 A 
ATOM      5  C   UNL     1       7.258   4.962  16.018  0.00  0.00    +0.000 A 
ATOM      6  C   UNL     1       6.681   4.939  17.299  0.00  0.00    +0.000 A 
ATOM      7  C   UNL     1       5.454   4.305  17.501  0.00  0.00    +0.000 A 
ATOM      8  C   UNL     1       4.857   3.603  16.447  0.00  0.00    +0.000 A 
ATOM      9  C   UNL     1       5.435   3.636  15.170  0.00  0.00    +0.000 A 
BRANCH   4  10
ATOM     10  O   UNL     1       7.033   4.397  13.638  0.00  0.00    +0.000 OA
BRANCH  10  11
ATOM     11  C   UNL     1       6.044   4.152  12.645  0.00  0.00    +0.000 C 
BRANCH  11  12
ATOM     12  C   UNL     1       6.382   2.907  11.830  0.00  0.00    +0.000 C 
ATOM     13  O   UNL     1       7.501   2.529  11.530  0.00  0.00    +0.000 OA
BRANCH  12  15
ATOM     14  C   UNL     1       4.125   3.104  11.239  0.00  0.00    +0.000 C 
ATOM     15  O   UNL     1       5.228   2.238  11.525  0.00  0.00    +0.000 OA
ENDBRANCH  12  15
ENDBRANCH  11  12
ENDBRANCH  10  11
ENDBRANCH   4  10
ENDBRANCH   1   7
BRANCH   1  16
ATOM     16  N   UNL     1       3.003   4.432  18.852  0.00  0.00    +0.000 NA
ATOM     17  C   UNL     1       2.089   4.518  20.031  0.00  0.00    +0.000 C 
ATOM     18  C   UNL     1       2.114   5.887  20.740  0.00  0.00    +0.000 C 
ATOM     19  N   UNL     1       1.890   6.983  19.787  0.00  0.00    +0.000 N 
ATOM     20  C   UNL     1       2.603   6.928  18.487  0.00  0.00    +0.000 C 
ATOM     21  C   UNL     1       2.602   5.511  17.878  0.00  0.00    +0.000 C 
BRANCH  19  22
ATOM     22  C   UNL     1       1.442   8.221  20.238  0.00  0.00    +0.000 A 
ATOM     23  C   UNL     1       1.203   9.333  19.414  0.00  0.00    +0.000 A 
ATOM     24  C   UNL     1       0.802  10.573  19.953  0.00  0.00    +0.000 A 
ATOM     25  C   UNL     1       0.630  10.721  21.328  0.00  0.00    +0.000 A 
ATOM     26  C   UNL     1       0.891   9.641  22.158  0.00  0.00    +0.000 A 
ATOM     27  C   UNL     1       1.286   8.419  21.616  0.00  0.00    +0.000 A 
BRANCH  25  28
ATOM     28  O   UNL     1       0.252  11.956  21.778  0.00  0.00    +0.000 OA
ATOM     29  C   UNL     1       0.859  13.045  21.083  0.00  0.00    +0.000 C 
ENDBRANCH  25  28
ENDBRANCH  19  22
ENDBRANCH   1  16
TORSDOF 8
ENDMDL
MODEL 4
REMARK VINA RESULT:      -7.3      1.726      2.348
REMARK  Name = 
REMARK  10 active torsions:
REMARK  status: ('A' for Active; 'I' for Inactive)
REMARK    1  A    between atoms: C_1  and  O_2
REMARK    2  A    between atoms: O_2  and  C_3
REMARK    3  A    between atoms: C_3  and  C_5
REMARK    4  A    between atoms: C_5  and  O_6
REMARK    5  A    between atoms: O_6  and  C_7
REMARK    6  A    between atoms: C_10  and  S_11
REMARK    7  A    between atoms: S_11  and  N_14
REMARK    8  A    between atoms: N_17  and  C_18
REMARK    9  A    between atoms: C_21  and  O_22
REMARK   10  A    between atoms: O_22  and  C_23
REMARK                            x       y       z     vdW  Elec       q    Type
REMARK                         _______ _______ _______ _____ _____    ______ ____
ROOT
ATOM      1  S   UNL     1       1.497   2.600  19.569  0.00  0.00    +0.000 S 
ATOM      2  O   UNL     1       1.233   2.317  20.952  0.00  0.00    +0.000 OA
ATOM      3  O   UNL     1       0.571   2.173  18.531  0.00  0.00    +0.000 OA
ENDROOT
BRANCH   1   7
ATOM      4  C   UNL     1       1.988   7.157  19.125  0.00  0.00    +0.000 A 
ATOM      5  C   UNL     1       1.822   6.350  17.997  0.00  0.00    +0.000 A 
ATOM      6  C   UNL     1       1.652   4.961  18.129  0.00  0.00    +0.000 A 
ATOM      7  C   UNL     1       1.663   4.374  19.396  0.00  0.00    +0.000 A 
ATOM      8  C   UNL     1       1.736   5.186  20.533  0.00  0.00    +0.000 A 
ATOM      9  C   UNL     1       1.912   6.571  20.393  0.00  0.00    +0.000 A 
BRANCH   4  10
ATOM     10  O   UNL     1       2.271   8.494  19.107  0.00  0.00    +0.000 OA
BRANCH  10  11
ATOM     11  C   UNL     1       1.644   9.265  18.088  0.00  0.00    +0.000 C 
BRANCH  11  12
ATOM     12  C   UNL     1       0.433  10.014  18.635  0.00  0.00    +0.000 C 
ATOM     13  O   UNL     1      -0.658  10.103  18.097  0.00  0.00    +0.000 OA
BRANCH  12  15
ATOM     14  C   UNL     1      -0.213  11.500  20.325  0.00  0.00    +0.000 C 
ATOM     15  O   UNL     1       0.739  10.537  19.861  0.00  0.00    +0.000 OA
ENDBRANCH  12  15
ENDBRANCH  11  12
ENDBRANCH  10  11
ENDBRANCH   4  10
ENDBRANCH   1   7
BRANCH   1  16
ATOM     16  N   UNL     1       3.025   1.936  19.178  0.00  0.00    +0.000 NA
ATOM     17  C   UNL     1       3.546   2.094  17.786  0.00  0.00    +0.000 C 
ATOM     18  C   UNL     1       4.034   3.521  17.462  0.00  0.00    +0.000 C 
ATOM     19  N   UNL     1       4.995   3.994  18.468  0.00  0.00    +0.000 N 
ATOM     20  C   UNL     1       4.686   3.739  19.896  0.00  0.00    +0.000 C 
ATOM     21  C   UNL     1       4.130   2.320  20.130  0.00  0.00    +0.000 C 
BRANCH  19  22
ATOM     22  C   UNL     1       5.875   5.029  18.161  0.00  0.00    +0.000 A 
ATOM     23  C   UNL     1       7.138   5.205  18.751  0.00  0.00    +0.000 A 
ATOM     24  C   UNL     1       7.950   6.310  18.427  0.00  0.00    +0.000 A 
ATOM     25  C   UNL     1       7.515   7.259  17.505  0.00  0.00    +0.000 A 
ATOM     26  C   UNL     1       6.258   7.116  16.937  0.00  0.00    +0.000 A 
ATOM     27  C   UNL     1       5.462   6.019  17.262  0.00  0.00    +0.000 A 
BRANCH  25  28
ATOM     28  O   UNL     1       8.352   8.311  17.252  0.00  0.00    +0.000 OA
ATOM     29  C   UNL     1       8.097   9.469  18.045  0.00  0.00    +0.000 C 
ENDBRANCH  25  28
ENDBRANCH  19  22
ENDBRANCH   1  16
TORSDOF 8
ENDMDL
MODEL 5
REMARK VINA RESULT:      -7.2      1.742      2.386
REMARK  Name = 
REMARK  10 active torsions:
REMARK  status: ('A' for Active; 'I' for Inactive)
REMARK    1  A    between atoms: C_1  and  O_2
REMARK    2  A    between atoms: O_2  and  C_3
REMARK    3  A    between atoms: C_3  and  C_5
REMARK    4  A    between atoms: C_5  and  O_6
REMARK    5  A    between atoms: O_6  and  C_7
REMARK    6  A    between atoms: C_10  and  S_11
REMARK    7  A    between atoms: S_11  and  N_14
REMARK    8  A    between atoms: N_17  and  C_18
REMARK    9  A    between atoms: C_21  and  O_22
REMARK   10  A    between atoms: O_22  and  C_23
REMARK                            x       y       z     vdW  Elec       q    Type
REMARK                         _______ _______ _______ _____ _____    ______ ____
ROOT
ATOM      1  S   UNL     1       1.611   2.537  19.646  0.00  0.00    +0.000 S 
ATOM      2  O   UNL     1       1.347   2.194  21.015  0.00  0.00    +0.000 OA
ATOM      3  O   UNL     1       0.694   2.141  18.587  0.00  0.00    +0.000 OA
ENDROOT
BRANCH   1   7
ATOM      4  C   UNL     1       1.907   7.125  19.386  0.00  0.00    +0.000 A 
ATOM      5  C   UNL     1       1.897   6.486  20.628  0.00  0.00    +0.000 A 
ATOM      6  C   UNL     1       1.827   5.085  20.711  0.00  0.00    +0.000 A 
ATOM      7  C   UNL     1       1.751   4.319  19.546  0.00  0.00    +0.000 A 
ATOM      8  C   UNL     1       1.853   4.947  18.299  0.00  0.00    +0.000 A 
ATOM      9  C   UNL     1       1.917   6.346  18.223  0.00  0.00    +0.000 A 
BRANCH   4  10
ATOM     10  O   UNL     1       1.860   8.477  19.191  0.00  0.00    +0.000 OA
BRANCH  10  11
ATOM     11  C   UNL     1       1.159   9.238  20.169  0.00  0.00    +0.000 C 
BRANCH  11  12
ATOM     12  C   UNL     1       0.430  10.416  19.528  0.00  0.00    +0.000 C 
ATOM     13  O   UNL     1       0.903  11.518  19.310  0.00  0.00    +0.000 OA
BRANCH  12  15
ATOM     14  C   UNL     1      -1.392  10.799  18.109  0.00  0.00    +0.000 C 
ATOM     15  O   UNL     1      -0.836  10.032  19.182  0.00  0.00    +0.000 OA
ENDBRANCH  12  15
ENDBRANCH  11  12
ENDBRANCH  10  11
ENDBRANCH   4  10
ENDBRANCH   1   7
BRANCH   1  16
ATOM     16  N   UNL     1       3.149   1.912  19.234  0.00  0.00    +0.000 NA
ATOM     17  C   UNL     1       3.645   2.080  17.833  0.00  0.00    +0.000 C 
ATOM     18  C   UNL     1       4.091   3.517  17.498  0.00  0.00    +0.000 C 
ATOM     19  N   UNL     1       5.054   4.018  18.488  0.00  0.00    +0.000 N 
ATOM     20  C   UNL     1       4.773   3.759  19.921  0.00  0.00    +0.000 C 
ATOM     21  C   UNL     1       4.258   2.327  20.167  0.00  0.00    +0.000 C 
BRANCH  19  22
ATOM     22  C   UNL     1       5.902   5.074  18.165  0.00  0.00    +0.000 A 
ATOM     23  C   UNL     1       7.027   5.454  18.916  0.00  0.00    +0.000 A 
ATOM     24  C   UNL     1       7.807   6.571  18.554  0.00  0.00    +0.000 A 
ATOM     25  C   UNL     1       7.477   7.327  17.432  0.00  0.00    +0.000 A 
ATOM     26  C   UNL     1       6.352   6.984  16.697  0.00  0.00    +0.000 A 
ATOM     27  C   UNL     1       5.587   5.877  17.062  0.00  0.00    +0.000 A 
BRANCH  25  28
ATOM     28  O   UNL     1       8.273   8.404  17.151  0.00  0.00    +0.000 OA
ATOM     29  C   UNL     1       8.436   9.313  18.239  0.00  0.00    +0.000 C 
ENDBRANCH  25  28
ENDBRANCH  19  22
ENDBRANCH   1  16
TORSDOF 8
ENDMDL
MODEL 6
REMARK VINA RESULT:      -7.1      2.729      6.189
REMARK  Name = 
REMARK  10 active torsions:
REMARK  status: ('A' for Active; 'I' for Inactive)
REMARK    1  A    between atoms: C_1  and  O_2
REMARK    2  A    between atoms: O_2  and  C_3
REMARK    3  A    between atoms: C_3  and  C_5
REMARK    4  A    between atoms: C_5  and  O_6
REMARK    5  A    between atoms: O_6  and  C_7
REMARK    6  A    between atoms: C_10  and  S_11
REMARK    7  A    between atoms: S_11  and  N_14
REMARK    8  A    between atoms: N_17  and  C_18
REMARK    9  A    between atoms: C_21  and  O_22
REMARK   10  A    between atoms: O_22  and  C_23
REMARK                            x       y       z     vdW  Elec       q    Type
REMARK                         _______ _______ _______ _____ _____    ______ ____
ROOT
ATOM      1  S   UNL     1       4.005   2.218  19.052  0.00  0.00    +0.000 S 
ATOM      2  O   UNL     1       3.817   1.323  17.945  0.00  0.00    +0.000 OA
ATOM      3  O   UNL     1       4.848   1.846  20.178  0.00  0.00    +0.000 OA
ENDROOT
BRANCH   1   7
ATOM      4  C   UNL     1       5.783   6.127  17.389  0.00  0.00    +0.000 A 
ATOM      5  C   UNL     1       5.074   5.260  16.554  0.00  0.00    +0.000 A 
ATOM      6  C   UNL     1       4.513   4.076  17.062  0.00  0.00    +0.000 A 
ATOM      7  C   UNL     1       4.674   3.749  18.410  0.00  0.00    +0.000 A 
ATOM      8  C   UNL     1       5.302   4.657  19.270  0.00  0.00    +0.000 A 
ATOM      9  C   UNL     1       5.866   5.834  18.755  0.00  0.00    +0.000 A 
BRANCH   4  10
ATOM     10  O   UNL     1       6.462   7.241  16.981  0.00  0.00    +0.000 OA
BRANCH  10  11
ATOM     11  C   UNL     1       7.794   7.387  17.461  0.00  0.00    +0.000 C 
BRANCH  11  12
ATOM     12  C   UNL     1       8.071   8.828  17.879  0.00  0.00    +0.000 C 
ATOM     13  O   UNL     1       7.591   9.827  17.370  0.00  0.00    +0.000 OA
BRANCH  12  15
ATOM     14  C   UNL     1       9.237  10.148  19.422  0.00  0.00    +0.000 C 
ATOM     15  O   UNL     1       8.911   8.833  18.958  0.00  0.00    +0.000 OA
ENDBRANCH  12  15
ENDBRANCH  11  12
ENDBRANCH  10  11
ENDBRANCH   4  10
ENDBRANCH   1   7
BRANCH   1  16
ATOM     16  N   UNL     1       2.463   2.600  19.688  0.00  0.00    +0.000 NA
ATOM     17  C   UNL     1       2.380   3.371  20.966  0.00  0.00    +0.000 C 
ATOM     18  C   UNL     1       2.736   4.863  20.818  0.00  0.00    +0.000 C 
ATOM     19  N   UNL     1       1.954   5.491  19.743  0.00  0.00    +0.000 N 
ATOM     20  C   UNL     1       1.803   4.745  18.470  0.00  0.00    +0.000 C 
ATOM     21  C   UNL     1       1.526   3.246  18.699  0.00  0.00    +0.000 C 
BRANCH  19  22
ATOM     22  C   UNL     1       1.782   6.872  19.720  0.00  0.00    +0.000 A 
ATOM     23  C   UNL     1       1.312   7.637  20.801  0.00  0.00    +0.000 A 
ATOM     24  C   UNL     1       1.112   9.027  20.683  0.00  0.00    +0.000 A 
ATOM     25  C   UNL     1       1.381   9.679  19.482  0.00  0.00    +0.000 A 
ATOM     26  C   UNL     1       1.817   8.934  18.396  0.00  0.00    +0.000 A 
ATOM     27  C   UNL     1       2.013   7.560  18.522  0.00  0.00    +0.000 A 
BRANCH  25  28
ATOM     28  O   UNL     1       1.150  11.026  19.440  0.00  0.00    +0.000 OA
ATOM     29  C   UNL     1      -0.054  11.396  18.769  0.00  0.00    +0.000 C 
ENDBRANCH  25  28
ENDBRANCH  19  22
ENDBRANCH   1  16
TORSDOF 8
ENDMDL
MODEL 7
REMARK VINA RESULT:      -7.1      2.748      8.202
REMARK  Name = 
REMARK  10 active torsions:
REMARK  status: ('A' for Active; 'I' for Inactive)
REMARK    1  A    between atoms: C_1  and  O_2
REMARK    2  A    between atoms: O_2  and  C_3
REMARK    3  A    between atoms: C_3  and  C_5
REMARK    4  A    between atoms: C_5  and  O_6
REMARK    5  A    between atoms: O_6  and  C_7
REMARK    6  A    between atoms: C_10  and  S_11
REMARK    7  A    between atoms: S_11  and  N_14
REMARK    8  A    between atoms: N_17  and  C_18
REMARK    9  A    between atoms: C_21  and  O_22
REMARK   10  A    between atoms: O_22  and  C_23
REMARK                            x       y       z     vdW  Elec       q    Type
REMARK                         _______ _______ _______ _____ _____    ______ ____
ROOT
ATOM      1  S   UNL     1       4.720   4.467  18.988  0.00  0.00    +0.000 S 
ATOM      2  O   UNL     1       5.129   3.197  19.519  0.00  0.00    +0.000 OA
ATOM      3  O   UNL     1       5.128   5.709  19.628  0.00  0.00    +0.000 OA
ENDROOT
BRANCH   1   7
ATOM      4  C   UNL     1       6.134   4.721  14.613  0.00  0.00    +0.000 A 
ATOM      5  C   UNL     1       6.146   5.856  15.428  0.00  0.00    +0.000 A 
ATOM      6  C   UNL     1       5.734   5.778  16.769  0.00  0.00    +0.000 A 
ATOM      7  C   UNL     1       5.293   4.563  17.295  0.00  0.00    +0.000 A 
ATOM      8  C   UNL     1       5.365   3.405  16.512  0.00  0.00    +0.000 A 
ATOM      9  C   UNL     1       5.771   3.491  15.172  0.00  0.00    +0.000 A 
BRANCH   4  10
ATOM     10  O   UNL     1       6.404   4.706  13.274  0.00  0.00    +0.000 OA
BRANCH  10  11
ATOM     11  C   UNL     1       6.611   3.429  12.679  0.00  0.00    +0.000 C 
BRANCH  11  12
ATOM     12  C   UNL     1       5.391   2.995  11.873  0.00  0.00    +0.000 C 
ATOM     13  O   UNL     1       4.402   3.672  11.649  0.00  0.00    +0.000 OA
BRANCH  12  15
ATOM     14  C   UNL     1       6.958   1.470  11.036  0.00  0.00    +0.000 C 
ATOM     15  O   UNL     1       5.595   1.734  11.386  0.00  0.00    +0.000 OA
ENDBRANCH  12  15
ENDBRANCH  11  12
ENDBRANCH  10  11
ENDBRANCH   4  10
ENDBRANCH   1   7
BRANCH   1  16
ATOM     16  N   UNL     1       3.010   4.481  18.916  0.00  0.00    +0.000 NA
ATOM     17  C   UNL     1       2.235   4.581  20.190  0.00  0.00    +0.000 C 
ATOM     18  C   UNL     1       2.263   5.985  20.828  0.00  0.00    +0.000 C 
ATOM     19  N   UNL     1       1.867   7.016  19.857  0.00  0.00    +0.000 N 
ATOM     20  C   UNL     1       2.427   6.930  18.487  0.00  0.00    +0.000 C 
ATOM     21  C   UNL     1       2.438   5.485  17.948  0.00  0.00    +0.000 C 
BRANCH  19  22
ATOM     22  C   UNL     1       1.403   8.252  20.301  0.00  0.00    +0.000 A 
ATOM     23  C   UNL     1       1.208   9.374  19.479  0.00  0.00    +0.000 A 
ATOM     24  C   UNL     1       0.787  10.609  20.012  0.00  0.00    +0.000 A 
ATOM     25  C   UNL     1       0.551  10.743  21.379  0.00  0.00    +0.000 A 
ATOM     26  C   UNL     1       0.769   9.653  22.208  0.00  0.00    +0.000 A 
ATOM     27  C   UNL     1       1.183   8.435  21.672  0.00  0.00    +0.000 A 
BRANCH  25  28
ATOM     28  O   UNL     1       0.158  11.975  21.824  0.00  0.00    +0.000 OA
ATOM     29  C   UNL     1      -0.704  12.676  20.929  0.00  0.00    +0.000 C 
ENDBRANCH  25  28
ENDBRANCH  19  22
ENDBRANCH   1  16
TORSDOF 8
ENDMDL
MODEL 8
REMARK VINA RESULT:      -7.1      1.847      2.572
REMARK  Name = 
REMARK  10 active torsions:
REMARK  status: ('A' for Active; 'I' for Inactive)
REMARK    1  A    between atoms: C_1  and  O_2
REMARK    2  A    between atoms: O_2  and  C_3
REMARK    3  A    between atoms: C_3  and  C_5
REMARK    4  A    between atoms: C_5  and  O_6
REMARK    5  A    between atoms: O_6  and  C_7
REMARK    6  A    between atoms: C_10  and  S_11
REMARK    7  A    between atoms: S_11  and  N_14
REMARK    8  A    between atoms: N_17  and  C_18
REMARK    9  A    between atoms: C_21  and  O_22
REMARK   10  A    between atoms: O_22  and  C_23
REMARK                            x       y       z     vdW  Elec       q    Type
REMARK                         _______ _______ _______ _____ _____    ______ ____
ROOT
ATOM      1  S   UNL     1       1.682   2.546  19.391  0.00  0.00    +0.000 S 
ATOM      2  O   UNL     1       1.385   2.140  20.737  0.00  0.00    +0.000 OA
ATOM      3  O   UNL     1       0.827   2.143  18.284  0.00  0.00    +0.000 OA
ENDROOT
BRANCH   1   7
ATOM      4  C   UNL     1       1.882   7.146  19.312  0.00  0.00    +0.000 A 
ATOM      5  C   UNL     1       1.813   6.420  18.121  0.00  0.00    +0.000 A 
ATOM      6  C   UNL     1       1.732   5.018  18.141  0.00  0.00    +0.000 A 
ATOM      7  C   UNL     1       1.735   4.335  19.359  0.00  0.00    +0.000 A 
ATOM      8  C   UNL     1       1.710   5.060  20.556  0.00  0.00    +0.000 A 
ATOM      9  C   UNL     1       1.798   6.460  20.529  0.00  0.00    +0.000 A 
BRANCH   4  10
ATOM     10  O   UNL     1       2.076   8.496  19.407  0.00  0.00    +0.000 OA
BRANCH  10  11
ATOM     11  C   UNL     1       1.805   9.262  18.239  0.00  0.00    +0.000 C 
BRANCH  11  12
ATOM     12  C   UNL     1       1.428  10.696  18.599  0.00  0.00    +0.000 C 
ATOM     13  O   UNL     1       2.050  11.699  18.294  0.00  0.00    +0.000 OA
BRANCH  12  15
ATOM     14  C   UNL     1      -0.896  10.457  18.448  0.00  0.00    +0.000 C 
ATOM     15  O   UNL     1       0.243  10.695  19.282  0.00  0.00    +0.000 OA
ENDBRANCH  12  15
ENDBRANCH  11  12
ENDBRANCH  10  11
ENDBRANCH   4  10
ENDBRANCH   1   7
BRANCH   1  16
ATOM     16  N   UNL     1       3.265   2.014  19.019  0.00  0.00    +0.000 NA
ATOM     17  C   UNL     1       3.810   2.271  17.651  0.00  0.00    +0.000 C 
ATOM     18  C   UNL     1       4.198   3.742  17.401  0.00  0.00    +0.000 C 
ATOM     19  N   UNL     1       5.094   4.240  18.454  0.00  0.00    +0.000 N 
ATOM     20  C   UNL     1       4.767   3.900  19.861  0.00  0.00    +0.000 C 
ATOM     21  C   UNL     1       4.312   2.435  20.018  0.00  0.00    +0.000 C 
BRANCH  19  22
ATOM     22  C   UNL     1       5.902   5.349  18.217  0.00  0.00    +0.000 A 
ATOM     23  C   UNL     1       5.618   6.360  17.283  0.00  0.00    +0.000 A 
ATOM     24  C   UNL     1       6.513   7.425  17.060  0.00  0.00    +0.000 A 
ATOM     25  C   UNL     1       7.710   7.500  17.770  0.00  0.00    +0.000 A 
ATOM     26  C   UNL     1       8.020   6.494  18.673  0.00  0.00    +0.000 A 
ATOM     27  C   UNL     1       7.127   5.446  18.888  0.00  0.00    +0.000 A 
BRANCH  25  28
ATOM     28  O   UNL     1       8.534   8.555  17.490  0.00  0.00    +0.000 OA
ATOM     29  C   UNL     1       8.590   9.546  18.515  0.00  0.00    +0.000 C 
ENDBRANCH  25  28
ENDBRANCH  19  22
ENDBRANCH   1  16
TORSDOF 8
ENDMDL
MODEL 9
REMARK VINA RESULT:      -7.1      0.642      1.165
REMARK  Name = 
REMARK  10 active torsions:
REMARK  status: ('A' for Active; 'I' for Inactive)
REMARK    1  A    between atoms: C_1  and  O_2
REMARK    2  A    between atoms: O_2  and  C_3
REMARK    3  A    between atoms: C_3  and  C_5
REMARK    4  A    between atoms: C_5  and  O_6
REMARK    5  A    between atoms: O_6  and  C_7
REMARK    6  A    between atoms: C_10  and  S_11
REMARK    7  A    between atoms: S_11  and  N_14
REMARK    8  A    between atoms: N_17  and  C_18
REMARK    9  A    between atoms: C_21  and  O_22
REMARK   10  A    between atoms: O_22  and  C_23
REMARK                            x       y       z     vdW  Elec       q    Type
REMARK                         _______ _______ _______ _____ _____    ______ ____
ROOT
ATOM      1  S   UNL     1       1.421   3.063  19.949  0.00  0.00    +0.000 S 
ATOM      2  O   UNL     1       1.018   3.121  21.326  0.00  0.00    +0.000 OA
ATOM      3  O   UNL     1       0.539   2.500  18.937  0.00  0.00    +0.000 OA
ENDROOT
BRANCH   1   7
ATOM      4  C   UNL     1       2.316   7.366  18.577  0.00  0.00    +0.000 A 
ATOM      5  C   UNL     1       2.281   7.050  19.938  0.00  0.00    +0.000 A 
ATOM      6  C   UNL     1       2.028   5.734  20.359  0.00  0.00    +0.000 A 
ATOM      7  C   UNL     1       1.794   4.731  19.417  0.00  0.00    +0.000 A 
ATOM      8  C   UNL     1       1.919   5.022  18.054  0.00  0.00    +0.000 A 
ATOM      9  C   UNL     1       2.165   6.339  17.639  0.00  0.00    +0.000 A 
BRANCH   4  10
ATOM     10  O   UNL     1       2.441   8.626  18.060  0.00  0.00    +0.000 OA
BRANCH  10  11
ATOM     11  C   UNL     1       1.990   9.699  18.880  0.00  0.00    +0.000 C 
BRANCH  11  12
ATOM     12  C   UNL     1       0.505   9.972  18.657  0.00  0.00    +0.000 C 
ATOM     13  O   UNL     1      -0.138   9.672  17.666  0.00  0.00    +0.000 OA
BRANCH  12  15
ATOM     14  C   UNL     1      -0.238   9.656  20.855  0.00  0.00    +0.000 C 
ATOM     15  O   UNL     1      -0.018  10.567  19.772  0.00  0.00    +0.000 OA
ENDBRANCH  12  15
ENDBRANCH  11  12
ENDBRANCH  10  11
ENDBRANCH   4  10
ENDBRANCH   1   7
BRANCH   1  16
ATOM     16  N   UNL     1       2.893   2.194  19.868  0.00  0.00    +0.000 NA
ATOM     17  C   UNL     1       3.228   1.457  18.611  0.00  0.00    +0.000 C 
ATOM     18  C   UNL     1       3.654   2.373  17.446  0.00  0.00    +0.000 C 
ATOM     19  N   UNL     1       4.731   3.286  17.855  0.00  0.00    +0.000 N 
ATOM     20  C   UNL     1       4.612   3.951  19.175  0.00  0.00    +0.000 C 
ATOM     21  C   UNL     1       4.107   2.992  20.272  0.00  0.00    +0.000 C 
BRANCH  19  22
ATOM     22  C   UNL     1       5.552   3.872  16.896  0.00  0.00    +0.000 A 
ATOM     23  C   UNL     1       6.402   4.965  17.131  0.00  0.00    +0.000 A 
ATOM     24  C   UNL     1       7.164   5.539  16.093  0.00  0.00    +0.000 A 
ATOM     25  C   UNL     1       7.091   5.026  14.800  0.00  0.00    +0.000 A 
ATOM     26  C   UNL     1       6.234   3.966  14.544  0.00  0.00    +0.000 A 
ATOM     27  C   UNL     1       5.486   3.405  15.577  0.00  0.00    +0.000 A 
BRANCH  25  28
ATOM     28  O   UNL     1       7.849   5.644  13.843  0.00  0.00    +0.000 OA
ATOM     29  C   UNL     1       7.721   5.080  12.538  0.00  0.00    +0.000 C 
ENDBRANCH  25  28
ENDBRANCH  19  22
ENDBRANCH   1  16
TORSDOF 8
ENDMDL
