MODEL 1
REMARK VINA RESULT:      -7.4      0.000      0.000
REMARK  Name = 
REMARK  13 active torsions:
REMARK  status: ('A' for Active; 'I' for Inactive)
REMARK    1  A    between atoms: C_1  and  C_2
REMARK    2  A    between atoms: N_4  and  C_5
REMARK    3  A    between atoms: C_6  and  N_7
REMARK    4  A    between atoms: C_13  and  C_14
REMARK    5  A    between atoms: N_15  and  O_16
REMARK    6  A    between atoms: O_16  and  C_17
REMARK    7  A    between atoms: C_17  and  C_18
REMARK    8  A    between atoms: C_21  and  C_22
REMARK    9  A    between atoms: C_22  and  O_24
REMARK   10  A    between atoms: O_24  and  C_25
REMARK   11  A    between atoms: C_25  and  C_26
REMARK   12  A    between atoms: C_25  and  C_27
REMARK   13  A    between atoms: C_25  and  C_28
REMARK                            x       y       z     vdW  Elec       q    Type
REMARK                         _______ _______ _______ _____ _____    ______ ____
ROOT
ATOM      1  C   UNL     1       2.924   6.606  19.022  0.00  0.00    +0.000 C 
ATOM      2  N   UNL     1       2.512   7.310  18.014  0.00  0.00    +0.000 NA
ENDROOT
BRANCH   1   9
ATOM      3  C   UNL     1       0.873   4.496  20.358  0.00  0.00    +0.000 C 
ATOM      4  C   UNL     1       2.060   4.231  19.509  0.00  0.00    +0.000 A 
ATOM      5  N   UNL     1       2.357   2.979  19.158  0.00  0.00    +0.000 NA
ATOM      6  N   UNL     1       3.477   3.092  18.418  0.00  0.00    +0.000 N 
ATOM      7  C   UNL     1       4.107   1.855  18.018  0.00  0.00    +0.000 C 
ATOM      8  C   UNL     1       3.910   4.401  18.250  0.00  0.00    +0.000 A 
ATOM      9  C   UNL     1       2.967   5.163  18.941  0.00  0.00    +0.000 A 
BRANCH   8  10
ATOM     10  N   UNL     1       5.044   4.780  17.573  0.00  0.00    +0.000 N 
ATOM     11  C   UNL     1       5.101   4.837  16.098  0.00  0.00    +0.000 C 
ATOM     12  C   UNL     1       6.360   4.099  15.616  0.00  0.00    +0.000 C 
ATOM     13  O   UNL     1       7.545   4.693  16.176  0.00  0.00    +0.000 OA
ATOM     14  C   UNL     1       7.503   4.621  17.609  0.00  0.00    +0.000 C 
ATOM     15  C   UNL     1       6.263   5.321  18.193  0.00  0.00    +0.000 C 
ENDBRANCH   8  10
ENDBRANCH   1   9
BRANCH   2  16
ATOM     16  O   UNL     1       2.514   8.667  18.389  0.00  0.00    +0.000 OA
BRANCH  16  17
ATOM     17  C   UNL     1       1.273   9.266  18.004  0.00  0.00    +0.000 C 
BRANCH  17  18
ATOM     18  C   UNL     1       0.626   9.894  19.214  0.00  0.00    +0.000 A 
ATOM     19  C   UNL     1       1.025   9.495  20.496  0.00  0.00    +0.000 A 
ATOM     20  C   UNL     1       0.455  10.080  21.628  0.00  0.00    +0.000 A 
ATOM     21  C   UNL     1      -0.521  11.076  21.507  0.00  0.00    +0.000 A 
ATOM     22  C   UNL     1      -0.929  11.481  20.232  0.00  0.00    +0.000 A 
ATOM     23  C   UNL     1      -0.355  10.893  19.093  0.00  0.00    +0.000 A 
BRANCH  21  24
ATOM     24  C   UNL     1      -1.065  11.648  22.766  0.00  0.00    +0.000 C 
ATOM     25  O   UNL     1      -1.979  11.100  23.363  0.00  0.00    +0.000 OA
BRANCH  24  26
ATOM     26  O   UNL     1      -0.453  12.800  23.140  0.00  0.00    +0.000 OA
BRANCH  26  27
ATOM     27  C   UNL     1      -1.118  14.066  22.854  0.00  0.00    +0.000 C 
ATOM     28  C   UNL     1      -2.571  13.845  22.402  0.00  0.00    +0.000 C 
ATOM     29  C   UNL     1      -1.150  14.846  24.180  0.00  0.00    +0.000 C 
ATOM     30  C   UNL     1      -0.320  14.894  21.843  0.00  0.00    +0.000 C 
ENDBRANCH  26  27
ENDBRANCH  24  26
ENDBRANCH  21  24
ENDBRANCH  17  18
ENDBRANCH  16  17
ENDBRANCH   2  16
TORSDOF 8
ENDMDL
MODEL 2
REMARK VINA RESULT:      -7.4      1.400      2.131
REMARK  Name = 
REMARK  13 active torsions:
REMARK  status: ('A' for Active; 'I' for Inactive)
REMARK    1  A    between atoms: C_1  and  C_2
REMARK    2  A    between atoms: N_4  and  C_5
REMARK    3  A    between atoms: C_6  and  N_7
REMARK    4  A    between atoms: C_13  and  C_14
REMARK    5  A    between atoms: N_15  and  O_16
REMARK    6  A    between atoms: O_16  and  C_17
REMARK    7  A    between atoms: C_17  and  C_18
REMARK    8  A    between atoms: C_21  and  C_22
REMARK    9  A    between atoms: C_22  and  O_24
REMARK   10  A    between atoms: O_24  and  C_25
REMARK   11  A    between atoms: C_25  and  C_26
REMARK   12  A    between atoms: C_25  and  C_27
REMARK   13  A    between atoms: C_25  and  C_28
REMARK                            x       y       z     vdW  Elec       q    Type
REMARK                         _______ _______ _______ _____ _____    ______ ____
ROOT
ATOM      1  C   UNL     1       2.466   6.348  19.842  0.00  0.00    +0.000 C 
ATOM      2  N   UNL     1       2.169   7.312  19.027  0.00  0.00    +0.000 NA
ENDROOT
BRANCH   1   9
ATOM      3  C   UNL     1       0.666   3.727  20.417  0.00  0.00    +0.000 C 
ATOM      4  C   UNL     1       1.883   3.856  19.580  0.00  0.00    +0.000 A 
ATOM      5  N   UNL     1       2.327   2.803  18.893  0.00  0.00    +0.000 NA
ATOM      6  N   UNL     1       3.433   3.250  18.266  0.00  0.00    +0.000 N 
ATOM      7  C   UNL     1       4.208   2.263  17.550  0.00  0.00    +0.000 C 
ATOM      8  C   UNL     1       3.710   4.590  18.505  0.00  0.00    +0.000 A 
ATOM      9  C   UNL     1       2.679   5.007  19.347  0.00  0.00    +0.000 A 
BRANCH   8  10
ATOM     10  N   UNL     1       4.798   5.273  18.016  0.00  0.00    +0.000 N 
ATOM     11  C   UNL     1       4.782   5.947  16.702  0.00  0.00    +0.000 C 
ATOM     12  C   UNL     1       6.039   5.543  15.915  0.00  0.00    +0.000 C 
ATOM     13  O   UNL     1       7.230   5.904  16.638  0.00  0.00    +0.000 OA
ATOM     14  C   UNL     1       7.260   5.236  17.908  0.00  0.00    +0.000 C 
ATOM     15  C   UNL     1       6.027   5.564  18.769  0.00  0.00    +0.000 C 
ENDBRANCH   8  10
ENDBRANCH   1   9
BRANCH   2  16
ATOM     16  O   UNL     1       1.956   8.482  19.780  0.00  0.00    +0.000 OA
BRANCH  16  17
ATOM     17  C   UNL     1       1.320   8.140  21.015  0.00  0.00    +0.000 C 
BRANCH  17  18
ATOM     18  C   UNL     1       0.588   9.346  21.549  0.00  0.00    +0.000 A 
ATOM     19  C   UNL     1       0.677  10.566  20.867  0.00  0.00    +0.000 A 
ATOM     20  C   UNL     1      -0.011  11.688  21.332  0.00  0.00    +0.000 A 
ATOM     21  C   UNL     1      -0.804  11.618  22.484  0.00  0.00    +0.000 A 
ATOM     22  C   UNL     1      -0.899  10.406  23.175  0.00  0.00    +0.000 A 
ATOM     23  C   UNL     1      -0.207   9.277  22.707  0.00  0.00    +0.000 A 
BRANCH  21  24
ATOM     24  C   UNL     1      -1.507  12.860  22.899  0.00  0.00    +0.000 C 
ATOM     25  O   UNL     1      -1.028  13.602  23.743  0.00  0.00    +0.000 OA
BRANCH  24  26
ATOM     26  O   UNL     1      -2.689  13.046  22.260  0.00  0.00    +0.000 OA
BRANCH  26  27
ATOM     27  C   UNL     1      -3.881  13.306  23.061  0.00  0.00    +0.000 C 
ATOM     28  C   UNL     1      -3.949  14.779  23.499  0.00  0.00    +0.000 C 
ATOM     29  C   UNL     1      -5.085  13.029  22.146  0.00  0.00    +0.000 C 
ATOM     30  C   UNL     1      -3.966  12.346  24.251  0.00  0.00    +0.000 C 
ENDBRANCH  26  27
ENDBRANCH  24  26
ENDBRANCH  21  24
ENDBRANCH  17  18
ENDBRANCH  16  17
ENDBRANCH   2  16
TORSDOF 8
ENDMDL
MODEL 3
REMARK VINA RESULT:      -7.3      6.441     10.709
REMARK  Name = 
REMARK  13 active torsions:
REMARK  status: ('A' for Active; 'I' for Inactive)
REMARK    1  A    between atoms: C_1  and  C_2
REMARK    2  A    between atoms: N_4  and  C_5
REMARK    3  A    between atoms: C_6  and  N_7
REMARK    4  A    between atoms: C_13  and  C_14
REMARK    5  A    between atoms: N_15  and  O_16
REMARK    6  A    between atoms: O_16  and  C_17
REMARK    7  A    between atoms: C_17  and  C_18
REMARK    8  A    between atoms: C_21  and  C_22
REMARK    9  A    between atoms: C_22  and  O_24
REMARK   10  A    between atoms: O_24  and  C_25
REMARK   11  A    between atoms: C_25  and  C_26
REMARK   12  A    between atoms: C_25  and  C_27
REMARK   13  A    between atoms: C_25  and  C_28
REMARK                            x       y       z     vdW  Elec       q    Type
REMARK                         _______ _______ _______ _____ _____    ______ ____
ROOT
ATOM      1  C   UNL     1       9.549  10.821  19.513  0.00  0.00    +0.000 C 
ATOM      2  N   UNL     1       8.906  10.364  18.485  0.00  0.00    +0.000 NA
ENDROOT
BRANCH   1   9
ATOM      3  C   UNL     1      11.808  12.205  17.662  0.00  0.00    +0.000 C 
ATOM      4  C   UNL     1      10.973  12.814  18.727  0.00  0.00    +0.000 A 
ATOM      5  N   UNL     1      11.071  14.120  18.976  0.00  0.00    +0.000 NA
ATOM      6  N   UNL     1      10.208  14.337  19.988  0.00  0.00    +0.000 N 
ATOM      7  C   UNL     1      10.213  15.662  20.562  0.00  0.00    +0.000 C 
ATOM      8  C   UNL     1       9.521  13.199  20.393  0.00  0.00    +0.000 A 
ATOM      9  C   UNL     1       9.997  12.196  19.548  0.00  0.00    +0.000 A 
BRANCH   8  10
ATOM     10  N   UNL     1       8.617  13.145  21.426  0.00  0.00    +0.000 N 
ATOM     11  C   UNL     1       7.314  13.841  21.373  0.00  0.00    +0.000 C 
ATOM     12  C   UNL     1       7.119  14.640  22.671  0.00  0.00    +0.000 C 
ATOM     13  O   UNL     1       7.165  13.771  23.817  0.00  0.00    +0.000 OA
ATOM     14  C   UNL     1       8.437  13.108  23.884  0.00  0.00    +0.000 C 
ATOM     15  C   UNL     1       8.736  12.289  22.616  0.00  0.00    +0.000 C 
ENDBRANCH   8  10
ENDBRANCH   1   9
BRANCH   2  16
ATOM     16  O   UNL     1       8.652   8.995  18.692  0.00  0.00    +0.000 OA
BRANCH  16  17
ATOM     17  C   UNL     1       8.036   8.445  17.524  0.00  0.00    +0.000 C 
BRANCH  17  18
ATOM     18  C   UNL     1       7.235   7.226  17.909  0.00  0.00    +0.000 A 
ATOM     19  C   UNL     1       5.992   6.998  17.306  0.00  0.00    +0.000 A 
ATOM     20  C   UNL     1       5.245   5.865  17.632  0.00  0.00    +0.000 A 
ATOM     21  C   UNL     1       5.721   4.934  18.563  0.00  0.00    +0.000 A 
ATOM     22  C   UNL     1       6.960   5.153  19.174  0.00  0.00    +0.000 A 
ATOM     23  C   UNL     1       7.712   6.292  18.845  0.00  0.00    +0.000 A 
BRANCH  21  24
ATOM     24  C   UNL     1       4.863   3.753  18.841  0.00  0.00    +0.000 C 
ATOM     25  O   UNL     1       5.166   2.944  19.704  0.00  0.00    +0.000 OA
BRANCH  24  26
ATOM     26  O   UNL     1       3.764   3.691  18.047  0.00  0.00    +0.000 OA
BRANCH  26  27
ATOM     27  C   UNL     1       2.448   3.709  18.677  0.00  0.00    +0.000 C 
ATOM     28  C   UNL     1       2.451   4.566  19.954  0.00  0.00    +0.000 C 
ATOM     29  C   UNL     1       1.495   4.369  17.667  0.00  0.00    +0.000 C 
ATOM     30  C   UNL     1       1.942   2.288  18.939  0.00  0.00    +0.000 C 
ENDBRANCH  26  27
ENDBRANCH  24  26
ENDBRANCH  21  24
ENDBRANCH  17  18
ENDBRANCH  16  17
ENDBRANCH   2  16
TORSDOF 8
ENDMDL
MODEL 4
REMARK VINA RESULT:      -7.3      3.920     10.119
REMARK  Name = 
REMARK  13 active torsions:
REMARK  status: ('A' for Active; 'I' for Inactive)
REMARK    1  A    between atoms: C_1  and  C_2
REMARK    2  A    between atoms: N_4  and  C_5
REMARK    3  A    between atoms: C_6  and  N_7
REMARK    4  A    between atoms: C_13  and  C_14
REMARK    5  A    between atoms: N_15  and  O_16
REMARK    6  A    between atoms: O_16  and  C_17
REMARK    7  A    between atoms: C_17  and  C_18
REMARK    8  A    between atoms: C_21  and  C_22
REMARK    9  A    between atoms: C_22  and  O_24
REMARK   10  A    between atoms: O_24  and  C_25
REMARK   11  A    between atoms: C_25  and  C_26
REMARK   12  A    between atoms: C_25  and  C_27
REMARK   13  A    between atoms: C_25  and  C_28
REMARK                            x       y       z     vdW  Elec       q    Type
REMARK                         _______ _______ _______ _____ _____    ______ ____
ROOT
ATOM      1  C   UNL     1      -2.088  11.435  18.853  0.00  0.00    +0.000 C 
ATOM      2  N   UNL     1      -1.094  12.200  18.525  0.00  0.00    +0.000 NA
ENDROOT
BRANCH   1   9
ATOM      3  C   UNL     1      -4.664  11.304  16.906  0.00  0.00    +0.000 C 
ATOM      4  C   UNL     1      -4.540  11.924  18.248  0.00  0.00    +0.000 A 
ATOM      5  N   UNL     1      -5.610  12.477  18.822  0.00  0.00    +0.000 NA
ATOM      6  N   UNL     1      -5.155  12.950  19.998  0.00  0.00    +0.000 N 
ATOM      7  C   UNL     1      -6.086  13.734  20.777  0.00  0.00    +0.000 C 
ATOM      8  C   UNL     1      -3.808  12.695  20.223  0.00  0.00    +0.000 A 
ATOM      9  C   UNL     1      -3.400  11.994  19.088  0.00  0.00    +0.000 A 
BRANCH   8  10
ATOM     10  N   UNL     1      -3.097  13.107  21.325  0.00  0.00    +0.000 N 
ATOM     11  C   UNL     1      -2.431  14.424  21.388  0.00  0.00    +0.000 C 
ATOM     12  C   UNL     1      -0.982  14.231  21.865  0.00  0.00    +0.000 C 
ATOM     13  O   UNL     1      -0.951  13.603  23.159  0.00  0.00    +0.000 OA
ATOM     14  C   UNL     1      -1.580  12.314  23.098  0.00  0.00    +0.000 C 
ATOM     15  C   UNL     1      -3.038  12.398  22.612  0.00  0.00    +0.000 C 
ENDBRANCH   8  10
ENDBRANCH   1   9
BRANCH   2  16
ATOM     16  O   UNL     1       0.064  11.406  18.422  0.00  0.00    +0.000 OA
BRANCH  16  17
ATOM     17  C   UNL     1       0.273  10.712  19.655  0.00  0.00    +0.000 C 
BRANCH  17  18
ATOM     18  C   UNL     1       1.097   9.475  19.398  0.00  0.00    +0.000 A 
ATOM     19  C   UNL     1       1.280   8.541  20.426  0.00  0.00    +0.000 A 
ATOM     20  C   UNL     1       2.020   7.379  20.202  0.00  0.00    +0.000 A 
ATOM     21  C   UNL     1       2.589   7.120  18.949  0.00  0.00    +0.000 A 
ATOM     22  C   UNL     1       2.415   8.047  17.916  0.00  0.00    +0.000 A 
ATOM     23  C   UNL     1       1.670   9.216  18.141  0.00  0.00    +0.000 A 
BRANCH  21  24
ATOM     24  C   UNL     1       3.352   5.854  18.800  0.00  0.00    +0.000 C 
ATOM     25  O   UNL     1       4.254   5.755  17.982  0.00  0.00    +0.000 OA
BRANCH  24  26
ATOM     26  O   UNL     1       2.932   4.873  19.639  0.00  0.00    +0.000 OA
BRANCH  26  27
ATOM     27  C   UNL     1       2.064   3.827  19.108  0.00  0.00    +0.000 C 
ATOM     28  C   UNL     1       1.493   4.218  17.735  0.00  0.00    +0.000 C 
ATOM     29  C   UNL     1       2.953   2.587  18.914  0.00  0.00    +0.000 C 
ATOM     30  C   UNL     1       0.963   3.462  20.107  0.00  0.00    +0.000 C 
ENDBRANCH  26  27
ENDBRANCH  24  26
ENDBRANCH  21  24
ENDBRANCH  17  18
ENDBRANCH  16  17
ENDBRANCH   2  16
TORSDOF 8
ENDMDL
MODEL 5
REMARK VINA RESULT:      -7.2      3.581      9.939
REMARK  Name = 
REMARK  13 active torsions:
REMARK  status: ('A' for Active; 'I' for Inactive)
REMARK    1  A    between atoms: C_1  and  C_2
REMARK    2  A    between atoms: N_4  and  C_5
REMARK    3  A    between atoms: C_6  and  N_7
REMARK    4  A    between atoms: C_13  and  C_14
REMARK    5  A    between atoms: N_15  and  O_16
REMARK    6  A    between atoms: O_16  and  C_17
REMARK    7  A    between atoms: C_17  and  C_18
REMARK    8  A    between atoms: C_21  and  C_22
REMARK    9  A    between atoms: C_22  and  O_24
REMARK   10  A    between atoms: O_24  and  C_25
REMARK   11  A    between atoms: C_25  and  C_26
REMARK   12  A    between atoms: C_25  and  C_27
REMARK   13  A    between atoms: C_25  and  C_28
REMARK                            x       y       z     vdW  Elec       q    Type
REMARK                         _______ _______ _______ _____ _____    ______ ____
ROOT
ATOM      1  C   UNL     1      -0.148  11.185  20.134  0.00  0.00    +0.000 C 
ATOM      2  N   UNL     1       0.981  10.631  19.819  0.00  0.00    +0.000 NA
ENDROOT
BRANCH   1   9
ATOM      3  C   UNL     1      -1.327  10.972  23.135  0.00  0.00    +0.000 C 
ATOM      4  C   UNL     1      -0.700  12.134  22.460  0.00  0.00    +0.000 A 
ATOM      5  N   UNL     1      -0.511  13.268  23.137  0.00  0.00    +0.000 NA
ATOM      6  N   UNL     1       0.053  14.105  22.244  0.00  0.00    +0.000 N 
ATOM      7  C   UNL     1       0.240  15.471  22.675  0.00  0.00    +0.000 C 
ATOM      8  C   UNL     1       0.265  13.533  20.995  0.00  0.00    +0.000 A 
ATOM      9  C   UNL     1      -0.202  12.226  21.136  0.00  0.00    +0.000 A 
BRANCH   8  10
ATOM     10  N   UNL     1       0.786  14.185  19.904  0.00  0.00    +0.000 N 
ATOM     11  C   UNL     1       2.197  14.031  19.492  0.00  0.00    +0.000 C 
ATOM     12  C   UNL     1       2.808  15.423  19.264  0.00  0.00    +0.000 C 
ATOM     13  O   UNL     1       2.077  16.141  18.254  0.00  0.00    +0.000 OA
ATOM     14  C   UNL     1       0.711  16.311  18.659  0.00  0.00    +0.000 C 
ATOM     15  C   UNL     1       0.011  14.967  18.930  0.00  0.00    +0.000 C 
ENDBRANCH   8  10
ENDBRANCH   1   9
BRANCH   2  16
ATOM     16  O   UNL     1       0.731   9.618  18.874  0.00  0.00    +0.000 OA
BRANCH  16  17
ATOM     17  C   UNL     1       1.864   9.484  18.012  0.00  0.00    +0.000 C 
BRANCH  17  18
ATOM     18  C   UNL     1       2.546   8.166  18.285  0.00  0.00    +0.000 A 
ATOM     19  C   UNL     1       2.136   7.390  19.376  0.00  0.00    +0.000 A 
ATOM     20  C   UNL     1       2.738   6.157  19.633  0.00  0.00    +0.000 A 
ATOM     21  C   UNL     1       3.760   5.671  18.808  0.00  0.00    +0.000 A 
ATOM     22  C   UNL     1       4.180   6.439  17.717  0.00  0.00    +0.000 A 
ATOM     23  C   UNL     1       3.573   7.679  17.458  0.00  0.00    +0.000 A 
BRANCH  21  24
ATOM     24  C   UNL     1       4.336   4.346  19.152  0.00  0.00    +0.000 C 
ATOM     25  O   UNL     1       5.531   4.126  19.023  0.00  0.00    +0.000 OA
BRANCH  24  26
ATOM     26  O   UNL     1       3.411   3.458  19.596  0.00  0.00    +0.000 OA
BRANCH  26  27
ATOM     27  C   UNL     1       2.758   2.588  18.624  0.00  0.00    +0.000 C 
ATOM     28  C   UNL     1       2.708   3.242  17.233  0.00  0.00    +0.000 C 
ATOM     29  C   UNL     1       3.629   1.325  18.521  0.00  0.00    +0.000 C 
ATOM     30  C   UNL     1       1.369   2.161  19.110  0.00  0.00    +0.000 C 
ENDBRANCH  26  27
ENDBRANCH  24  26
ENDBRANCH  21  24
ENDBRANCH  17  18
ENDBRANCH  16  17
ENDBRANCH   2  16
TORSDOF 8
ENDMDL
MODEL 6
REMARK VINA RESULT:      -7.2      0.263      1.220
REMARK  Name = 
REMARK  13 active torsions:
REMARK  status: ('A' for Active; 'I' for Inactive)
REMARK    1  A    between atoms: C_1  and  C_2
REMARK    2  A    between atoms: N_4  and  C_5
REMARK    3  A    between atoms: C_6  and  N_7
REMARK    4  A    between atoms: C_13  and  C_14
REMARK    5  A    between atoms: N_15  and  O_16
REMARK    6  A    between atoms: O_16  and  C_17
REMARK    7  A    between atoms: C_17  and  C_18
REMARK    8  A    between atoms: C_21  and  C_22
REMARK    9  A    between atoms: C_22  and  O_24
REMARK   10  A    between atoms: O_24  and  C_25
REMARK   11  A    between atoms: C_25  and  C_26
REMARK   12  A    between atoms: C_25  and  C_27
REMARK   13  A    between atoms: C_25  and  C_28
REMARK                            x       y       z     vdW  Elec       q    Type
REMARK                         _______ _______ _______ _____ _____    ______ ____
ROOT
ATOM      1  C   UNL     1       2.942   6.486  19.092  0.00  0.00    +0.000 C 
ATOM      2  N   UNL     1       2.328   7.206  18.207  0.00  0.00    +0.000 NA
ENDROOT
BRANCH   1   9
ATOM      3  C   UNL     1       0.888   4.362  20.402  0.00  0.00    +0.000 C 
ATOM      4  C   UNL     1       2.062   4.108  19.532  0.00  0.00    +0.000 A 
ATOM      5  N   UNL     1       2.342   2.863  19.147  0.00  0.00    +0.000 NA
ATOM      6  N   UNL     1       3.454   2.983  18.396  0.00  0.00    +0.000 N 
ATOM      7  C   UNL     1       4.068   1.751  17.957  0.00  0.00    +0.000 C 
ATOM      8  C   UNL     1       3.897   4.292  18.254  0.00  0.00    +0.000 A 
ATOM      9  C   UNL     1       2.970   5.045  18.976  0.00  0.00    +0.000 A 
BRANCH   8  10
ATOM     10  N   UNL     1       5.027   4.677  17.573  0.00  0.00    +0.000 N 
ATOM     11  C   UNL     1       5.066   4.767  16.099  0.00  0.00    +0.000 C 
ATOM     12  C   UNL     1       6.314   4.030  15.584  0.00  0.00    +0.000 C 
ATOM     13  O   UNL     1       7.510   4.601  16.144  0.00  0.00    +0.000 OA
ATOM     14  C   UNL     1       7.484   4.498  17.575  0.00  0.00    +0.000 C 
ATOM     15  C   UNL     1       6.257   5.194  18.190  0.00  0.00    +0.000 C 
ENDBRANCH   8  10
ENDBRANCH   1   9
BRANCH   2  16
ATOM     16  O   UNL     1       2.405   8.556  18.601  0.00  0.00    +0.000 OA
BRANCH  16  17
ATOM     17  C   UNL     1       1.190   9.223  18.247  0.00  0.00    +0.000 C 
BRANCH  17  18
ATOM     18  C   UNL     1       0.607   9.881  19.472  0.00  0.00    +0.000 A 
ATOM     19  C   UNL     1      -0.099  11.084  19.340  0.00  0.00    +0.000 A 
ATOM     20  C   UNL     1      -0.665  11.697  20.459  0.00  0.00    +0.000 A 
ATOM     21  C   UNL     1      -0.544  11.124  21.731  0.00  0.00    +0.000 A 
ATOM     22  C   UNL     1       0.161   9.925  21.875  0.00  0.00    +0.000 A 
ATOM     23  C   UNL     1       0.730   9.307  20.750  0.00  0.00    +0.000 A 
BRANCH  21  24
ATOM     24  C   UNL     1      -1.187  11.843  22.861  0.00  0.00    +0.000 C 
ATOM     25  O   UNL     1      -2.253  11.465  23.322  0.00  0.00    +0.000 OA
BRANCH  24  26
ATOM     26  O   UNL     1      -0.478  12.920  23.285  0.00  0.00    +0.000 OA
BRANCH  26  27
ATOM     27  C   UNL     1      -1.073  14.244  23.144  0.00  0.00    +0.000 C 
ATOM     28  C   UNL     1      -0.223  15.145  22.233  0.00  0.00    +0.000 C 
ATOM     29  C   UNL     1      -2.436  14.035  22.464  0.00  0.00    +0.000 C 
ATOM     30  C   UNL     1      -1.325  14.885  24.513  0.00  0.00    +0.000 C 
ENDBRANCH  26  27
ENDBRANCH  24  26
ENDBRANCH  21  24
ENDBRANCH  17  18
ENDBRANCH  16  17
ENDBRANCH   2  16
TORSDOF 8
ENDMDL
MODEL 7
REMARK VINA RESULT:      -7.2      3.522      9.724
REMARK  Name = 
REMARK  13 active torsions:
REMARK  status: ('A' for Active; 'I' for Inactive)
REMARK    1  A    between atoms: C_1  and  C_2
REMARK    2  A    between atoms: N_4  and  C_5
REMARK    3  A    between atoms: C_6  and  N_7
REMARK    4  A    between atoms: C_13  and  C_14
REMARK    5  A    between atoms: N_15  and  O_16
REMARK    6  A    between atoms: O_16  and  C_17
REMARK    7  A    between atoms: C_17  and  C_18
REMARK    8  A    between atoms: C_21  and  C_22
REMARK    9  A    between atoms: C_22  and  O_24
REMARK   10  A    between atoms: O_24  and  C_25
REMARK   11  A    between atoms: C_25  and  C_26
REMARK   12  A    between atoms: C_25  and  C_27
REMARK   13  A    between atoms: C_25  and  C_28
REMARK                            x       y       z     vdW  Elec       q    Type
REMARK                         _______ _______ _______ _____ _____    ______ ____
ROOT
ATOM      1  C   UNL     1       0.992  10.984  20.571  0.00  0.00    +0.000 C 
ATOM      2  N   UNL     1       0.729  11.180  19.317  0.00  0.00    +0.000 NA
ENDROOT
BRANCH   1   9
ATOM      3  C   UNL     1      -0.574   9.249  22.803  0.00  0.00    +0.000 C 
ATOM      4  C   UNL     1      -0.582  10.717  22.588  0.00  0.00    +0.000 A 
ATOM      5  N   UNL     1      -1.262  11.503  23.424  0.00  0.00    +0.000 NA
ATOM      6  N   UNL     1      -1.076  12.748  22.944  0.00  0.00    +0.000 N 
ATOM      7  C   UNL     1      -1.827  13.801  23.586  0.00  0.00    +0.000 C 
ATOM      8  C   UNL     1      -0.261  12.800  21.820  0.00  0.00    +0.000 A 
ATOM      9  C   UNL     1       0.093  11.469  21.594  0.00  0.00    +0.000 A 
BRANCH   8  10
ATOM     10  N   UNL     1       0.051  13.941  21.120  0.00  0.00    +0.000 N 
ATOM     11  C   UNL     1      -0.822  14.477  20.056  0.00  0.00    +0.000 C 
ATOM     12  C   UNL     1       0.030  14.774  18.811  0.00  0.00    +0.000 C 
ATOM     13  O   UNL     1       1.068  15.721  19.118  0.00  0.00    +0.000 OA
ATOM     14  C   UNL     1       1.930  15.197  20.139  0.00  0.00    +0.000 C 
ATOM     15  C   UNL     1       1.166  14.849  21.428  0.00  0.00    +0.000 C 
ENDBRANCH   8  10
ENDBRANCH   1   9
BRANCH   2  16
ATOM     16  O   UNL     1       1.794  10.664  18.554  0.00  0.00    +0.000 OA
BRANCH  16  17
ATOM     17  C   UNL     1       1.339   9.530  17.810  0.00  0.00    +0.000 C 
BRANCH  17  18
ATOM     18  C   UNL     1       2.143   8.317  18.208  0.00  0.00    +0.000 A 
ATOM     19  C   UNL     1       3.187   7.881  17.384  0.00  0.00    +0.000 A 
ATOM     20  C   UNL     1       3.958   6.774  17.746  0.00  0.00    +0.000 A 
ATOM     21  C   UNL     1       3.706   6.082  18.936  0.00  0.00    +0.000 A 
ATOM     22  C   UNL     1       2.663   6.507  19.766  0.00  0.00    +0.000 A 
ATOM     23  C   UNL     1       1.889   7.621  19.403  0.00  0.00    +0.000 A 
BRANCH  21  24
ATOM     24  C   UNL     1       4.582   4.922  19.244  0.00  0.00    +0.000 C 
ATOM     25  O   UNL     1       5.791   5.058  19.352  0.00  0.00    +0.000 OA
BRANCH  24  26
ATOM     26  O   UNL     1       3.901   3.755  19.372  0.00  0.00    +0.000 OA
BRANCH  26  27
ATOM     27  C   UNL     1       3.449   3.076  18.162  0.00  0.00    +0.000 C 
ATOM     28  C   UNL     1       4.392   3.352  16.980  0.00  0.00    +0.000 C 
ATOM     29  C   UNL     1       3.500   1.570  18.468  0.00  0.00    +0.000 C 
ATOM     30  C   UNL     1       1.996   3.439  17.837  0.00  0.00    +0.000 C 
ENDBRANCH  26  27
ENDBRANCH  24  26
ENDBRANCH  21  24
ENDBRANCH  17  18
ENDBRANCH  16  17
ENDBRANCH   2  16
TORSDOF 8
ENDMDL
MODEL 8
REMARK VINA RESULT:      -7.2      2.312      3.606
REMARK  Name = 
REMARK  13 active torsions:
REMARK  status: ('A' for Active; 'I' for Inactive)
REMARK    1  A    between atoms: C_1  and  C_2
REMARK    2  A    between atoms: N_4  and  C_5
REMARK    3  A    between atoms: C_6  and  N_7
REMARK    4  A    between atoms: C_13  and  C_14
REMARK    5  A    between atoms: N_15  and  O_16
REMARK    6  A    between atoms: O_16  and  C_17
REMARK    7  A    between atoms: C_17  and  C_18
REMARK    8  A    between atoms: C_21  and  C_22
REMARK    9  A    between atoms: C_22  and  O_24
REMARK   10  A    between atoms: O_24  and  C_25
REMARK   11  A    between atoms: C_25  and  C_26
REMARK   12  A    between atoms: C_25  and  C_27
REMARK   13  A    between atoms: C_25  and  C_28
REMARK                            x       y       z     vdW  Elec       q    Type
REMARK                         _______ _______ _______ _____ _____    ______ ____
ROOT
ATOM      1  C   UNL     1       3.159   6.003  19.159  0.00  0.00    +0.000 C 
ATOM      2  N   UNL     1       2.816   6.728  18.141  0.00  0.00    +0.000 NA
ENDROOT
BRANCH   1   9
ATOM      3  C   UNL     1       1.215   3.919  20.683  0.00  0.00    +0.000 C 
ATOM      4  C   UNL     1       2.304   3.641  19.715  0.00  0.00    +0.000 A 
ATOM      5  N   UNL     1       2.538   2.387  19.327  0.00  0.00    +0.000 NA
ATOM      6  N   UNL     1       3.579   2.485  18.477  0.00  0.00    +0.000 N 
ATOM      7  C   UNL     1       4.141   1.241  18.006  0.00  0.00    +0.000 C 
ATOM      8  C   UNL     1       4.018   3.788  18.275  0.00  0.00    +0.000 A 
ATOM      9  C   UNL     1       3.165   4.560  19.064  0.00  0.00    +0.000 A 
BRANCH   8  10
ATOM     10  N   UNL     1       5.084   4.151  17.488  0.00  0.00    +0.000 N 
ATOM     11  C   UNL     1       6.409   4.476  18.055  0.00  0.00    +0.000 C 
ATOM     12  C   UNL     1       6.899   5.804  17.457  0.00  0.00    +0.000 C 
ATOM     13  O   UNL     1       6.987   5.716  16.024  0.00  0.00    +0.000 OA
ATOM     14  C   UNL     1       5.697   5.420  15.467  0.00  0.00    +0.000 C 
ATOM     15  C   UNL     1       5.109   4.110  16.018  0.00  0.00    +0.000 C 
ENDBRANCH   8  10
ENDBRANCH   1   9
BRANCH   2  16
ATOM     16  O   UNL     1       2.838   8.081  18.531  0.00  0.00    +0.000 OA
BRANCH  16  17
ATOM     17  C   UNL     1       2.097   8.235  19.745  0.00  0.00    +0.000 C 
BRANCH  17  18
ATOM     18  C   UNL     1       0.946   9.182  19.511  0.00  0.00    +0.000 A 
ATOM     19  C   UNL     1       0.711   9.677  18.222  0.00  0.00    +0.000 A 
ATOM     20  C   UNL     1      -0.362  10.536  17.980  0.00  0.00    +0.000 A 
ATOM     21  C   UNL     1      -1.225  10.917  19.014  0.00  0.00    +0.000 A 
ATOM     22  C   UNL     1      -0.999  10.431  20.306  0.00  0.00    +0.000 A 
ATOM     23  C   UNL     1       0.081   9.566  20.550  0.00  0.00    +0.000 A 
BRANCH  21  24
ATOM     24  C   UNL     1      -2.345  11.827  18.662  0.00  0.00    +0.000 C 
ATOM     25  O   UNL     1      -2.964  12.428  19.526  0.00  0.00    +0.000 OA
BRANCH  24  26
ATOM     26  O   UNL     1      -2.583  11.893  17.327  0.00  0.00    +0.000 OA
BRANCH  26  27
ATOM     27  C   UNL     1      -3.691  11.119  16.778  0.00  0.00    +0.000 C 
ATOM     28  C   UNL     1      -3.447  10.760  15.303  0.00  0.00    +0.000 C 
ATOM     29  C   UNL     1      -3.741   9.809  17.581  0.00  0.00    +0.000 C 
ATOM     30  C   UNL     1      -5.025  11.844  16.981  0.00  0.00    +0.000 C 
ENDBRANCH  26  27
ENDBRANCH  24  26
ENDBRANCH  21  24
ENDBRANCH  17  18
ENDBRANCH  16  17
ENDBRANCH   2  16
TORSDOF 8
ENDMDL
MODEL 9
REMARK VINA RESULT:      -7.1      4.226     10.631
REMARK  Name = 
REMARK  13 active torsions:
REMARK  status: ('A' for Active; 'I' for Inactive)
REMARK    1  A    between atoms: C_1  and  C_2
REMARK    2  A    between atoms: N_4  and  C_5
REMARK    3  A    between atoms: C_6  and  N_7
REMARK    4  A    between atoms: C_13  and  C_14
REMARK    5  A    between atoms: N_15  and  O_16
REMARK    6  A    between atoms: O_16  and  C_17
REMARK    7  A    between atoms: C_17  and  C_18
REMARK    8  A    between atoms: C_21  and  C_22
REMARK    9  A    between atoms: C_22  and  O_24
REMARK   10  A    between atoms: O_24  and  C_25
REMARK   11  A    between atoms: C_25  and  C_26
REMARK   12  A    between atoms: C_25  and  C_27
REMARK   13  A    between atoms: C_25  and  C_28
REMARK                            x       y       z     vdW  Elec       q    Type
REMARK                         _______ _______ _______ _____ _____    ______ ____
ROOT
ATOM      1  C   UNL     1      -2.480  10.515  18.606  0.00  0.00    +0.000 C 
ATOM      2  N   UNL     1      -1.384  11.155  18.869  0.00  0.00    +0.000 NA
ENDROOT
BRANCH   1   9
ATOM      3  C   UNL     1      -2.869  10.462  15.399  0.00  0.00    +0.000 C 
ATOM      4  C   UNL     1      -3.718  11.107  16.430  0.00  0.00    +0.000 A 
ATOM      5  N   UNL     1      -4.844  11.722  16.068  0.00  0.00    +0.000 NA
ATOM      6  N   UNL     1      -5.353  12.201  17.220  0.00  0.00    +0.000 N 
ATOM      7  C   UNL     1      -6.518  13.046  17.104  0.00  0.00    +0.000 C 
ATOM      8  C   UNL     1      -4.595  11.887  18.342  0.00  0.00    +0.000 A 
ATOM      9  C   UNL     1      -3.530  11.142  17.835  0.00  0.00    +0.000 A 
BRANCH   8  10
ATOM     10  N   UNL     1      -4.876  12.290  19.625  0.00  0.00    +0.000 N 
ATOM     11  C   UNL     1      -6.001  11.729  20.400  0.00  0.00    +0.000 C 
ATOM     12  C   UNL     1      -6.814  12.882  21.011  0.00  0.00    +0.000 C 
ATOM     13  O   UNL     1      -5.987  13.693  21.864  0.00  0.00    +0.000 OA
ATOM     14  C   UNL     1      -4.902  14.256  21.111  0.00  0.00    +0.000 C 
ATOM     15  C   UNL     1      -4.033  13.177  20.441  0.00  0.00    +0.000 C 
ENDBRANCH   8  10
ENDBRANCH   1   9
BRANCH   2  16
ATOM     16  O   UNL     1      -0.575  10.337  19.681  0.00  0.00    +0.000 OA
BRANCH  16  17
ATOM     17  C   UNL     1       0.801  10.568  19.364  0.00  0.00    +0.000 C 
BRANCH  17  18
ATOM     18  C   UNL     1       1.485   9.246  19.120  0.00  0.00    +0.000 A 
ATOM     19  C   UNL     1       2.029   8.972  17.859  0.00  0.00    +0.000 A 
ATOM     20  C   UNL     1       2.686   7.764  17.619  0.00  0.00    +0.000 A 
ATOM     21  C   UNL     1       2.818   6.806  18.631  0.00  0.00    +0.000 A 
ATOM     22  C   UNL     1       2.277   7.067  19.894  0.00  0.00    +0.000 A 
ATOM     23  C   UNL     1       1.617   8.283  20.136  0.00  0.00    +0.000 A 
BRANCH  21  24
ATOM     24  C   UNL     1       3.541   5.553  18.288  0.00  0.00    +0.000 C 
ATOM     25  O   UNL     1       4.302   5.507  17.334  0.00  0.00    +0.000 OA
BRANCH  24  26
ATOM     26  O   UNL     1       3.252   4.522  19.122  0.00  0.00    +0.000 OA
BRANCH  26  27
ATOM     27  C   UNL     1       2.342   3.482  18.654  0.00  0.00    +0.000 C 
ATOM     28  C   UNL     1       1.500   2.915  19.809  0.00  0.00    +0.000 C 
ATOM     29  C   UNL     1       1.385   4.162  17.661  0.00  0.00    +0.000 C 
ATOM     30  C   UNL     1       3.099   2.385  17.899  0.00  0.00    +0.000 C 
ENDBRANCH  26  27
ENDBRANCH  24  26
ENDBRANCH  21  24
ENDBRANCH  17  18
ENDBRANCH  16  17
ENDBRANCH   2  16
TORSDOF 8
ENDMDL
