MODEL 1
REMARK VINA RESULT:      -8.4      0.000      0.000
REMARK  Name = 
REMARK  3 active torsions:
REMARK  status: ('A' for Active; 'I' for Inactive)
REMARK    1  A    between atoms: C_5  and  C_6
REMARK    2  A    between atoms: C_5  and  C_13
REMARK    3  A    between atoms: C_7  and  C_8
REMARK                            x       y       z     vdW  Elec       q    Type
REMARK                         _______ _______ _______ _____ _____    ______ ____
ROOT
ATOM      1  O   UNL     1       5.823   2.760  15.074  0.00  0.00    +0.000 OA
ATOM      2  C   UNL     1       5.995   3.790  15.730  0.00  0.00    +0.000 C 
ATOM      3  C   UNL     1       7.128   4.773  15.377  0.00  0.00    +0.000 C 
ATOM      4  O   UNL     1       7.221   6.097  15.845  0.00  0.00    +0.000 OA
ATOM      5  C   UNL     1       6.910   6.303  17.228  0.00  0.00    +0.000 C 
ATOM      6  C   UNL     1       5.384   6.378  17.320  0.00  0.00    +0.000 A 
ATOM      7  C   UNL     1       4.674   7.574  17.587  0.00  0.00    +0.000 A 
ATOM      8  C   UNL     1       3.300   7.554  17.842  0.00  0.00    +0.000 A 
ATOM      9 CL   UNL     1       2.473   9.023  18.188  0.00  0.00    +0.000 Cl
ATOM     10  C   UNL     1       2.606   6.352  17.837  0.00  0.00    +0.000 A 
ATOM     11  C   UNL     1       3.281   5.171  17.527  0.00  0.00    +0.000 A 
ATOM     12  C   UNL     1       4.648   5.210  17.204  0.00  0.00    +0.000 A 
ATOM     13  N   UNL     1       5.265   3.980  16.870  0.00  0.00    +0.000 N 
ATOM     14  H   UNL     1       4.739   3.138  17.108  0.00  0.00    +0.000 HD
ENDROOT
BRANCH   5  15
ATOM     15  C   UNL     1       7.545   5.281  18.313  0.00  0.00    +0.000 C 
ATOM     16  F   UNL     1       8.237   4.273  17.728  0.00  0.00    +0.000 F 
ATOM     17  F   UNL     1       8.423   5.890  19.157  0.00  0.00    +0.000 F 
ATOM     18  F   UNL     1       6.631   4.700  19.128  0.00  0.00    +0.000 F 
ENDBRANCH   5  15
BRANCH   5  19
ATOM     19  C   UNL     1       7.519   7.640  17.622  0.00  0.00    +0.000 C 
ATOM     20  C   UNL     1       8.040   8.785  17.959  0.00  0.00    +0.000 C 
BRANCH  20  21
ATOM     21  C   UNL     1       8.599  10.036  18.346  0.00  0.00    +0.000 A 
ATOM     22  C   UNL     1       9.428  10.303  19.451  0.00  0.00    +0.000 A 
ATOM     23  C   UNL     1       9.721  11.649  19.397  0.00  0.00    +0.000 A 
ATOM     24  O   UNL     1       9.109  12.218  18.324  0.00  0.00    +0.000 OA
ATOM     25  C   UNL     1       8.428  11.230  17.687  0.00  0.00    +0.000 A 
ENDBRANCH  20  21
ENDBRANCH   5  19
TORSDOF 3
ENDMDL
MODEL 2
REMARK VINA RESULT:      -8.3      0.411      1.072
REMARK  Name = 
REMARK  3 active torsions:
REMARK  status: ('A' for Active; 'I' for Inactive)
REMARK    1  A    between atoms: C_5  and  C_6
REMARK    2  A    between atoms: C_5  and  C_13
REMARK    3  A    between atoms: C_7  and  C_8
REMARK                            x       y       z     vdW  Elec       q    Type
REMARK                         _______ _______ _______ _____ _____    ______ ____
ROOT
ATOM      1  O   UNL     1       5.935   2.854  15.059  0.00  0.00    +0.000 OA
ATOM      2  C   UNL     1       6.098   3.878  15.728  0.00  0.00    +0.000 C 
ATOM      3  C   UNL     1       7.226   4.872  15.390  0.00  0.00    +0.000 C 
ATOM      4  O   UNL     1       7.309   6.191  15.875  0.00  0.00    +0.000 OA
ATOM      5  C   UNL     1       6.993   6.378  17.259  0.00  0.00    +0.000 C 
ATOM      6  C   UNL     1       5.466   6.442  17.347  0.00  0.00    +0.000 A 
ATOM      7  C   UNL     1       4.748   7.631  17.626  0.00  0.00    +0.000 A 
ATOM      8  C   UNL     1       3.373   7.599  17.876  0.00  0.00    +0.000 A 
ATOM      9 CL   UNL     1       2.536   9.059  18.237  0.00  0.00    +0.000 Cl
ATOM     10  C   UNL     1       2.687   6.393  17.855  0.00  0.00    +0.000 A 
ATOM     11  C   UNL     1       3.370   5.219  17.533  0.00  0.00    +0.000 A 
ATOM     12  C   UNL     1       4.738   5.271  17.215  0.00  0.00    +0.000 A 
ATOM     13  N   UNL     1       5.364   4.050  16.868  0.00  0.00    +0.000 N 
ATOM     14  H   UNL     1       4.843   3.201  17.095  0.00  0.00    +0.000 HD
ENDROOT
BRANCH   5  15
ATOM     15  C   UNL     1       7.631   5.348  18.333  0.00  0.00    +0.000 C 
ATOM     16  F   UNL     1       8.542   5.942  19.141  0.00  0.00    +0.000 F 
ATOM     17  F   UNL     1       6.696   4.811  19.165  0.00  0.00    +0.000 F 
ATOM     18  F   UNL     1       8.250   4.278  17.775  0.00  0.00    +0.000 F 
ENDBRANCH   5  15
BRANCH   5  19
ATOM     19  C   UNL     1       7.592   7.714  17.670  0.00  0.00    +0.000 C 
ATOM     20  C   UNL     1       8.104   8.859  18.022  0.00  0.00    +0.000 C 
BRANCH  20  21
ATOM     21  C   UNL     1       8.657  10.119  18.389  0.00  0.00    +0.000 A 
ATOM     22  C   UNL     1       8.565  11.335  17.688  0.00  0.00    +0.000 A 
ATOM     23  C   UNL     1       9.244  12.268  18.443  0.00  0.00    +0.000 A 
ATOM     24  O   UNL     1       9.751  11.683  19.561  0.00  0.00    +0.000 OA
ATOM     25  C   UNL     1       9.390  10.374  19.523  0.00  0.00    +0.000 A 
ENDBRANCH  20  21
ENDBRANCH   5  19
TORSDOF 3
ENDMDL
MODEL 3
REMARK VINA RESULT:      -7.9      4.311      5.870
REMARK  Name = 
REMARK  3 active torsions:
REMARK  status: ('A' for Active; 'I' for Inactive)
REMARK    1  A    between atoms: C_5  and  C_6
REMARK    2  A    between atoms: C_5  and  C_13
REMARK    3  A    between atoms: C_7  and  C_8
REMARK                            x       y       z     vdW  Elec       q    Type
REMARK                         _______ _______ _______ _____ _____    ______ ____
ROOT
ATOM      1  O   UNL     1       4.167   0.682  18.728  0.00  0.00    +0.000 OA
ATOM      2  C   UNL     1       3.916   1.889  18.715  0.00  0.00    +0.000 C 
ATOM      3  C   UNL     1       3.202   2.560  19.905  0.00  0.00    +0.000 C 
ATOM      4  O   UNL     1       3.145   3.948  20.132  0.00  0.00    +0.000 OA
ATOM      5  C   UNL     1       2.897   4.768  18.984  0.00  0.00    +0.000 C 
ATOM      6  C   UNL     1       4.244   4.938  18.277  0.00  0.00    +0.000 A 
ATOM      7  C   UNL     1       4.971   6.154  18.260  0.00  0.00    +0.000 A 
ATOM      8  C   UNL     1       6.100   6.307  17.451  0.00  0.00    +0.000 A 
ATOM      9 CL   UNL     1       6.944   7.807  17.435  0.00  0.00    +0.000 Cl
ATOM     10  C   UNL     1       6.528   5.261  16.645  0.00  0.00    +0.000 A 
ATOM     11  C   UNL     1       5.853   4.041  16.688  0.00  0.00    +0.000 A 
ATOM     12  C   UNL     1       4.761   3.874  17.556  0.00  0.00    +0.000 A 
ATOM     13  N   UNL     1       4.140   2.603  17.572  0.00  0.00    +0.000 N 
ATOM     14  H   UNL     1       4.378   1.980  16.798  0.00  0.00    +0.000 HD
ENDROOT
BRANCH   5  15
ATOM     15  C   UNL     1       1.719   4.320  17.967  0.00  0.00    +0.000 C 
ATOM     16  F   UNL     1       0.798   3.524  18.563  0.00  0.00    +0.000 F 
ATOM     17  F   UNL     1       1.023   5.380  17.470  0.00  0.00    +0.000 F 
ATOM     18  F   UNL     1       2.156   3.651  16.872  0.00  0.00    +0.000 F 
ENDBRANCH   5  15
BRANCH   5  19
ATOM     19  C   UNL     1       2.410   6.113  19.500  0.00  0.00    +0.000 C 
ATOM     20  C   UNL     1       1.993   7.265  19.944  0.00  0.00    +0.000 C 
BRANCH  20  21
ATOM     21  C   UNL     1       1.519   8.514  20.434  0.00  0.00    +0.000 A 
ATOM     22  C   UNL     1       1.036   9.605  19.688  0.00  0.00    +0.000 A 
ATOM     23  C   UNL     1       0.683  10.573  20.604  0.00  0.00    +0.000 A 
ATOM     24  O   UNL     1       0.932  10.134  21.867  0.00  0.00    +0.000 OA
ATOM     25  C   UNL     1       1.440   8.879  21.757  0.00  0.00    +0.000 A 
ENDBRANCH  20  21
ENDBRANCH   5  19
TORSDOF 3
ENDMDL
MODEL 4
REMARK VINA RESULT:      -7.7      3.947      5.648
REMARK  Name = 
REMARK  3 active torsions:
REMARK  status: ('A' for Active; 'I' for Inactive)
REMARK    1  A    between atoms: C_5  and  C_6
REMARK    2  A    between atoms: C_5  and  C_13
REMARK    3  A    between atoms: C_7  and  C_8
REMARK                            x       y       z     vdW  Elec       q    Type
REMARK                         _______ _______ _______ _____ _____    ______ ____
ROOT
ATOM      1  O   UNL     1       4.722   1.442  20.039  0.00  0.00    +0.000 OA
ATOM      2  C   UNL     1       4.434   2.575  19.647  0.00  0.00    +0.000 C 
ATOM      3  C   UNL     1       3.470   3.469  20.452  0.00  0.00    +0.000 C 
ATOM      4  O   UNL     1       3.317   4.856  20.270  0.00  0.00    +0.000 OA
ATOM      5  C   UNL     1       3.276   5.317  18.914  0.00  0.00    +0.000 C 
ATOM      6  C   UNL     1       4.730   5.416  18.448  0.00  0.00    +0.000 A 
ATOM      7  C   UNL     1       5.399   6.645  18.228  0.00  0.00    +0.000 A 
ATOM      8  C   UNL     1       6.662   6.681  17.629  0.00  0.00    +0.000 A 
ATOM      9 CL   UNL     1       7.435   8.193  17.354  0.00  0.00    +0.000 Cl
ATOM     10  C   UNL     1       7.283   5.502  17.239  0.00  0.00    +0.000 A 
ATOM     11  C   UNL     1       6.659   4.280  17.493  0.00  0.00    +0.000 A 
ATOM     12  C   UNL     1       5.421   4.251  18.158  0.00  0.00    +0.000 A 
ATOM     13  N   UNL     1       4.857   2.978  18.411  0.00  0.00    +0.000 N 
ATOM     14  H   UNL     1       5.269   2.197  17.898  0.00  0.00    +0.000 HD
ENDROOT
BRANCH   5  15
ATOM     15  C   UNL     1       2.344   4.511  17.863  0.00  0.00    +0.000 C 
ATOM     16  F   UNL     1       1.755   3.426  18.423  0.00  0.00    +0.000 F 
ATOM     17  F   UNL     1       1.326   5.271  17.374  0.00  0.00    +0.000 F 
ATOM     18  F   UNL     1       3.002   4.069  16.764  0.00  0.00    +0.000 F 
ENDBRANCH   5  15
BRANCH   5  19
ATOM     19  C   UNL     1       2.645   6.701  18.939  0.00  0.00    +0.000 C 
ATOM     20  C   UNL     1       2.104   7.886  18.961  0.00  0.00    +0.000 C 
BRANCH  20  21
ATOM     21  C   UNL     1       1.497   9.173  18.996  0.00  0.00    +0.000 A 
ATOM     22  C   UNL     1       0.577   9.665  19.939  0.00  0.00    +0.000 A 
ATOM     23  C   UNL     1       0.291  10.960  19.561  0.00  0.00    +0.000 A 
ATOM     24  O   UNL     1       0.982  11.280  18.435  0.00  0.00    +0.000 OA
ATOM     25  C   UNL     1       1.715  10.188  18.095  0.00  0.00    +0.000 A 
ENDBRANCH  20  21
ENDBRANCH   5  19
TORSDOF 3
ENDMDL
MODEL 5
REMARK VINA RESULT:      -7.7      3.999      5.669
REMARK  Name = 
REMARK  3 active torsions:
REMARK  status: ('A' for Active; 'I' for Inactive)
REMARK    1  A    between atoms: C_5  and  C_6
REMARK    2  A    between atoms: C_5  and  C_13
REMARK    3  A    between atoms: C_7  and  C_8
REMARK                            x       y       z     vdW  Elec       q    Type
REMARK                         _______ _______ _______ _____ _____    ______ ____
ROOT
ATOM      1  O   UNL     1       4.846   1.442  20.027  0.00  0.00    +0.000 OA
ATOM      2  C   UNL     1       4.541   2.574  19.644  0.00  0.00    +0.000 C 
ATOM      3  C   UNL     1       3.552   3.441  20.448  0.00  0.00    +0.000 C 
ATOM      4  O   UNL     1       3.375   4.827  20.281  0.00  0.00    +0.000 OA
ATOM      5  C   UNL     1       3.340   5.303  18.930  0.00  0.00    +0.000 C 
ATOM      6  C   UNL     1       4.797   5.435  18.482  0.00  0.00    +0.000 A 
ATOM      7  C   UNL     1       5.446   6.678  18.284  0.00  0.00    +0.000 A 
ATOM      8  C   UNL     1       6.714   6.744  17.700  0.00  0.00    +0.000 A 
ATOM      9 CL   UNL     1       7.462   8.274  17.451  0.00  0.00    +0.000 Cl
ATOM     10  C   UNL     1       7.361   5.583  17.303  0.00  0.00    +0.000 A 
ATOM     11  C   UNL     1       6.758   4.346  17.536  0.00  0.00    +0.000 A 
ATOM     12  C   UNL     1       5.513   4.286  18.186  0.00  0.00    +0.000 A 
ATOM     13  N   UNL     1       4.971   2.999  18.418  0.00  0.00    +0.000 N 
ATOM     14  H   UNL     1       5.403   2.233  17.901  0.00  0.00    +0.000 HD
ENDROOT
BRANCH   5  15
ATOM     15  C   UNL     1       2.435   4.492  17.859  0.00  0.00    +0.000 C 
ATOM     16  F   UNL     1       1.350   5.198  17.461  0.00  0.00    +0.000 F 
ATOM     17  F   UNL     1       3.116   4.188  16.720  0.00  0.00    +0.000 F 
ATOM     18  F   UNL     1       1.975   3.300  18.313  0.00  0.00    +0.000 F 
ENDBRANCH   5  15
BRANCH   5  19
ATOM     19  C   UNL     1       2.683   6.674  18.964  0.00  0.00    +0.000 C 
ATOM     20  C   UNL     1       2.119   7.848  18.993  0.00  0.00    +0.000 C 
BRANCH  20  21
ATOM     21  C   UNL     1       1.487   9.124  19.012  0.00  0.00    +0.000 A 
ATOM     22  C   UNL     1       1.700  10.202  18.134  0.00  0.00    +0.000 A 
ATOM     23  C   UNL     1       0.851  11.207  18.545  0.00  0.00    +0.000 A 
ATOM     24  O   UNL     1       0.138  10.802  19.630  0.00  0.00    +0.000 OA
ATOM     25  C   UNL     1       0.530   9.532  19.910  0.00  0.00    +0.000 A 
ENDBRANCH  20  21
ENDBRANCH   5  19
TORSDOF 3
ENDMDL
MODEL 6
REMARK VINA RESULT:      -7.5      4.235      5.645
REMARK  Name = 
REMARK  3 active torsions:
REMARK  status: ('A' for Active; 'I' for Inactive)
REMARK    1  A    between atoms: C_5  and  C_6
REMARK    2  A    between atoms: C_5  and  C_13
REMARK    3  A    between atoms: C_7  and  C_8
REMARK                            x       y       z     vdW  Elec       q    Type
REMARK                         _______ _______ _______ _____ _____    ______ ____
ROOT
ATOM      1  O   UNL     1       0.724   2.490  21.179  0.00  0.00    +0.000 OA
ATOM      2  C   UNL     1       1.508   3.028  20.393  0.00  0.00    +0.000 C 
ATOM      3  C   UNL     1       1.893   2.343  19.067  0.00  0.00    +0.000 C 
ATOM      4  O   UNL     1       2.516   2.984  17.980  0.00  0.00    +0.000 OA
ATOM      5  C   UNL     1       3.578   3.890  18.303  0.00  0.00    +0.000 C 
ATOM      6  C   UNL     1       2.913   5.210  18.701  0.00  0.00    +0.000 A 
ATOM      7  C   UNL     1       2.949   6.377  17.900  0.00  0.00    +0.000 A 
ATOM      8  C   UNL     1       2.487   7.601  18.389  0.00  0.00    +0.000 A 
ATOM      9 CL   UNL     1       2.569   9.005  17.398  0.00  0.00    +0.000 Cl
ATOM     10  C   UNL     1       1.982   7.691  19.679  0.00  0.00    +0.000 A 
ATOM     11  C   UNL     1       1.894   6.541  20.464  0.00  0.00    +0.000 A 
ATOM     12  C   UNL     1       2.297   5.302  19.938  0.00  0.00    +0.000 A 
ATOM     13  N   UNL     1       2.153   4.170  20.776  0.00  0.00    +0.000 N 
ATOM     14  H   UNL     1       1.987   4.366  21.765  0.00  0.00    +0.000 HD
ENDROOT
BRANCH   5  15
ATOM     15  C   UNL     1       4.690   3.409  19.378  0.00  0.00    +0.000 C 
ATOM     16  F   UNL     1       4.618   2.080  19.635  0.00  0.00    +0.000 F 
ATOM     17  F   UNL     1       5.963   3.634  18.954  0.00  0.00    +0.000 F 
ATOM     18  F   UNL     1       4.610   4.038  20.577  0.00  0.00    +0.000 F 
ENDBRANCH   5  15
BRANCH   5  19
ATOM     19  C   UNL     1       4.393   4.083  17.033  0.00  0.00    +0.000 C 
ATOM     20  C   UNL     1       5.090   4.248  15.945  0.00  0.00    +0.000 C 
BRANCH  20  21
ATOM     21  C   UNL     1       5.861   4.409  14.760  0.00  0.00    +0.000 A 
ATOM     22  C   UNL     1       5.691   3.754  13.526  0.00  0.00    +0.000 A 
ATOM     23  C   UNL     1       6.666   4.251  12.688  0.00  0.00    +0.000 A 
ATOM     24  O   UNL     1       7.425   5.168  13.345  0.00  0.00    +0.000 OA
ATOM     25  C   UNL     1       6.930   5.260  14.607  0.00  0.00    +0.000 A 
ENDBRANCH  20  21
ENDBRANCH   5  19
TORSDOF 3
ENDMDL
MODEL 7
REMARK VINA RESULT:      -7.2      4.461      5.700
REMARK  Name = 
REMARK  3 active torsions:
REMARK  status: ('A' for Active; 'I' for Inactive)
REMARK    1  A    between atoms: C_5  and  C_6
REMARK    2  A    between atoms: C_5  and  C_13
REMARK    3  A    between atoms: C_7  and  C_8
REMARK                            x       y       z     vdW  Elec       q    Type
REMARK                         _______ _______ _______ _____ _____    ______ ____
ROOT
ATOM      1  O   UNL     1       0.725   2.530  21.264  0.00  0.00    +0.000 OA
ATOM      2  C   UNL     1       1.499   3.053  20.458  0.00  0.00    +0.000 C 
ATOM      3  C   UNL     1       1.852   2.350  19.132  0.00  0.00    +0.000 C 
ATOM      4  O   UNL     1       2.460   2.974  18.027  0.00  0.00    +0.000 OA
ATOM      5  C   UNL     1       3.537   3.873  18.320  0.00  0.00    +0.000 C 
ATOM      6  C   UNL     1       2.892   5.203  18.717  0.00  0.00    +0.000 A 
ATOM      7  C   UNL     1       2.923   6.362  17.902  0.00  0.00    +0.000 A 
ATOM      8  C   UNL     1       2.481   7.595  18.388  0.00  0.00    +0.000 A 
ATOM      9 CL   UNL     1       2.557   8.988  17.380  0.00  0.00    +0.000 Cl
ATOM     10  C   UNL     1       2.001   7.704  19.686  0.00  0.00    +0.000 A 
ATOM     11  C   UNL     1       1.917   6.562  20.484  0.00  0.00    +0.000 A 
ATOM     12  C   UNL     1       2.299   5.314  19.964  0.00  0.00    +0.000 A 
ATOM     13  N   UNL     1       2.161   4.193  20.817  0.00  0.00    +0.000 N 
ATOM     14  H   UNL     1       2.016   4.400  21.806  0.00  0.00    +0.000 HD
ENDROOT
BRANCH   5  15
ATOM     15  C   UNL     1       4.664   3.393  19.380  0.00  0.00    +0.000 C 
ATOM     16  F   UNL     1       5.899   3.329  18.826  0.00  0.00    +0.000 F 
ATOM     17  F   UNL     1       4.779   4.237  20.442  0.00  0.00    +0.000 F 
ATOM     18  F   UNL     1       4.425   2.178  19.931  0.00  0.00    +0.000 F 
ENDBRANCH   5  15
BRANCH   5  19
ATOM     19  C   UNL     1       4.329   4.045  17.033  0.00  0.00    +0.000 C 
ATOM     20  C   UNL     1       5.007   4.192  15.931  0.00  0.00    +0.000 C 
BRANCH  20  21
ATOM     21  C   UNL     1       5.763   4.338  14.733  0.00  0.00    +0.000 A 
ATOM     22  C   UNL     1       6.944   5.079  14.546  0.00  0.00    +0.000 A 
ATOM     23  C   UNL     1       7.305   4.903  13.227  0.00  0.00    +0.000 A 
ATOM     24  O   UNL     1       6.404   4.101  12.599  0.00  0.00    +0.000 OA
ATOM     25  C   UNL     1       5.467   3.760  13.522  0.00  0.00    +0.000 A 
ENDBRANCH  20  21
ENDBRANCH   5  19
TORSDOF 3
ENDMDL
MODEL 8
REMARK VINA RESULT:      -7.1      3.601      4.929
REMARK  Name = 
REMARK  3 active torsions:
REMARK  status: ('A' for Active; 'I' for Inactive)
REMARK    1  A    between atoms: C_5  and  C_6
REMARK    2  A    between atoms: C_5  and  C_13
REMARK    3  A    between atoms: C_7  and  C_8
REMARK                            x       y       z     vdW  Elec       q    Type
REMARK                         _______ _______ _______ _____ _____    ______ ____
ROOT
ATOM      1  O   UNL     1       6.722   3.675  14.584  0.00  0.00    +0.000 OA
ATOM      2  C   UNL     1       5.963   4.172  15.419  0.00  0.00    +0.000 C 
ATOM      3  C   UNL     1       5.430   5.608  15.248  0.00  0.00    +0.000 C 
ATOM      4  O   UNL     1       4.342   6.154  15.954  0.00  0.00    +0.000 OA
ATOM      5  C   UNL     1       4.279   5.852  17.353  0.00  0.00    +0.000 C 
ATOM      6  C   UNL     1       3.655   4.459  17.466  0.00  0.00    +0.000 A 
ATOM      7  C   UNL     1       2.346   4.225  17.955  0.00  0.00    +0.000 A 
ATOM      8  C   UNL     1       1.894   2.928  18.209  0.00  0.00    +0.000 A 
ATOM      9 CL   UNL     1       0.306   2.681  18.827  0.00  0.00    +0.000 Cl
ATOM     10  C   UNL     1       2.727   1.841  17.984  0.00  0.00    +0.000 A 
ATOM     11  C   UNL     1       4.002   2.050  17.456  0.00  0.00    +0.000 A 
ATOM     12  C   UNL     1       4.423   3.353  17.139  0.00  0.00    +0.000 A 
ATOM     13  N   UNL     1       5.715   3.493  16.579  0.00  0.00    +0.000 N 
ATOM     14  H   UNL     1       6.326   2.679  16.659  0.00  0.00    +0.000 HD
ENDROOT
BRANCH   5  15
ATOM     15  C   UNL     1       5.636   5.993  18.225  0.00  0.00    +0.000 C 
ATOM     16  F   UNL     1       6.336   7.111  17.913  0.00  0.00    +0.000 F 
ATOM     17  F   UNL     1       5.395   6.071  19.563  0.00  0.00    +0.000 F 
ATOM     18  F   UNL     1       6.493   4.951  18.090  0.00  0.00    +0.000 F 
ENDBRANCH   5  15
BRANCH   5  19
ATOM     19  C   UNL     1       3.358   6.884  17.985  0.00  0.00    +0.000 C 
ATOM     20  C   UNL     1       2.569   7.769  18.526  0.00  0.00    +0.000 C 
BRANCH  20  21
ATOM     21  C   UNL     1       1.706   8.746  19.098  0.00  0.00    +0.000 A 
ATOM     22  C   UNL     1       1.134   9.864  18.466  0.00  0.00    +0.000 A 
ATOM     23  C   UNL     1       0.367  10.498  19.421  0.00  0.00    +0.000 A 
ATOM     24  O   UNL     1       0.449   9.830  20.603  0.00  0.00    +0.000 OA
ATOM     25  C   UNL     1       1.265   8.763  20.400  0.00  0.00    +0.000 A 
ENDBRANCH  20  21
ENDBRANCH   5  19
TORSDOF 3
ENDMDL
MODEL 9
REMARK VINA RESULT:      -7.0      3.735      6.446
REMARK  Name = 
REMARK  3 active torsions:
REMARK  status: ('A' for Active; 'I' for Inactive)
REMARK    1  A    between atoms: C_5  and  C_6
REMARK    2  A    between atoms: C_5  and  C_13
REMARK    3  A    between atoms: C_7  and  C_8
REMARK                            x       y       z     vdW  Elec       q    Type
REMARK                         _______ _______ _______ _____ _____    ______ ____
ROOT
ATOM      1  O   UNL     1       7.889   5.706  20.472  0.00  0.00    +0.000 OA
ATOM      2  C   UNL     1       7.230   5.410  19.472  0.00  0.00    +0.000 C 
ATOM      3  C   UNL     1       7.925   4.928  18.183  0.00  0.00    +0.000 C 
ATOM      4  O   UNL     1       7.278   4.282  17.113  0.00  0.00    +0.000 OA
ATOM      5  C   UNL     1       6.007   4.816  16.725  0.00  0.00    +0.000 C 
ATOM      6  C   UNL     1       4.979   4.234  17.698  0.00  0.00    +0.000 A 
ATOM      7  C   UNL     1       4.022   3.256  17.332  0.00  0.00    +0.000 A 
ATOM      8  C   UNL     1       2.993   2.894  18.206  0.00  0.00    +0.000 A 
ATOM      9 CL   UNL     1       1.831   1.721  17.719  0.00  0.00    +0.000 Cl
ATOM     10  C   UNL     1       2.894   3.492  19.454  0.00  0.00    +0.000 A 
ATOM     11  C   UNL     1       3.857   4.421  19.849  0.00  0.00    +0.000 A 
ATOM     12  C   UNL     1       4.927   4.728  18.992  0.00  0.00    +0.000 A 
ATOM     13  N   UNL     1       5.886   5.655  19.465  0.00  0.00    +0.000 N 
ATOM     14  H   UNL     1       5.613   6.199  20.285  0.00  0.00    +0.000 HD
ENDROOT
BRANCH   5  15
ATOM     15  C   UNL     1       5.871   6.423  16.571  0.00  0.00    +0.000 C 
ATOM     16  F   UNL     1       7.046   7.063  16.784  0.00  0.00    +0.000 F 
ATOM     17  F   UNL     1       5.467   6.798  15.326  0.00  0.00    +0.000 F 
ATOM     18  F   UNL     1       4.967   6.986  17.410  0.00  0.00    +0.000 F 
ENDBRANCH   5  15
BRANCH   5  19
ATOM     19  C   UNL     1       5.730   4.313  15.317  0.00  0.00    +0.000 C 
ATOM     20  C   UNL     1       5.492   3.883  14.110  0.00  0.00    +0.000 C 
BRANCH  20  21
ATOM     21  C   UNL     1       5.221   3.395  12.801  0.00  0.00    +0.000 A 
ATOM     22  C   UNL     1       4.109   3.683  11.988  0.00  0.00    +0.000 A 
ATOM     23  C   UNL     1       4.302   2.991  10.812  0.00  0.00    +0.000 A 
ATOM     24  O   UNL     1       5.466   2.291  10.866  0.00  0.00    +0.000 OA
ATOM     25  C   UNL     1       6.022   2.541  12.081  0.00  0.00    +0.000 A 
ENDBRANCH  20  21
ENDBRANCH   5  19
TORSDOF 3
ENDMDL
