MODEL 1
REMARK VINA RESULT:      -6.4      0.000      0.000
REMARK  Name = 
REMARK  8 active torsions:
REMARK  status: ('A' for Active; 'I' for Inactive)
REMARK    1  A    between atoms: C_1  and  C_2
REMARK    2  A    between atoms: N_8  and  C_9
REMARK    3  A    between atoms: C_9  and  C_10
REMARK    4  A    between atoms: C_16  and  C_17
REMARK    5  A    between atoms: C_17  and  C_18
REMARK    6  A    between atoms: C_17  and  C_19
REMARK    7  A    between atoms: C_20  and  C_21
REMARK    8  A    between atoms: C_23  and  N_24
REMARK                            x       y       z     vdW  Elec       q    Type
REMARK                         _______ _______ _______ _____ _____    ______ ____
ROOT
ATOM      1  C   UNL     1       5.286   7.391  15.781  0.00  0.00    +0.000 C 
ATOM      2  C   UNL     1       4.942   6.491  16.935  0.00  0.00    +0.000 A 
ATOM      3  C   UNL     1       3.739   6.597  17.529  0.00  0.00    +0.000 A 
ATOM      4  C   UNL     1       3.343   5.667  18.541  0.00  0.00    +0.000 A 
ATOM      5  C   UNL     1       4.174   4.706  18.960  0.00  0.00    +0.000 A 
ATOM      6  C   UNL     1       5.591   4.764  18.528  0.00  0.00    +0.000 A 
ATOM      7  O   UNL     1       6.428   4.084  19.117  0.00  0.00    +0.000 OA
ATOM      8  N   UNL     1       5.860   5.544  17.405  0.00  0.00    +0.000 N 
ATOM      9  C   UNL     1       3.714   3.590  19.852  0.00  0.00    +0.000 C 
ATOM     10  C   UNL     1       2.363   3.952  20.471  0.00  0.00    +0.000 C 
ATOM     11  C   UNL     1       1.584   4.949  20.010  0.00  0.00    +0.000 C 
ATOM     12  O   UNL     1       2.027   5.771  18.973  0.00  0.00    +0.000 OA
ENDROOT
BRANCH   9  13
ATOM     13  C   UNL     1       3.619   2.183  19.130  0.00  0.00    +0.000 C 
ATOM     14  C   UNL     1       3.558   2.278  17.597  0.00  0.00    +0.000 C 
ATOM     15  C   UNL     1       4.712   1.179  19.517  0.00  0.00    +0.000 C 
ENDBRANCH   9  13
BRANCH  11  16
ATOM     16  N   UNL     1       0.314   5.239  20.444  0.00  0.00    +0.000 N 
ATOM     17  H   UNL     1      -0.358   5.498  19.727  0.00  0.00    +0.000 HD
ATOM     18  H   UNL     1      -0.041   4.554  21.107  0.00  0.00    +0.000 HD
ENDBRANCH  11  16
BRANCH  10  19
ATOM     19  C   UNL     1       1.893   2.984  21.545  0.00  0.00    +0.000 C 
ATOM     20  N   UNL     1       1.505   2.182  22.436  0.00  0.00    +0.000 NA
ENDBRANCH  10  19
BRANCH   8  21
ATOM     21  C   UNL     1       7.104   5.229  16.698  0.00  0.00    +0.000 C 
BRANCH  21  22
ATOM     22  C   UNL     1       6.990   4.729  15.275  0.00  0.00    +0.000 A 
ATOM     23  C   UNL     1       5.985   3.830  14.911  0.00  0.00    +0.000 A 
ATOM     24  C   UNL     1       5.779   3.545  13.563  0.00  0.00    +0.000 A 
ATOM     25  C   UNL     1       6.583   4.157  12.612  0.00  0.00    +0.000 A 
ATOM     26  C   UNL     1       7.579   5.012  13.054  0.00  0.00    +0.000 A 
ATOM     27  N   UNL     1       7.800   5.311  14.353  0.00  0.00    +0.000 NA
ENDBRANCH  21  22
ENDBRANCH   8  21
TORSDOF 5
ENDMDL
MODEL 2
REMARK VINA RESULT:      -6.0      0.830      1.141
REMARK  Name = 
REMARK  8 active torsions:
REMARK  status: ('A' for Active; 'I' for Inactive)
REMARK    1  A    between atoms: C_1  and  C_2
REMARK    2  A    between atoms: N_8  and  C_9
REMARK    3  A    between atoms: C_9  and  C_10
REMARK    4  A    between atoms: C_16  and  C_17
REMARK    5  A    between atoms: C_17  and  C_18
REMARK    6  A    between atoms: C_17  and  C_19
REMARK    7  A    between atoms: C_20  and  C_21
REMARK    8  A    between atoms: C_23  and  N_24
REMARK                            x       y       z     vdW  Elec       q    Type
REMARK                         _______ _______ _______ _____ _____    ______ ____
ROOT
ATOM      1  C   UNL     1       5.629   7.432  15.693  0.00  0.00    +0.000 C 
ATOM      2  C   UNL     1       5.202   6.521  16.810  0.00  0.00    +0.000 A 
ATOM      3  C   UNL     1       4.132   6.840  17.562  0.00  0.00    +0.000 A 
ATOM      4  C   UNL     1       3.634   5.926  18.543  0.00  0.00    +0.000 A 
ATOM      5  C   UNL     1       4.246   4.760  18.775  0.00  0.00    +0.000 A 
ATOM      6  C   UNL     1       5.578   4.532  18.168  0.00  0.00    +0.000 A 
ATOM      7  O   UNL     1       6.283   3.617  18.588  0.00  0.00    +0.000 OA
ATOM      8  N   UNL     1       5.907   5.342  17.082  0.00  0.00    +0.000 N 
ATOM      9  C   UNL     1       3.627   3.694  19.631  0.00  0.00    +0.000 C 
ATOM     10  C   UNL     1       2.480   4.294  20.447  0.00  0.00    +0.000 C 
ATOM     11  C   UNL     1       1.922   5.487  20.169  0.00  0.00    +0.000 C 
ATOM     12  O   UNL     1       2.438   6.289  19.149  0.00  0.00    +0.000 OA
ENDROOT
BRANCH   9  13
ATOM     13  C   UNL     1       3.114   2.432  18.822  0.00  0.00    +0.000 C 
ATOM     14  C   UNL     1       2.669   2.757  17.387  0.00  0.00    +0.000 C 
ATOM     15  C   UNL     1       4.088   1.248  18.778  0.00  0.00    +0.000 C 
ENDBRANCH   9  13
BRANCH  11  16
ATOM     16  N   UNL     1       0.816   6.017  20.787  0.00  0.00    +0.000 N 
ATOM     17  H   UNL     1       0.819   7.024  20.926  0.00  0.00    +0.000 HD
ATOM     18  H   UNL     1      -0.056   5.661  20.405  0.00  0.00    +0.000 HD
ENDBRANCH  11  16
BRANCH  10  19
ATOM     19  C   UNL     1       1.908   3.354  21.496  0.00  0.00    +0.000 C 
ATOM     20  N   UNL     1       1.432   2.575  22.366  0.00  0.00    +0.000 NA
ENDBRANCH  10  19
BRANCH   8  21
ATOM     21  C   UNL     1       6.952   4.822  16.197  0.00  0.00    +0.000 C 
BRANCH  21  22
ATOM     22  C   UNL     1       6.577   4.557  14.756  0.00  0.00    +0.000 A 
ATOM     23  C   UNL     1       7.464   4.854  13.719  0.00  0.00    +0.000 A 
ATOM     24  C   UNL     1       7.176   4.417  12.428  0.00  0.00    +0.000 A 
ATOM     25  C   UNL     1       6.009   3.701  12.200  0.00  0.00    +0.000 A 
ATOM     26  C   UNL     1       5.165   3.474  13.274  0.00  0.00    +0.000 A 
ATOM     27  N   UNL     1       5.418   3.882  14.537  0.00  0.00    +0.000 NA
ENDBRANCH  21  22
ENDBRANCH   8  21
TORSDOF 5
ENDMDL
MODEL 3
REMARK VINA RESULT:      -5.7      8.196     11.829
REMARK  Name = 
REMARK  8 active torsions:
REMARK  status: ('A' for Active; 'I' for Inactive)
REMARK    1  A    between atoms: C_1  and  C_2
REMARK    2  A    between atoms: N_8  and  C_9
REMARK    3  A    between atoms: C_9  and  C_10
REMARK    4  A    between atoms: C_16  and  C_17
REMARK    5  A    between atoms: C_17  and  C_18
REMARK    6  A    between atoms: C_17  and  C_19
REMARK    7  A    between atoms: C_20  and  C_21
REMARK    8  A    between atoms: C_23  and  N_24
REMARK                            x       y       z     vdW  Elec       q    Type
REMARK                         _______ _______ _______ _____ _____    ______ ____
ROOT
ATOM      1  C   UNL     1      -3.291  12.613  23.896  0.00  0.00    +0.000 C 
ATOM      2  C   UNL     1      -2.398  12.286  22.732  0.00  0.00    +0.000 A 
ATOM      3  C   UNL     1      -1.533  11.259  22.820  0.00  0.00    +0.000 A 
ATOM      4  C   UNL     1      -0.769  10.852  21.681  0.00  0.00    +0.000 A 
ATOM      5  C   UNL     1      -0.854  11.510  20.520  0.00  0.00    +0.000 A 
ATOM      6  C   UNL     1      -1.572  12.806  20.498  0.00  0.00    +0.000 A 
ATOM      7  O   UNL     1      -1.420  13.563  19.541  0.00  0.00    +0.000 OA
ATOM      8  N   UNL     1      -2.452  13.040  21.553  0.00  0.00    +0.000 N 
ATOM      9  C   UNL     1      -0.240  10.979  19.258  0.00  0.00    +0.000 C 
ATOM     10  C   UNL     1       0.758   9.871  19.600  0.00  0.00    +0.000 C 
ATOM     11  C   UNL     1       0.802   9.262  20.801  0.00  0.00    +0.000 C 
ATOM     12  O   UNL     1      -0.027   9.688  21.840  0.00  0.00    +0.000 OA
ENDROOT
BRANCH   9  13
ATOM     13  C   UNL     1      -1.293  10.450  18.200  0.00  0.00    +0.000 C 
ATOM     14  C   UNL     1      -2.541   9.815  18.834  0.00  0.00    +0.000 C 
ATOM     15  C   UNL     1      -1.744  11.483  17.159  0.00  0.00    +0.000 C 
ENDBRANCH   9  13
BRANCH  11  16
ATOM     16  N   UNL     1       1.589   8.184  21.124  0.00  0.00    +0.000 N 
ATOM     17  H   UNL     1       2.518   8.396  21.477  0.00  0.00    +0.000 HD
ATOM     18  H   UNL     1       1.093   7.486  21.672  0.00  0.00    +0.000 HD
ENDBRANCH  11  16
BRANCH  10  19
ATOM     19  C   UNL     1       1.586   9.395  18.418  0.00  0.00    +0.000 C 
ATOM     20  N   UNL     1       2.274   9.000  17.437  0.00  0.00    +0.000 NA
ENDBRANCH  10  19
BRANCH   8  21
ATOM     21  C   UNL     1      -3.493  14.040  21.300  0.00  0.00    +0.000 C 
BRANCH  21  22
ATOM     22  C   UNL     1      -4.890  13.536  21.019  0.00  0.00    +0.000 A 
ATOM     23  C   UNL     1      -5.107  12.496  20.112  0.00  0.00    +0.000 A 
ATOM     24  C   UNL     1      -6.372  11.919  20.024  0.00  0.00    +0.000 A 
ATOM     25  C   UNL     1      -7.391  12.397  20.835  0.00  0.00    +0.000 A 
ATOM     26  C   UNL     1      -7.106  13.451  21.686  0.00  0.00    +0.000 A 
ATOM     27  N   UNL     1      -5.889  14.029  21.797  0.00  0.00    +0.000 NA
ENDBRANCH  21  22
ENDBRANCH   8  21
TORSDOF 5
ENDMDL
MODEL 4
REMARK VINA RESULT:      -5.7      8.908     11.495
REMARK  Name = 
REMARK  8 active torsions:
REMARK  status: ('A' for Active; 'I' for Inactive)
REMARK    1  A    between atoms: C_1  and  C_2
REMARK    2  A    between atoms: N_8  and  C_9
REMARK    3  A    between atoms: C_9  and  C_10
REMARK    4  A    between atoms: C_16  and  C_17
REMARK    5  A    between atoms: C_17  and  C_18
REMARK    6  A    between atoms: C_17  and  C_19
REMARK    7  A    between atoms: C_20  and  C_21
REMARK    8  A    between atoms: C_23  and  N_24
REMARK                            x       y       z     vdW  Elec       q    Type
REMARK                         _______ _______ _______ _____ _____    ______ ____
ROOT
ATOM      1  C   UNL     1      -2.310  10.398  17.605  0.00  0.00    +0.000 C 
ATOM      2  C   UNL     1      -2.552  11.469  18.631  0.00  0.00    +0.000 A 
ATOM      3  C   UNL     1      -3.809  11.753  19.018  0.00  0.00    +0.000 A 
ATOM      4  C   UNL     1      -4.052  12.676  20.084  0.00  0.00    +0.000 A 
ATOM      5  C   UNL     1      -3.044  13.317  20.686  0.00  0.00    +0.000 A 
ATOM      6  C   UNL     1      -1.695  13.235  20.077  0.00  0.00    +0.000 A 
ATOM      7  O   UNL     1      -0.827  14.032  20.427  0.00  0.00    +0.000 OA
ATOM      8  N   UNL     1      -1.483  12.180  19.191  0.00  0.00    +0.000 N 
ATOM      9  C   UNL     1      -3.246  14.114  21.941  0.00  0.00    +0.000 C 
ATOM     10  C   UNL     1      -4.739  14.377  22.147  0.00  0.00    +0.000 C 
ATOM     11  C   UNL     1      -5.704  13.706  21.490  0.00  0.00    +0.000 C 
ATOM     12  O   UNL     1      -5.372  12.775  20.504  0.00  0.00    +0.000 OA
ENDROOT
BRANCH   9  13
ATOM     13  C   UNL     1      -2.632  13.443  23.238  0.00  0.00    +0.000 C 
ATOM     14  C   UNL     1      -2.475  11.918  23.130  0.00  0.00    +0.000 C 
ATOM     15  C   UNL     1      -1.300  14.041  23.710  0.00  0.00    +0.000 C 
ENDBRANCH   9  13
BRANCH  11  16
ATOM     16  N   UNL     1      -7.053  13.813  21.721  0.00  0.00    +0.000 N 
ATOM     17  H   UNL     1      -7.538  14.552  21.220  0.00  0.00    +0.000 HD
ATOM     18  H   UNL     1      -7.530  12.916  21.687  0.00  0.00    +0.000 HD
ENDBRANCH  11  16
BRANCH  10  19
ATOM     19  C   UNL     1      -5.048  15.343  23.279  0.00  0.00    +0.000 C 
ATOM     20  N   UNL     1      -5.304  16.144  24.218  0.00  0.00    +0.000 NA
ENDBRANCH  10  19
BRANCH   8  21
ATOM     21  C   UNL     1      -0.083  11.804  18.977  0.00  0.00    +0.000 C 
BRANCH  21  22
ATOM     22  C   UNL     1       0.457  10.645  19.784  0.00  0.00    +0.000 A 
ATOM     23  C   UNL     1       0.085  10.466  21.118  0.00  0.00    +0.000 A 
ATOM     24  C   UNL     1       0.435   9.287  21.773  0.00  0.00    +0.000 A 
ATOM     25  C   UNL     1       1.153   8.319  21.085  0.00  0.00    +0.000 A 
ATOM     26  C   UNL     1       1.513   8.583  19.774  0.00  0.00    +0.000 A 
ATOM     27  N   UNL     1       1.185   9.715  19.112  0.00  0.00    +0.000 NA
ENDBRANCH  21  22
ENDBRANCH   8  21
TORSDOF 5
ENDMDL
MODEL 5
REMARK VINA RESULT:      -5.6      9.914     11.738
REMARK  Name = 
REMARK  8 active torsions:
REMARK  status: ('A' for Active; 'I' for Inactive)
REMARK    1  A    between atoms: C_1  and  C_2
REMARK    2  A    between atoms: N_8  and  C_9
REMARK    3  A    between atoms: C_9  and  C_10
REMARK    4  A    between atoms: C_16  and  C_17
REMARK    5  A    between atoms: C_17  and  C_18
REMARK    6  A    between atoms: C_17  and  C_19
REMARK    7  A    between atoms: C_20  and  C_21
REMARK    8  A    between atoms: C_23  and  N_24
REMARK                            x       y       z     vdW  Elec       q    Type
REMARK                         _______ _______ _______ _____ _____    ______ ____
ROOT
ATOM      1  C   UNL     1      11.785  11.571  18.815  0.00  0.00    +0.000 C 
ATOM      2  C   UNL     1      10.555  12.144  19.463  0.00  0.00    +0.000 A 
ATOM      3  C   UNL     1      10.085  11.603  20.602  0.00  0.00    +0.000 A 
ATOM      4  C   UNL     1       8.995  12.212  21.301  0.00  0.00    +0.000 A 
ATOM      5  C   UNL     1       8.384  13.299  20.816  0.00  0.00    +0.000 A 
ATOM      6  C   UNL     1       8.698  13.723  19.431  0.00  0.00    +0.000 A 
ATOM      7  O   UNL     1       7.956  14.521  18.863  0.00  0.00    +0.000 OA
ATOM      8  N   UNL     1       9.888  13.235  18.893  0.00  0.00    +0.000 N 
ATOM      9  C   UNL     1       7.395  14.083  21.627  0.00  0.00    +0.000 C 
ATOM     10  C   UNL     1       6.946  13.252  22.831  0.00  0.00    +0.000 C 
ATOM     11  C   UNL     1       7.599  12.153  23.254  0.00  0.00    +0.000 C 
ATOM     12  O   UNL     1       8.695  11.663  22.541  0.00  0.00    +0.000 OA
ENDROOT
BRANCH   9  13
ATOM     13  C   UNL     1       7.929  15.493  22.112  0.00  0.00    +0.000 C 
ATOM     14  C   UNL     1       9.460  15.567  22.228  0.00  0.00    +0.000 C 
ATOM     15  C   UNL     1       7.441  16.692  21.289  0.00  0.00    +0.000 C 
ENDBRANCH   9  13
BRANCH  11  16
ATOM     16  N   UNL     1       7.316  11.443  24.395  0.00  0.00    +0.000 N 
ATOM     17  H   UNL     1       7.932  10.661  24.601  0.00  0.00    +0.000 HD
ATOM     18  H   UNL     1       7.135  12.042  25.196  0.00  0.00    +0.000 HD
ENDBRANCH  11  16
BRANCH  10  19
ATOM     19  C   UNL     1       5.797  13.866  23.615  0.00  0.00    +0.000 C 
ATOM     20  N   UNL     1       4.845  14.376  24.265  0.00  0.00    +0.000 NA
ENDBRANCH  10  19
BRANCH   8  21
ATOM     21  C   UNL     1      10.439  14.004  17.773  0.00  0.00    +0.000 C 
BRANCH  21  22
ATOM     22  C   UNL     1      10.970  15.388  18.073  0.00  0.00    +0.000 A 
ATOM     23  C   UNL     1      11.686  15.641  19.244  0.00  0.00    +0.000 A 
ATOM     24  C   UNL     1      12.332  16.866  19.398  0.00  0.00    +0.000 A 
ATOM     25  C   UNL     1      12.243  17.810  18.385  0.00  0.00    +0.000 A 
ATOM     26  C   UNL     1      11.487  17.496  17.268  0.00  0.00    +0.000 A 
ATOM     27  N   UNL     1      10.853  16.316  17.088  0.00  0.00    +0.000 NA
ENDBRANCH  21  22
ENDBRANCH   8  21
TORSDOF 5
ENDMDL
MODEL 6
REMARK VINA RESULT:      -5.6      8.352     10.844
REMARK  Name = 
REMARK  8 active torsions:
REMARK  status: ('A' for Active; 'I' for Inactive)
REMARK    1  A    between atoms: C_1  and  C_2
REMARK    2  A    between atoms: N_8  and  C_9
REMARK    3  A    between atoms: C_9  and  C_10
REMARK    4  A    between atoms: C_16  and  C_17
REMARK    5  A    between atoms: C_17  and  C_18
REMARK    6  A    between atoms: C_17  and  C_19
REMARK    7  A    between atoms: C_20  and  C_21
REMARK    8  A    between atoms: C_23  and  N_24
REMARK                            x       y       z     vdW  Elec       q    Type
REMARK                         _______ _______ _______ _____ _____    ______ ____
ROOT
ATOM      1  C   UNL     1      -1.898  10.095  17.161  0.00  0.00    +0.000 C 
ATOM      2  C   UNL     1      -2.158  11.148  18.202  0.00  0.00    +0.000 A 
ATOM      3  C   UNL     1      -3.420  11.408  18.590  0.00  0.00    +0.000 A 
ATOM      4  C   UNL     1      -3.678  12.312  19.668  0.00  0.00    +0.000 A 
ATOM      5  C   UNL     1      -2.681  12.959  20.282  0.00  0.00    +0.000 A 
ATOM      6  C   UNL     1      -1.330  12.905  19.675  0.00  0.00    +0.000 A 
ATOM      7  O   UNL     1      -0.475  13.709  20.039  0.00  0.00    +0.000 OA
ATOM      8  N   UNL     1      -1.100  11.866  18.774  0.00  0.00    +0.000 N 
ATOM      9  C   UNL     1      -2.898  13.735  21.548  0.00  0.00    +0.000 C 
ATOM     10  C   UNL     1      -4.395  13.974  21.753  0.00  0.00    +0.000 C 
ATOM     11  C   UNL     1      -5.348  13.299  21.084  0.00  0.00    +0.000 C 
ATOM     12  O   UNL     1      -5.001  12.387  20.086  0.00  0.00    +0.000 OA
ENDROOT
BRANCH   9  13
ATOM     13  C   UNL     1      -2.277  13.055  22.836  0.00  0.00    +0.000 C 
ATOM     14  C   UNL     1      -1.757  11.629  22.593  0.00  0.00    +0.000 C 
ATOM     15  C   UNL     1      -1.177  13.867  23.534  0.00  0.00    +0.000 C 
ENDBRANCH   9  13
BRANCH  11  16
ATOM     16  N   UNL     1      -6.700  13.382  21.314  0.00  0.00    +0.000 N 
ATOM     17  H   UNL     1      -7.303  13.033  20.575  0.00  0.00    +0.000 HD
ATOM     18  H   UNL     1      -6.962  13.059  22.242  0.00  0.00    +0.000 HD
ENDBRANCH  11  16
BRANCH  10  19
ATOM     19  C   UNL     1      -4.721  14.919  22.898  0.00  0.00    +0.000 C 
ATOM     20  N   UNL     1      -4.990  15.702  23.849  0.00  0.00    +0.000 NA
ENDBRANCH  10  19
BRANCH   8  21
ATOM     21  C   UNL     1       0.305  11.513  18.559  0.00  0.00    +0.000 C 
BRANCH  21  22
ATOM     22  C   UNL     1       0.760  10.148  19.025  0.00  0.00    +0.000 A 
ATOM     23  C   UNL     1       1.541   9.334  18.201  0.00  0.00    +0.000 A 
ATOM     24  C   UNL     1       2.110   8.177  18.727  0.00  0.00    +0.000 A 
ATOM     25  C   UNL     1       1.882   7.855  20.057  0.00  0.00    +0.000 A 
ATOM     26  C   UNL     1       1.071   8.695  20.801  0.00  0.00    +0.000 A 
ATOM     27  N   UNL     1       0.508   9.826  20.321  0.00  0.00    +0.000 NA
ENDBRANCH  21  22
ENDBRANCH   8  21
TORSDOF 5
ENDMDL
MODEL 7
REMARK VINA RESULT:      -5.5      8.880     11.554
REMARK  Name = 
REMARK  8 active torsions:
REMARK  status: ('A' for Active; 'I' for Inactive)
REMARK    1  A    between atoms: C_1  and  C_2
REMARK    2  A    between atoms: N_8  and  C_9
REMARK    3  A    between atoms: C_9  and  C_10
REMARK    4  A    between atoms: C_16  and  C_17
REMARK    5  A    between atoms: C_17  and  C_18
REMARK    6  A    between atoms: C_17  and  C_19
REMARK    7  A    between atoms: C_20  and  C_21
REMARK    8  A    between atoms: C_23  and  N_24
REMARK                            x       y       z     vdW  Elec       q    Type
REMARK                         _______ _______ _______ _____ _____    ______ ____
ROOT
ATOM      1  C   UNL     1       1.039   9.475  22.069  0.00  0.00    +0.000 C 
ATOM      2  C   UNL     1      -0.075  10.474  21.917  0.00  0.00    +0.000 A 
ATOM      3  C   UNL     1      -1.006  10.588  22.882  0.00  0.00    +0.000 A 
ATOM      4  C   UNL     1      -1.997  11.618  22.818  0.00  0.00    +0.000 A 
ATOM      5  C   UNL     1      -2.056  12.457  21.778  0.00  0.00    +0.000 A 
ATOM      6  C   UNL     1      -1.230  12.156  20.584  0.00  0.00    +0.000 A 
ATOM      7  O   UNL     1      -1.476  12.726  19.523  0.00  0.00    +0.000 OA
ATOM      8  N   UNL     1      -0.157  11.288  20.781  0.00  0.00    +0.000 N 
ATOM      9  C   UNL     1      -2.934  13.675  21.787  0.00  0.00    +0.000 C 
ATOM     10  C   UNL     1      -3.958  13.559  22.918  0.00  0.00    +0.000 C 
ATOM     11  C   UNL     1      -3.847  12.675  23.927  0.00  0.00    +0.000 C 
ATOM     12  O   UNL     1      -2.808  11.742  23.938  0.00  0.00    +0.000 OA
ENDROOT
BRANCH   9  13
ATOM     13  C   UNL     1      -2.142  15.041  21.911  0.00  0.00    +0.000 C 
ATOM     14  C   UNL     1      -0.738  14.888  22.517  0.00  0.00    +0.000 C 
ATOM     15  C   UNL     1      -2.031  15.848  20.611  0.00  0.00    +0.000 C 
ENDBRANCH   9  13
BRANCH  11  16
ATOM     16  N   UNL     1      -4.664  12.610  25.028  0.00  0.00    +0.000 N 
ATOM     17  H   UNL     1      -5.325  13.373  25.143  0.00  0.00    +0.000 HD
ATOM     18  H   UNL     1      -5.078  11.690  25.157  0.00  0.00    +0.000 HD
ENDBRANCH  11  16
BRANCH  10  19
ATOM     19  C   UNL     1      -5.025  14.641  22.900  0.00  0.00    +0.000 C 
ATOM     20  N   UNL     1      -5.910  15.540  22.885  0.00  0.00    +0.000 NA
ENDBRANCH  10  19
BRANCH   8  21
ATOM     21  C   UNL     1       0.914  11.369  19.785  0.00  0.00    +0.000 C 
BRANCH  21  22
ATOM     22  C   UNL     1       1.794  12.599  19.807  0.00  0.00    +0.000 A 
ATOM     23  C   UNL     1       2.022  13.337  18.643  0.00  0.00    +0.000 A 
ATOM     24  C   UNL     1       2.667  14.569  18.732  0.00  0.00    +0.000 A 
ATOM     25  C   UNL     1       3.074  15.032  19.974  0.00  0.00    +0.000 A 
ATOM     26  C   UNL     1       2.840  14.228  21.077  0.00  0.00    +0.000 A 
ATOM     27  N   UNL     1       2.214  13.031  21.025  0.00  0.00    +0.000 NA
ENDBRANCH  21  22
ENDBRANCH   8  21
TORSDOF 5
ENDMDL
MODEL 8
REMARK VINA RESULT:      -5.5      8.403     10.954
REMARK  Name = 
REMARK  8 active torsions:
REMARK  status: ('A' for Active; 'I' for Inactive)
REMARK    1  A    between atoms: C_1  and  C_2
REMARK    2  A    between atoms: N_8  and  C_9
REMARK    3  A    between atoms: C_9  and  C_10
REMARK    4  A    between atoms: C_16  and  C_17
REMARK    5  A    between atoms: C_17  and  C_18
REMARK    6  A    between atoms: C_17  and  C_19
REMARK    7  A    between atoms: C_20  and  C_21
REMARK    8  A    between atoms: C_23  and  N_24
REMARK                            x       y       z     vdW  Elec       q    Type
REMARK                         _______ _______ _______ _____ _____    ______ ____
ROOT
ATOM      1  C   UNL     1      -1.721   9.997  17.150  0.00  0.00    +0.000 C 
ATOM      2  C   UNL     1      -2.006  11.056  18.178  0.00  0.00    +0.000 A 
ATOM      3  C   UNL     1      -3.279  11.361  18.489  0.00  0.00    +0.000 A 
ATOM      4  C   UNL     1      -3.570  12.271  19.554  0.00  0.00    +0.000 A 
ATOM      5  C   UNL     1      -2.589  12.880  20.230  0.00  0.00    +0.000 A 
ATOM      6  C   UNL     1      -1.206  12.779  19.707  0.00  0.00    +0.000 A 
ATOM      7  O   UNL     1      -0.346  13.551  20.125  0.00  0.00    +0.000 OA
ATOM      8  N   UNL     1      -0.960  11.734  18.817  0.00  0.00    +0.000 N 
ATOM      9  C   UNL     1      -2.854  13.661  21.484  0.00  0.00    +0.000 C 
ATOM     10  C   UNL     1      -4.351  13.953  21.599  0.00  0.00    +0.000 C 
ATOM     11  C   UNL     1      -5.286  13.314  20.870  0.00  0.00    +0.000 C 
ATOM     12  O   UNL     1      -4.911  12.392  19.891  0.00  0.00    +0.000 OA
ENDROOT
BRANCH   9  13
ATOM     13  C   UNL     1      -2.338  12.956  22.805  0.00  0.00    +0.000 C 
ATOM     14  C   UNL     1      -1.535  13.886  23.729  0.00  0.00    +0.000 C 
ATOM     15  C   UNL     1      -3.421  12.255  23.634  0.00  0.00    +0.000 C 
ENDBRANCH   9  13
BRANCH  11  16
ATOM     16  N   UNL     1      -6.645  13.446  21.018  0.00  0.00    +0.000 N 
ATOM     17  H   UNL     1      -7.077  14.223  20.526  0.00  0.00    +0.000 HD
ATOM     18  H   UNL     1      -7.140  12.565  20.905  0.00  0.00    +0.000 HD
ENDBRANCH  11  16
BRANCH  10  19
ATOM     19  C   UNL     1      -4.712  14.907  22.726  0.00  0.00    +0.000 C 
ATOM     20  N   UNL     1      -5.012  15.698  23.661  0.00  0.00    +0.000 NA
ENDBRANCH  10  19
BRANCH   8  21
ATOM     21  C   UNL     1       0.443  11.331  18.685  0.00  0.00    +0.000 C 
BRANCH  21  22
ATOM     22  C   UNL     1       0.906  10.145  19.501  0.00  0.00    +0.000 A 
ATOM     23  C   UNL     1       0.529  10.005  20.839  0.00  0.00    +0.000 A 
ATOM     24  C   UNL     1       0.800   8.811  21.503  0.00  0.00    +0.000 A 
ATOM     25  C   UNL     1       1.445   7.789  20.822  0.00  0.00    +0.000 A 
ATOM     26  C   UNL     1       1.816   8.016  19.507  0.00  0.00    +0.000 A 
ATOM     27  N   UNL     1       1.563   9.160  18.835  0.00  0.00    +0.000 NA
ENDBRANCH  21  22
ENDBRANCH   8  21
TORSDOF 5
ENDMDL
MODEL 9
REMARK VINA RESULT:      -5.4     11.380     14.249
REMARK  Name = 
REMARK  8 active torsions:
REMARK  status: ('A' for Active; 'I' for Inactive)
REMARK    1  A    between atoms: C_1  and  C_2
REMARK    2  A    between atoms: N_8  and  C_9
REMARK    3  A    between atoms: C_9  and  C_10
REMARK    4  A    between atoms: C_16  and  C_17
REMARK    5  A    between atoms: C_17  and  C_18
REMARK    6  A    between atoms: C_17  and  C_19
REMARK    7  A    between atoms: C_20  and  C_21
REMARK    8  A    between atoms: C_23  and  N_24
REMARK                            x       y       z     vdW  Elec       q    Type
REMARK                         _______ _______ _______ _____ _____    ______ ____
ROOT
ATOM      1  C   UNL     1      -7.031   9.398  19.248  0.00  0.00    +0.000 C 
ATOM      2  C   UNL     1      -7.048  10.828  19.711  0.00  0.00    +0.000 A 
ATOM      3  C   UNL     1      -7.363  11.115  20.987  0.00  0.00    +0.000 A 
ATOM      4  C   UNL     1      -7.259  12.454  21.480  0.00  0.00    +0.000 A 
ATOM      5  C   UNL     1      -6.899  13.460  20.675  0.00  0.00    +0.000 A 
ATOM      6  C   UNL     1      -6.837  13.206  19.216  0.00  0.00    +0.000 A 
ATOM      7  O   UNL     1      -6.800  14.159  18.440  0.00  0.00    +0.000 OA
ATOM      8  N   UNL     1      -6.741  11.871  18.827  0.00  0.00    +0.000 N 
ATOM      9  C   UNL     1      -6.569  14.824  21.207  0.00  0.00    +0.000 C 
ATOM     10  C   UNL     1      -7.078  14.950  22.644  0.00  0.00    +0.000 C 
ATOM     11  C   UNL     1      -7.444  13.893  23.393  0.00  0.00    +0.000 C 
ATOM     12  O   UNL     1      -7.457  12.609  22.845  0.00  0.00    +0.000 OA
ENDROOT
BRANCH   9  13
ATOM     13  C   UNL     1      -5.029  15.187  21.144  0.00  0.00    +0.000 C 
ATOM     14  C   UNL     1      -4.754  16.655  20.781  0.00  0.00    +0.000 C 
ATOM     15  C   UNL     1      -4.226  14.833  22.403  0.00  0.00    +0.000 C 
ENDBRANCH   9  13
BRANCH  11  16
ATOM     16  N   UNL     1      -7.790  13.934  24.722  0.00  0.00    +0.000 N 
ATOM     17  H   UNL     1      -8.330  13.147  25.069  0.00  0.00    +0.000 HD
ATOM     18  H   UNL     1      -7.011  14.191  25.323  0.00  0.00    +0.000 HD
ENDBRANCH  11  16
BRANCH  10  19
ATOM     19  C   UNL     1      -6.976  16.355  23.217  0.00  0.00    +0.000 C 
ATOM     20  N   UNL     1      -6.891  17.520  23.691  0.00  0.00    +0.000 NA
ENDBRANCH  10  19
BRANCH   8  21
ATOM     21  C   UNL     1      -6.199  11.639  17.486  0.00  0.00    +0.000 C 
BRANCH  21  22
ATOM     22  C   UNL     1      -4.700  11.489  17.357  0.00  0.00    +0.000 A 
ATOM     23  C   UNL     1      -3.870  11.603  18.475  0.00  0.00    +0.000 A 
ATOM     24  C   UNL     1      -2.524  11.263  18.363  0.00  0.00    +0.000 A 
ATOM     25  C   UNL     1      -2.035  10.826  17.141  0.00  0.00    +0.000 A 
ATOM     26  C   UNL     1      -2.913  10.770  16.071  0.00  0.00    +0.000 A 
ATOM     27  N   UNL     1      -4.224  11.089  16.149  0.00  0.00    +0.000 NA
ENDBRANCH  21  22
ENDBRANCH   8  21
TORSDOF 5
ENDMDL
