MODEL 1
REMARK VINA RESULT:      -7.5      0.000      0.000
REMARK  Name = 
REMARK  10 active torsions:
REMARK  status: ('A' for Active; 'I' for Inactive)
REMARK    1  A    between atoms: C_1  and  C_2
REMARK    2  A    between atoms: C_2  and  C_3
REMARK    3  A    between atoms: C_2  and  C_4
REMARK    4  A    between atoms: C_4  and  O_5
REMARK    5  A    between atoms: C_4  and  C_6
REMARK    6  A    between atoms: C_6  and  N_7
REMARK    7  A    between atoms: N_7  and  C_8
REMARK    8  A    between atoms: C_8  and  C_9
REMARK    9  A    between atoms: N_11  and  C_12
REMARK   10  A    between atoms: C_18  and  C_19
REMARK                            x       y       z     vdW  Elec       q    Type
REMARK                         _______ _______ _______ _____ _____    ______ ____
ROOT
ATOM      1  C   UNL     1       5.328   4.164  16.686  0.00  0.00    +0.000 A 
ATOM      2  C   UNL     1       4.085   3.591  16.880  0.00  0.00    +0.000 A 
ATOM      3  N   UNL     1       3.480   4.306  17.868  0.00  0.00    +0.000 N 
ATOM      4  N   UNL     1       4.238   5.308  18.346  0.00  0.00    +0.000 NA
ATOM      5  C   UNL     1       5.387   5.231  17.644  0.00  0.00    +0.000 A 
ENDROOT
BRANCH   5   6
ATOM      6  C   UNL     1       6.501   6.171  17.840  0.00  0.00    +0.000 A 
ATOM      7  C   UNL     1       7.442   5.968  18.843  0.00  0.00    +0.000 A 
ATOM      8  C   UNL     1       8.389   6.961  19.082  0.00  0.00    +0.000 A 
ATOM      9  C   UNL     1       8.380   8.119  18.308  0.00  0.00    +0.000 A 
ATOM     10  C   UNL     1       7.434   8.224  17.307  0.00  0.00    +0.000 A 
ATOM     11  N   UNL     1       6.504   7.282  17.053  0.00  0.00    +0.000 NA
ENDBRANCH   5   6
BRANCH   3  12
ATOM     12  C   UNL     1       2.161   4.045  18.403  0.00  0.00    +0.000 C 
ATOM     13  C   UNL     1       1.737   2.582  18.316  0.00  0.00    +0.000 C 
ATOM     14  C   UNL     1       0.546   2.500  19.261  0.00  0.00    +0.000 C 
ATOM     15  C   UNL     1       0.788   3.556  20.338  0.00  0.00    +0.000 C 
ATOM     16  C   UNL     1       1.993   4.378  19.885  0.00  0.00    +0.000 C 
ENDBRANCH   3  12
BRANCH   1  17
ATOM     17  C   UNL     1       6.399   3.783  15.718  0.00  0.00    +0.000 C 
BRANCH  17  18
ATOM     18  N   UNL     1       6.412   4.746  14.614  0.00  0.00    +0.000 NA
ATOM     19  H   UNL     1       6.017   5.613  14.972  0.00  0.00    +0.000 HD
BRANCH  18  20
ATOM     20  C   UNL     1       5.580   4.263  13.503  0.00  0.00    +0.000 C 
BRANCH  20  21
ATOM     21  C   UNL     1       6.465   3.521  12.479  0.00  0.00    +0.000 C 
BRANCH  21  23
ATOM     22  C   UNL     1       5.925   1.314  11.360  0.00  0.00    +0.000 C 
ATOM     23  C   UNL     1       5.686   2.827  11.337  0.00  0.00    +0.000 C 
ATOM     24  C   UNL     1       4.187   3.122  11.389  0.00  0.00    +0.000 C 
ENDBRANCH  21  23
BRANCH  21  25
ATOM     25  O   UNL     1       7.359   4.484  11.900  0.00  0.00    +0.000 OA
ATOM     26  H   UNL     1       6.853   4.884  11.163  0.00  0.00    +0.000 HD
ENDBRANCH  21  25
ENDBRANCH  20  21
ENDBRANCH  18  20
ENDBRANCH  17  18
ENDBRANCH   1  17
TORSDOF 8
ENDMDL
MODEL 2
REMARK VINA RESULT:      -7.4      3.118      5.637
REMARK  Name = 
REMARK  10 active torsions:
REMARK  status: ('A' for Active; 'I' for Inactive)
REMARK    1  A    between atoms: C_1  and  C_2
REMARK    2  A    between atoms: C_2  and  C_3
REMARK    3  A    between atoms: C_2  and  C_4
REMARK    4  A    between atoms: C_4  and  O_5
REMARK    5  A    between atoms: C_4  and  C_6
REMARK    6  A    between atoms: C_6  and  N_7
REMARK    7  A    between atoms: N_7  and  C_8
REMARK    8  A    between atoms: C_8  and  C_9
REMARK    9  A    between atoms: N_11  and  C_12
REMARK   10  A    between atoms: C_18  and  C_19
REMARK                            x       y       z     vdW  Elec       q    Type
REMARK                         _______ _______ _______ _____ _____    ______ ____
ROOT
ATOM      1  C   UNL     1       4.408   5.424  18.851  0.00  0.00    +0.000 A 
ATOM      2  C   UNL     1       3.422   6.152  19.488  0.00  0.00    +0.000 A 
ATOM      3  N   UNL     1       2.885   6.981  18.551  0.00  0.00    +0.000 N 
ATOM      4  N   UNL     1       3.454   6.857  17.339  0.00  0.00    +0.000 NA
ATOM      5  C   UNL     1       4.404   5.915  17.503  0.00  0.00    +0.000 A 
ENDROOT
BRANCH   5   6
ATOM      6  C   UNL     1       5.263   5.454  16.400  0.00  0.00    +0.000 A 
ATOM      7  C   UNL     1       4.899   4.364  15.617  0.00  0.00    +0.000 A 
ATOM      8  C   UNL     1       5.813   3.879  14.684  0.00  0.00    +0.000 A 
ATOM      9  C   UNL     1       7.052   4.499  14.549  0.00  0.00    +0.000 A 
ATOM     10  C   UNL     1       7.318   5.599  15.340  0.00  0.00    +0.000 A 
ATOM     11  N   UNL     1       6.456   6.092  16.253  0.00  0.00    +0.000 NA
ENDBRANCH   5   6
BRANCH   3  12
ATOM     12  C   UNL     1       1.823   7.935  18.785  0.00  0.00    +0.000 C 
ATOM     13  C   UNL     1       1.670   8.343  20.247  0.00  0.00    +0.000 C 
ATOM     14  C   UNL     1       0.801   9.591  20.179  0.00  0.00    +0.000 C 
ATOM     15  C   UNL     1       1.114  10.250  18.837  0.00  0.00    +0.000 C 
ATOM     16  C   UNL     1       1.986   9.268  18.058  0.00  0.00    +0.000 C 
ENDBRANCH   3  12
BRANCH   1  17
ATOM     17  C   UNL     1       5.304   4.366  19.405  0.00  0.00    +0.000 C 
BRANCH  17  18
ATOM     18  N   UNL     1       4.799   3.051  19.004  0.00  0.00    +0.000 NA
ATOM     19  H   UNL     1       4.379   3.163  18.084  0.00  0.00    +0.000 HD
BRANCH  18  20
ATOM     20  C   UNL     1       3.772   2.588  19.947  0.00  0.00    +0.000 C 
BRANCH  20  21
ATOM     21  C   UNL     1       2.623   1.911  19.168  0.00  0.00    +0.000 C 
BRANCH  21  23
ATOM     22  C   UNL     1       1.079   3.530  20.357  0.00  0.00    +0.000 C 
ATOM     23  C   UNL     1       1.334   2.759  19.058  0.00  0.00    +0.000 C 
ATOM     24  C   UNL     1       1.367   3.724  17.873  0.00  0.00    +0.000 C 
ENDBRANCH  21  23
BRANCH  21  25
ATOM     25  O   UNL     1       3.101   1.635  17.843  0.00  0.00    +0.000 OA
ATOM     26  H   UNL     1       3.771   0.931  17.960  0.00  0.00    +0.000 HD
ENDBRANCH  21  25
ENDBRANCH  20  21
ENDBRANCH  18  20
ENDBRANCH  17  18
ENDBRANCH   1  17
TORSDOF 8
ENDMDL
MODEL 3
REMARK VINA RESULT:      -7.4      3.544      7.576
REMARK  Name = 
REMARK  10 active torsions:
REMARK  status: ('A' for Active; 'I' for Inactive)
REMARK    1  A    between atoms: C_1  and  C_2
REMARK    2  A    between atoms: C_2  and  C_3
REMARK    3  A    between atoms: C_2  and  C_4
REMARK    4  A    between atoms: C_4  and  O_5
REMARK    5  A    between atoms: C_4  and  C_6
REMARK    6  A    between atoms: C_6  and  N_7
REMARK    7  A    between atoms: N_7  and  C_8
REMARK    8  A    between atoms: C_8  and  C_9
REMARK    9  A    between atoms: N_11  and  C_12
REMARK   10  A    between atoms: C_18  and  C_19
REMARK                            x       y       z     vdW  Elec       q    Type
REMARK                         _______ _______ _______ _____ _____    ______ ____
ROOT
ATOM      1  C   UNL     1       4.194   5.733  17.513  0.00  0.00    +0.000 A 
ATOM      2  C   UNL     1       5.055   5.748  16.432  0.00  0.00    +0.000 A 
ATOM      3  N   UNL     1       5.159   4.461  16.002  0.00  0.00    +0.000 N 
ATOM      4  N   UNL     1       4.433   3.593  16.728  0.00  0.00    +0.000 NA
ATOM      5  C   UNL     1       3.842   4.351  17.673  0.00  0.00    +0.000 A 
ENDROOT
BRANCH   5   6
ATOM      6  C   UNL     1       2.928   3.792  18.681  0.00  0.00    +0.000 A 
ATOM      7  C   UNL     1       1.597   3.532  18.375  0.00  0.00    +0.000 A 
ATOM      8  C   UNL     1       0.739   3.142  19.402  0.00  0.00    +0.000 A 
ATOM      9  C   UNL     1       1.234   3.010  20.697  0.00  0.00    +0.000 A 
ATOM     10  C   UNL     1       2.577   3.252  20.908  0.00  0.00    +0.000 A 
ATOM     11  N   UNL     1       3.432   3.631  19.936  0.00  0.00    +0.000 NA
ENDBRANCH   5   6
BRANCH   3  12
ATOM     12  C   UNL     1       5.972   4.011  14.892  0.00  0.00    +0.000 C 
ATOM     13  C   UNL     1       5.183   3.761  13.611  0.00  0.00    +0.000 C 
ATOM     14  C   UNL     1       6.262   3.689  12.538  0.00  0.00    +0.000 C 
ATOM     15  C   UNL     1       7.398   4.589  13.022  0.00  0.00    +0.000 C 
ATOM     16  C   UNL     1       7.061   4.990  14.457  0.00  0.00    +0.000 C 
ENDBRANCH   3  12
BRANCH   1  17
ATOM     17  C   UNL     1       3.722   6.871  18.357  0.00  0.00    +0.000 C 
BRANCH  17  18
ATOM     18  N   UNL     1       2.399   7.294  17.893  0.00  0.00    +0.000 NA
ATOM     19  H   UNL     1       2.517   7.658  16.950  0.00  0.00    +0.000 HD
BRANCH  18  20
ATOM     20  C   UNL     1       1.870   8.360  18.756  0.00  0.00    +0.000 C 
BRANCH  20  21
ATOM     21  C   UNL     1       1.157   9.420  17.890  0.00  0.00    +0.000 C 
BRANCH  21  23
ATOM     22  C   UNL     1      -1.277  10.124  17.885  0.00  0.00    +0.000 C 
ATOM     23  C   UNL     1       0.060  10.223  18.628  0.00  0.00    +0.000 C 
ATOM     24  C   UNL     1      -0.113   9.778  20.080  0.00  0.00    +0.000 C 
ENDBRANCH  21  23
BRANCH  21  25
ATOM     25  O   UNL     1       2.154  10.338  17.419  0.00  0.00    +0.000 OA
ATOM     26  H   UNL     1       2.837   9.774  17.000  0.00  0.00    +0.000 HD
ENDBRANCH  21  25
ENDBRANCH  20  21
ENDBRANCH  18  20
ENDBRANCH  17  18
ENDBRANCH   1  17
TORSDOF 8
ENDMDL
MODEL 4
REMARK VINA RESULT:      -7.3      3.380      6.102
REMARK  Name = 
REMARK  10 active torsions:
REMARK  status: ('A' for Active; 'I' for Inactive)
REMARK    1  A    between atoms: C_1  and  C_2
REMARK    2  A    between atoms: C_2  and  C_3
REMARK    3  A    between atoms: C_2  and  C_4
REMARK    4  A    between atoms: C_4  and  O_5
REMARK    5  A    between atoms: C_4  and  C_6
REMARK    6  A    between atoms: C_6  and  N_7
REMARK    7  A    between atoms: N_7  and  C_8
REMARK    8  A    between atoms: C_8  and  C_9
REMARK    9  A    between atoms: N_11  and  C_12
REMARK   10  A    between atoms: C_18  and  C_19
REMARK                            x       y       z     vdW  Elec       q    Type
REMARK                         _______ _______ _______ _____ _____    ______ ____
ROOT
ATOM      1  C   UNL     1       3.064   6.001  18.101  0.00  0.00    +0.000 A 
ATOM      2  C   UNL     1       2.825   7.348  17.899  0.00  0.00    +0.000 A 
ATOM      3  N   UNL     1       2.150   7.789  18.996  0.00  0.00    +0.000 N 
ATOM      4  N   UNL     1       1.919   6.827  19.906  0.00  0.00    +0.000 NA
ATOM      5  C   UNL     1       2.459   5.714  19.369  0.00  0.00    +0.000 A 
ENDROOT
BRANCH   5   6
ATOM      6  C   UNL     1       2.446   4.415  20.059  0.00  0.00    +0.000 A 
ATOM      7  C   UNL     1       1.344   4.011  20.805  0.00  0.00    +0.000 A 
ATOM      8  C   UNL     1       1.438   2.841  21.557  0.00  0.00    +0.000 A 
ATOM      9  C   UNL     1       2.619   2.104  21.533  0.00  0.00    +0.000 A 
ATOM     10  C   UNL     1       3.653   2.556  20.736  0.00  0.00    +0.000 A 
ATOM     11  N   UNL     1       3.592   3.683  19.999  0.00  0.00    +0.000 NA
ENDBRANCH   5   6
BRANCH   3  12
ATOM     12  C   UNL     1       1.685   9.143  19.204  0.00  0.00    +0.000 C 
ATOM     13  C   UNL     1       0.782   9.665  18.090  0.00  0.00    +0.000 C 
ATOM     14  C   UNL     1       0.132  10.896  18.706  0.00  0.00    +0.000 C 
ATOM     15  C   UNL     1       0.051  10.624  20.208  0.00  0.00    +0.000 C 
ATOM     16  C   UNL     1       0.848   9.347  20.466  0.00  0.00    +0.000 C 
ENDBRANCH   3  12
BRANCH   1  17
ATOM     17  C   UNL     1       3.775   5.029  17.218  0.00  0.00    +0.000 C 
BRANCH  17  18
ATOM     18  N   UNL     1       4.911   5.701  16.583  0.00  0.00    +0.000 NA
ATOM     19  H   UNL     1       4.572   6.094  15.708  0.00  0.00    +0.000 HD
BRANCH  18  20
ATOM     20  C   UNL     1       5.980   4.735  16.293  0.00  0.00    +0.000 C 
BRANCH  20  21
ATOM     21  C   UNL     1       7.325   5.277  16.823  0.00  0.00    +0.000 C 
BRANCH  21  23
ATOM     22  C   UNL     1       7.887   5.791  19.239  0.00  0.00    +0.000 C 
ATOM     23  C   UNL     1       7.196   6.305  17.972  0.00  0.00    +0.000 C 
ATOM     24  C   UNL     1       7.750   7.678  17.593  0.00  0.00    +0.000 C 
ENDBRANCH  21  23
BRANCH  21  25
ATOM     25  O   UNL     1       8.087   4.158  17.297  0.00  0.00    +0.000 OA
ATOM     26  H   UNL     1       7.426   3.552  17.690  0.00  0.00    +0.000 HD
ENDBRANCH  21  25
ENDBRANCH  20  21
ENDBRANCH  18  20
ENDBRANCH  17  18
ENDBRANCH   1  17
TORSDOF 8
ENDMDL
MODEL 5
REMARK VINA RESULT:      -7.2      3.727      8.139
REMARK  Name = 
REMARK  10 active torsions:
REMARK  status: ('A' for Active; 'I' for Inactive)
REMARK    1  A    between atoms: C_1  and  C_2
REMARK    2  A    between atoms: C_2  and  C_3
REMARK    3  A    between atoms: C_2  and  C_4
REMARK    4  A    between atoms: C_4  and  O_5
REMARK    5  A    between atoms: C_4  and  C_6
REMARK    6  A    between atoms: C_6  and  N_7
REMARK    7  A    between atoms: N_7  and  C_8
REMARK    8  A    between atoms: C_8  and  C_9
REMARK    9  A    between atoms: N_11  and  C_12
REMARK   10  A    between atoms: C_18  and  C_19
REMARK                            x       y       z     vdW  Elec       q    Type
REMARK                         _______ _______ _______ _____ _____    ______ ____
ROOT
ATOM      1  C   UNL     1       3.494   5.737  17.861  0.00  0.00    +0.000 A 
ATOM      2  C   UNL     1       4.405   5.842  16.826  0.00  0.00    +0.000 A 
ATOM      3  N   UNL     1       4.885   4.588  16.605  0.00  0.00    +0.000 N 
ATOM      4  N   UNL     1       4.362   3.661  17.426  0.00  0.00    +0.000 NA
ATOM      5  C   UNL     1       3.515   4.348  18.218  0.00  0.00    +0.000 A 
ENDROOT
BRANCH   5   6
ATOM      6  C   UNL     1       2.705   3.700  19.263  0.00  0.00    +0.000 A 
ATOM      7  C   UNL     1       1.349   3.461  19.073  0.00  0.00    +0.000 A 
ATOM      8  C   UNL     1       0.599   2.980  20.145  0.00  0.00    +0.000 A 
ATOM      9  C   UNL     1       1.223   2.743  21.367  0.00  0.00    +0.000 A 
ATOM     10  C   UNL     1       2.581   2.972  21.459  0.00  0.00    +0.000 A 
ATOM     11  N   UNL     1       3.334   3.437  20.442  0.00  0.00    +0.000 NA
ENDBRANCH   5   6
BRANCH   3  12
ATOM     12  C   UNL     1       5.877   4.234  15.612  0.00  0.00    +0.000 C 
ATOM     13  C   UNL     1       5.303   4.018  14.215  0.00  0.00    +0.000 C 
ATOM     14  C   UNL     1       6.531   4.051  13.317  0.00  0.00    +0.000 C 
ATOM     15  C   UNL     1       7.535   4.972  14.009  0.00  0.00    +0.000 C 
ATOM     16  C   UNL     1       6.967   5.281  15.392  0.00  0.00    +0.000 C 
ENDBRANCH   3  12
BRANCH   1  17
ATOM     17  C   UNL     1       2.666   6.803  18.499  0.00  0.00    +0.000 C 
BRANCH  17  18
ATOM     18  N   UNL     1       2.853   6.752  19.950  0.00  0.00    +0.000 NA
ATOM     19  H   UNL     1       3.213   5.826  20.170  0.00  0.00    +0.000 HD
BRANCH  18  20
ATOM     20  C   UNL     1       1.569   6.943  20.639  0.00  0.00    +0.000 C 
BRANCH  20  21
ATOM     21  C   UNL     1       1.393   8.434  20.999  0.00  0.00    +0.000 C 
BRANCH  21  23
ATOM     22  C   UNL     1      -0.411   9.244  22.582  0.00  0.00    +0.000 C 
ATOM     23  C   UNL     1      -0.077   8.897  21.127  0.00  0.00    +0.000 C 
ATOM     24  C   UNL     1      -0.399  10.083  20.218  0.00  0.00    +0.000 C 
ENDBRANCH  21  23
BRANCH  21  25
ATOM     25  O   UNL     1       2.052   8.658  22.254  0.00  0.00    +0.000 OA
ATOM     26  H   UNL     1       1.543   9.378  22.680  0.00  0.00    +0.000 HD
ENDBRANCH  21  25
ENDBRANCH  20  21
ENDBRANCH  18  20
ENDBRANCH  17  18
ENDBRANCH   1  17
TORSDOF 8
ENDMDL
MODEL 6
REMARK VINA RESULT:      -7.2      0.664      1.214
REMARK  Name = 
REMARK  10 active torsions:
REMARK  status: ('A' for Active; 'I' for Inactive)
REMARK    1  A    between atoms: C_1  and  C_2
REMARK    2  A    between atoms: C_2  and  C_3
REMARK    3  A    between atoms: C_2  and  C_4
REMARK    4  A    between atoms: C_4  and  O_5
REMARK    5  A    between atoms: C_4  and  C_6
REMARK    6  A    between atoms: C_6  and  N_7
REMARK    7  A    between atoms: N_7  and  C_8
REMARK    8  A    between atoms: C_8  and  C_9
REMARK    9  A    between atoms: N_11  and  C_12
REMARK   10  A    between atoms: C_18  and  C_19
REMARK                            x       y       z     vdW  Elec       q    Type
REMARK                         _______ _______ _______ _____ _____    ______ ____
ROOT
ATOM      1  C   UNL     1       5.383   3.916  16.802  0.00  0.00    +0.000 A 
ATOM      2  C   UNL     1       4.334   3.121  17.225  0.00  0.00    +0.000 A 
ATOM      3  N   UNL     1       3.936   3.614  18.430  0.00  0.00    +0.000 N 
ATOM      4  N   UNL     1       4.654   4.675  18.837  0.00  0.00    +0.000 NA
ATOM      5  C   UNL     1       5.560   4.870  17.858  0.00  0.00    +0.000 A 
ENDROOT
BRANCH   5   6
ATOM      6  C   UNL     1       6.546   5.962  17.896  0.00  0.00    +0.000 A 
ATOM      7  C   UNL     1       7.583   5.959  18.822  0.00  0.00    +0.000 A 
ATOM      8  C   UNL     1       8.400   7.084  18.913  0.00  0.00    +0.000 A 
ATOM      9  C   UNL     1       8.168   8.170  18.073  0.00  0.00    +0.000 A 
ATOM     10  C   UNL     1       7.140   8.076  17.156  0.00  0.00    +0.000 A 
ATOM     11  N   UNL     1       6.332   7.002  17.044  0.00  0.00    +0.000 NA
ENDBRANCH   5   6
BRANCH   3  12
ATOM     12  C   UNL     1       2.868   3.076  19.244  0.00  0.00    +0.000 C 
ATOM     13  C   UNL     1       2.724   3.756  20.602  0.00  0.00    +0.000 C 
ATOM     14  C   UNL     1       1.350   3.309  21.080  0.00  0.00    +0.000 C 
ATOM     15  C   UNL     1       0.515   3.089  19.819  0.00  0.00    +0.000 C 
ATOM     16  C   UNL     1       1.473   3.197  18.634  0.00  0.00    +0.000 C 
ENDBRANCH   3  12
BRANCH   1  17
ATOM     17  C   UNL     1       6.183   3.828  15.544  0.00  0.00    +0.000 C 
BRANCH  17  18
ATOM     18  N   UNL     1       5.904   5.003  14.716  0.00  0.00    +0.000 NA
ATOM     19  H   UNL     1       5.204   5.554  15.208  0.00  0.00    +0.000 HD
BRANCH  18  20
ATOM     20  C   UNL     1       5.362   4.594  13.412  0.00  0.00    +0.000 C 
BRANCH  20  21
ATOM     21  C   UNL     1       6.259   3.495  12.802  0.00  0.00    +0.000 C 
BRANCH  21  23
ATOM     22  C   UNL     1       4.347   3.070  11.195  0.00  0.00    +0.000 C 
ATOM     23  C   UNL     1       5.500   2.430  11.976  0.00  0.00    +0.000 C 
ATOM     24  C   UNL     1       6.418   1.666  11.022  0.00  0.00    +0.000 C 
ENDBRANCH  21  23
BRANCH  21  25
ATOM     25  O   UNL     1       7.214   4.139  11.947  0.00  0.00    +0.000 OA
ATOM     26  H   UNL     1       8.019   3.585  12.007  0.00  0.00    +0.000 HD
ENDBRANCH  21  25
ENDBRANCH  20  21
ENDBRANCH  18  20
ENDBRANCH  17  18
ENDBRANCH   1  17
TORSDOF 8
ENDMDL
MODEL 7
REMARK VINA RESULT:      -7.1      3.514      6.100
REMARK  Name = 
REMARK  10 active torsions:
REMARK  status: ('A' for Active; 'I' for Inactive)
REMARK    1  A    between atoms: C_1  and  C_2
REMARK    2  A    between atoms: C_2  and  C_3
REMARK    3  A    between atoms: C_2  and  C_4
REMARK    4  A    between atoms: C_4  and  O_5
REMARK    5  A    between atoms: C_4  and  C_6
REMARK    6  A    between atoms: C_6  and  N_7
REMARK    7  A    between atoms: N_7  and  C_8
REMARK    8  A    between atoms: C_8  and  C_9
REMARK    9  A    between atoms: N_11  and  C_12
REMARK   10  A    between atoms: C_18  and  C_19
REMARK                            x       y       z     vdW  Elec       q    Type
REMARK                         _______ _______ _______ _____ _____    ______ ____
ROOT
ATOM      1  C   UNL     1       2.708   5.101  17.678  0.00  0.00    +0.000 A 
ATOM      2  C   UNL     1       1.878   6.004  18.314  0.00  0.00    +0.000 A 
ATOM      3  N   UNL     1       2.588   7.159  18.441  0.00  0.00    +0.000 N 
ATOM      4  N   UNL     1       3.832   7.080  17.939  0.00  0.00    +0.000 NA
ATOM      5  C   UNL     1       3.934   5.817  17.477  0.00  0.00    +0.000 A 
ENDROOT
BRANCH   5   6
ATOM      6  C   UNL     1       5.149   5.309  16.820  0.00  0.00    +0.000 A 
ATOM      7  C   UNL     1       6.242   4.882  17.565  0.00  0.00    +0.000 A 
ATOM      8  C   UNL     1       7.417   4.549  16.896  0.00  0.00    +0.000 A 
ATOM      9  C   UNL     1       7.466   4.639  15.507  0.00  0.00    +0.000 A 
ATOM     10  C   UNL     1       6.323   5.037  14.841  0.00  0.00    +0.000 A 
ATOM     11  N   UNL     1       5.172   5.367  15.460  0.00  0.00    +0.000 NA
ENDBRANCH   5   6
BRANCH   3  12
ATOM     12  C   UNL     1       2.108   8.374  19.063  0.00  0.00    +0.000 C 
ATOM     13  C   UNL     1       1.110   9.152  18.211  0.00  0.00    +0.000 C 
ATOM     14  C   UNL     1       0.480  10.124  19.199  0.00  0.00    +0.000 C 
ATOM     15  C   UNL     1       0.522   9.429  20.559  0.00  0.00    +0.000 C 
ATOM     16  C   UNL     1       1.367   8.169  20.383  0.00  0.00    +0.000 C 
ENDBRANCH   3  12
BRANCH   1  17
ATOM     17  C   UNL     1       2.433   3.687  17.281  0.00  0.00    +0.000 C 
BRANCH  17  18
ATOM     18  N   UNL     1       1.250   3.209  18.000  0.00  0.00    +0.000 NA
ATOM     19  H   UNL     1       0.917   3.983  18.571  0.00  0.00    +0.000 HD
BRANCH  18  20
ATOM     20  C   UNL     1       1.603   2.084  18.877  0.00  0.00    +0.000 C 
BRANCH  20  21
ATOM     21  C   UNL     1       1.290   2.453  20.343  0.00  0.00    +0.000 C 
BRANCH  21  23
ATOM     22  C   UNL     1       3.819   2.559  20.457  0.00  0.00    +0.000 C 
ATOM     23  C   UNL     1       2.511   2.937  21.160  0.00  0.00    +0.000 C 
ATOM     24  C   UNL     1       2.476   4.441  21.428  0.00  0.00    +0.000 C 
ENDBRANCH  21  23
BRANCH  21  25
ATOM     25  O   UNL     1       0.309   3.501  20.327  0.00  0.00    +0.000 OA
ATOM     26  H   UNL     1      -0.183   3.397  21.167  0.00  0.00    +0.000 HD
ENDBRANCH  21  25
ENDBRANCH  20  21
ENDBRANCH  18  20
ENDBRANCH  17  18
ENDBRANCH   1  17
TORSDOF 8
ENDMDL
MODEL 8
REMARK VINA RESULT:      -7.1      2.733      6.337
REMARK  Name = 
REMARK  10 active torsions:
REMARK  status: ('A' for Active; 'I' for Inactive)
REMARK    1  A    between atoms: C_1  and  C_2
REMARK    2  A    between atoms: C_2  and  C_3
REMARK    3  A    between atoms: C_2  and  C_4
REMARK    4  A    between atoms: C_4  and  O_5
REMARK    5  A    between atoms: C_4  and  C_6
REMARK    6  A    between atoms: C_6  and  N_7
REMARK    7  A    between atoms: N_7  and  C_8
REMARK    8  A    between atoms: C_8  and  C_9
REMARK    9  A    between atoms: N_11  and  C_12
REMARK   10  A    between atoms: C_18  and  C_19
REMARK                            x       y       z     vdW  Elec       q    Type
REMARK                         _______ _______ _______ _____ _____    ______ ____
ROOT
ATOM      1  C   UNL     1       5.391   4.389  17.983  0.00  0.00    +0.000 A 
ATOM      2  C   UNL     1       6.163   3.766  17.021  0.00  0.00    +0.000 A 
ATOM      3  N   UNL     1       6.019   4.492  15.879  0.00  0.00    +0.000 N 
ATOM      4  N   UNL     1       5.198   5.548  16.016  0.00  0.00    +0.000 NA
ATOM      5  C   UNL     1       4.788   5.496  17.299  0.00  0.00    +0.000 A 
ENDROOT
BRANCH   5   6
ATOM      6  C   UNL     1       3.880   6.497  17.883  0.00  0.00    +0.000 A 
ATOM      7  C   UNL     1       3.270   6.280  19.113  0.00  0.00    +0.000 A 
ATOM      8  C   UNL     1       2.309   7.188  19.552  0.00  0.00    +0.000 A 
ATOM      9  C   UNL     1       1.992   8.288  18.759  0.00  0.00    +0.000 A 
ATOM     10  C   UNL     1       2.672   8.449  17.568  0.00  0.00    +0.000 A 
ATOM     11  N   UNL     1       3.606   7.588  17.116  0.00  0.00    +0.000 NA
ENDBRANCH   5   6
BRANCH   3  12
ATOM     12  C   UNL     1       6.645   4.191  14.610  0.00  0.00    +0.000 C 
ATOM     13  C   UNL     1       5.659   3.804  13.511  0.00  0.00    +0.000 C 
ATOM     14  C   UNL     1       6.483   3.923  12.236  0.00  0.00    +0.000 C 
ATOM     15  C   UNL     1       7.523   5.010  12.506  0.00  0.00    +0.000 C 
ATOM     16  C   UNL     1       7.431   5.346  13.993  0.00  0.00    +0.000 C 
ENDBRANCH   3  12
BRANCH   1  17
ATOM     17  C   UNL     1       5.193   4.019  19.417  0.00  0.00    +0.000 C 
BRANCH  17  18
ATOM     18  N   UNL     1       4.741   2.629  19.495  0.00  0.00    +0.000 NA
ATOM     19  H   UNL     1       4.577   2.316  18.540  0.00  0.00    +0.000 HD
BRANCH  18  20
ATOM     20  C   UNL     1       3.485   2.541  20.252  0.00  0.00    +0.000 C 
BRANCH  20  21
ATOM     21  C   UNL     1       2.392   1.904  19.366  0.00  0.00    +0.000 C 
BRANCH  21  23
ATOM     22  C   UNL     1       0.872   3.732  20.243  0.00  0.00    +0.000 C 
ATOM     23  C   UNL     1       1.201   2.837  19.043  0.00  0.00    +0.000 C 
ATOM     24  C   UNL     1       1.449   3.694  17.802  0.00  0.00    +0.000 C 
ENDBRANCH  21  23
BRANCH  21  25
ATOM     25  O   UNL     1       3.008   1.509  18.132  0.00  0.00    +0.000 OA
ATOM     26  H   UNL     1       3.426   0.645  18.325  0.00  0.00    +0.000 HD
ENDBRANCH  21  25
ENDBRANCH  20  21
ENDBRANCH  18  20
ENDBRANCH  17  18
ENDBRANCH   1  17
TORSDOF 8
ENDMDL
MODEL 9
REMARK VINA RESULT:      -7.1      3.491      7.575
REMARK  Name = 
REMARK  10 active torsions:
REMARK  status: ('A' for Active; 'I' for Inactive)
REMARK    1  A    between atoms: C_1  and  C_2
REMARK    2  A    between atoms: C_2  and  C_3
REMARK    3  A    between atoms: C_2  and  C_4
REMARK    4  A    between atoms: C_4  and  O_5
REMARK    5  A    between atoms: C_4  and  C_6
REMARK    6  A    between atoms: C_6  and  N_7
REMARK    7  A    between atoms: N_7  and  C_8
REMARK    8  A    between atoms: C_8  and  C_9
REMARK    9  A    between atoms: N_11  and  C_12
REMARK   10  A    between atoms: C_18  and  C_19
REMARK                            x       y       z     vdW  Elec       q    Type
REMARK                         _______ _______ _______ _____ _____    ______ ____
ROOT
ATOM      1  C   UNL     1       4.483   5.956  17.059  0.00  0.00    +0.000 A 
ATOM      2  C   UNL     1       5.366   5.882  15.998  0.00  0.00    +0.000 A 
ATOM      3  N   UNL     1       5.354   4.588  15.575  0.00  0.00    +0.000 N 
ATOM      4  N   UNL     1       4.531   3.799  16.287  0.00  0.00    +0.000 NA
ATOM      5  C   UNL     1       3.995   4.616  17.216  0.00  0.00    +0.000 A 
ENDROOT
BRANCH   5   6
ATOM      6  C   UNL     1       3.009   4.153  18.205  0.00  0.00    +0.000 A 
ATOM      7  C   UNL     1       3.353   4.000  19.543  0.00  0.00    +0.000 A 
ATOM      8  C   UNL     1       2.428   3.422  20.409  0.00  0.00    +0.000 A 
ATOM      9  C   UNL     1       1.186   3.024  19.921  0.00  0.00    +0.000 A 
ATOM     10  C   UNL     1       0.910   3.246  18.586  0.00  0.00    +0.000 A 
ATOM     11  N   UNL     1       1.785   3.803  17.723  0.00  0.00    +0.000 NA
ENDBRANCH   5   6
BRANCH   3  12
ATOM     12  C   UNL     1       6.144   4.055  14.486  0.00  0.00    +0.000 C 
ATOM     13  C   UNL     1       5.319   3.620  13.279  0.00  0.00    +0.000 C 
ATOM     14  C   UNL     1       6.354   3.480  12.172  0.00  0.00    +0.000 C 
ATOM     15  C   UNL     1       7.458   4.485  12.497  0.00  0.00    +0.000 C 
ATOM     16  C   UNL     1       7.158   5.031  13.892  0.00  0.00    +0.000 C 
ENDBRANCH   3  12
BRANCH   1  17
ATOM     17  C   UNL     1       4.104   7.139  17.888  0.00  0.00    +0.000 C 
BRANCH  17  18
ATOM     18  N   UNL     1       2.828   7.673  17.406  0.00  0.00    +0.000 NA
ATOM     19  H   UNL     1       3.048   8.413  16.743  0.00  0.00    +0.000 HD
BRANCH  18  20
ATOM     20  C   UNL     1       2.057   8.239  18.521  0.00  0.00    +0.000 C 
BRANCH  20  21
ATOM     21  C   UNL     1       1.220   9.434  18.015  0.00  0.00    +0.000 C 
BRANCH  21  23
ATOM     22  C   UNL     1      -1.057  10.358  18.631  0.00  0.00    +0.000 C 
ATOM     23  C   UNL     1       0.383  10.142  19.107  0.00  0.00    +0.000 C 
ATOM     24  C   UNL     1       0.388   9.381  20.433  0.00  0.00    +0.000 C 
ENDBRANCH  21  23
BRANCH  21  25
ATOM     25  O   UNL     1       2.127  10.390  17.447  0.00  0.00    +0.000 OA
ATOM     26  H   UNL     1       1.648  10.766  16.680  0.00  0.00    +0.000 HD
ENDBRANCH  21  25
ENDBRANCH  20  21
ENDBRANCH  18  20
ENDBRANCH  17  18
ENDBRANCH   1  17
TORSDOF 8
ENDMDL
