MODEL 1
REMARK VINA RESULT:      -7.6      0.000      0.000
REMARK  Name = 
REMARK  6 active torsions:
REMARK  status: ('A' for Active; 'I' for Inactive)
REMARK    1  A    between atoms: C_1  and  N_2
REMARK    2  A    between atoms: C_5  and  N_6
REMARK    3  A    between atoms: N_6  and  C_7
REMARK    4  A    between atoms: C_13  and  O_14
REMARK    5  A    between atoms: O_14  and  C_15
REMARK    6  A    between atoms: C_15  and  C_16
REMARK                            x       y       z     vdW  Elec       q    Type
REMARK                         _______ _______ _______ _____ _____    ______ ____
ROOT
ATOM      1  C   UNL     1       6.322   4.850  18.345  0.00  0.00    +0.000 A 
ATOM      2  C   UNL     1       7.385   5.282  19.160  0.00  0.00    +0.000 A 
ATOM      3  C   UNL     1       7.991   6.526  18.970  0.00  0.00    +0.000 A 
ATOM      4  C   UNL     1       7.566   7.350  17.940  0.00  0.00    +0.000 A 
ATOM      5 CL   UNL     1       8.281   8.900  17.735  0.00  0.00    +0.000 Cl
ATOM      6  C   UNL     1       6.564   6.924  17.077  0.00  0.00    +0.000 A 
ATOM      7  C   UNL     1       5.941   5.680  17.267  0.00  0.00    +0.000 A 
ENDROOT
BRANCH   1   8
ATOM      8  N   UNL     1       5.719   3.599  18.543  0.00  0.00    +0.000 N 
ATOM      9  H   UNL     1       6.424   2.885  18.743  0.00  0.00    +0.000 HD
BRANCH   8  14
ATOM     10  C   UNL     1       1.039   2.521  18.708  0.00  0.00    +0.000 C 
ATOM     11  N   UNL     1       2.290   3.212  18.908  0.00  0.00    +0.000 N 
ATOM     12  C   UNL     1       2.364   4.436  19.655  0.00  0.00    +0.000 C 
ATOM     13  C   UNL     1       3.829   4.815  19.608  0.00  0.00    +0.000 C 
ATOM     14  C   UNL     1       4.579   3.485  19.467  0.00  0.00    +0.000 C 
ATOM     15  C   UNL     1       3.512   2.549  18.887  0.00  0.00    +0.000 C 
ATOM     16  O   UNL     1       3.709   1.402  18.512  0.00  0.00    +0.000 OA
ENDBRANCH   8  14
ENDBRANCH   1   8
BRANCH   7  17
ATOM     17  O   UNL     1       4.995   5.411  16.312  0.00  0.00    +0.000 OA
BRANCH  17  18
ATOM     18  C   UNL     1       5.397   5.482  14.938  0.00  0.00    +0.000 C 
BRANCH  18  19
ATOM     19  C   UNL     1       6.231   4.265  14.543  0.00  0.00    +0.000 C 
ATOM     20  F   UNL     1       6.017   3.867  13.270  0.00  0.00    +0.000 F 
ATOM     21  F   UNL     1       7.555   4.517  14.671  0.00  0.00    +0.000 F 
ATOM     22  F   UNL     1       5.948   3.208  15.345  0.00  0.00    +0.000 F 
ENDBRANCH  18  19
ENDBRANCH  17  18
ENDBRANCH   7  17
TORSDOF 5
ENDMDL
MODEL 2
REMARK VINA RESULT:      -7.5      1.121      1.648
REMARK  Name = 
REMARK  6 active torsions:
REMARK  status: ('A' for Active; 'I' for Inactive)
REMARK    1  A    between atoms: C_1  and  N_2
REMARK    2  A    between atoms: C_5  and  N_6
REMARK    3  A    between atoms: N_6  and  C_7
REMARK    4  A    between atoms: C_13  and  O_14
REMARK    5  A    between atoms: O_14  and  C_15
REMARK    6  A    between atoms: C_15  and  C_16
REMARK                            x       y       z     vdW  Elec       q    Type
REMARK                         _______ _______ _______ _____ _____    ______ ____
ROOT
ATOM      1  C   UNL     1       6.196   4.835  18.395  0.00  0.00    +0.000 A 
ATOM      2  C   UNL     1       7.261   5.250  19.218  0.00  0.00    +0.000 A 
ATOM      3  C   UNL     1       7.914   6.466  19.009  0.00  0.00    +0.000 A 
ATOM      4  C   UNL     1       7.536   7.279  17.951  0.00  0.00    +0.000 A 
ATOM      5 CL   UNL     1       8.310   8.797  17.721  0.00  0.00    +0.000 Cl
ATOM      6  C   UNL     1       6.535   6.867  17.081  0.00  0.00    +0.000 A 
ATOM      7  C   UNL     1       5.864   5.652  17.291  0.00  0.00    +0.000 A 
ENDROOT
BRANCH   1   8
ATOM      8  N   UNL     1       5.545   3.613  18.613  0.00  0.00    +0.000 N 
ATOM      9  H   UNL     1       5.785   3.233  19.532  0.00  0.00    +0.000 HD
BRANCH   8  14
ATOM     10  C   UNL     1       1.308   3.242  20.849  0.00  0.00    +0.000 C 
ATOM     11  N   UNL     1       2.396   2.997  19.933  0.00  0.00    +0.000 N 
ATOM     12  C   UNL     1       2.319   1.974  18.929  0.00  0.00    +0.000 C 
ATOM     13  C   UNL     1       3.651   2.051  18.214  0.00  0.00    +0.000 C 
ATOM     14  C   UNL     1       4.098   3.510  18.363  0.00  0.00    +0.000 C 
ATOM     15  C   UNL     1       3.309   3.988  19.588  0.00  0.00    +0.000 C 
ATOM     16  O   UNL     1       3.441   5.073  20.133  0.00  0.00    +0.000 OA
ENDBRANCH   8  14
ENDBRANCH   1   8
BRANCH   7  17
ATOM     17  O   UNL     1       4.925   5.393  16.326  0.00  0.00    +0.000 OA
BRANCH  17  18
ATOM     18  C   UNL     1       5.361   5.376  14.960  0.00  0.00    +0.000 C 
BRANCH  18  19
ATOM     19  C   UNL     1       6.229   4.153  14.674  0.00  0.00    +0.000 C 
ATOM     20  F   UNL     1       5.944   3.101  15.472  0.00  0.00    +0.000 F 
ATOM     21  F   UNL     1       6.084   3.738  13.392  0.00  0.00    +0.000 F 
ATOM     22  F   UNL     1       7.542   4.444  14.850  0.00  0.00    +0.000 F 
ENDBRANCH  18  19
ENDBRANCH  17  18
ENDBRANCH   7  17
TORSDOF 5
ENDMDL
MODEL 3
REMARK VINA RESULT:      -7.3      3.442      5.909
REMARK  Name = 
REMARK  6 active torsions:
REMARK  status: ('A' for Active; 'I' for Inactive)
REMARK    1  A    between atoms: C_1  and  N_2
REMARK    2  A    between atoms: C_5  and  N_6
REMARK    3  A    between atoms: N_6  and  C_7
REMARK    4  A    between atoms: C_13  and  O_14
REMARK    5  A    between atoms: O_14  and  C_15
REMARK    6  A    between atoms: C_15  and  C_16
REMARK                            x       y       z     vdW  Elec       q    Type
REMARK                         _______ _______ _______ _____ _____    ______ ____
ROOT
ATOM      1  C   UNL     1       4.036   4.436  17.458  0.00  0.00    +0.000 A 
ATOM      2  C   UNL     1       2.685   4.111  17.230  0.00  0.00    +0.000 A 
ATOM      3  C   UNL     1       1.909   3.492  18.211  0.00  0.00    +0.000 A 
ATOM      4  C   UNL     1       2.476   3.157  19.430  0.00  0.00    +0.000 A 
ATOM      5 CL   UNL     1       1.508   2.436  20.655  0.00  0.00    +0.000 Cl
ATOM      6  C   UNL     1       3.823   3.405  19.662  0.00  0.00    +0.000 A 
ATOM      7  C   UNL     1       4.609   4.037  18.686  0.00  0.00    +0.000 A 
ENDROOT
BRANCH   1   8
ATOM      8  N   UNL     1       4.809   5.059  16.467  0.00  0.00    +0.000 N 
ATOM      9  H   UNL     1       5.231   5.920  16.824  0.00  0.00    +0.000 HD
BRANCH   8  14
ATOM     10  C   UNL     1       8.115   5.387  12.995  0.00  0.00    +0.000 C 
ATOM     11  N   UNL     1       6.994   4.919  13.775  0.00  0.00    +0.000 N 
ATOM     12  C   UNL     1       6.239   3.760  13.392  0.00  0.00    +0.000 C 
ATOM     13  C   UNL     1       5.173   3.637  14.459  0.00  0.00    +0.000 C 
ATOM     14  C   UNL     1       5.793   4.265  15.713  0.00  0.00    +0.000 C 
ATOM     15  C   UNL     1       6.886   5.175  15.138  0.00  0.00    +0.000 C 
ATOM     16  O   UNL     1       7.566   5.957  15.786  0.00  0.00    +0.000 OA
ENDBRANCH   8  14
ENDBRANCH   1   8
BRANCH   7  17
ATOM     17  O   UNL     1       5.917   4.180  19.071  0.00  0.00    +0.000 OA
BRANCH  17  18
ATOM     18  C   UNL     1       6.389   5.506  19.346  0.00  0.00    +0.000 C 
BRANCH  18  19
ATOM     19  C   UNL     1       7.909   5.588  19.216  0.00  0.00    +0.000 C 
ATOM     20  F   UNL     1       8.340   6.798  18.796  0.00  0.00    +0.000 F 
ATOM     21  F   UNL     1       8.517   5.330  20.398  0.00  0.00    +0.000 F 
ATOM     22  F   UNL     1       8.365   4.671  18.326  0.00  0.00    +0.000 F 
ENDBRANCH  18  19
ENDBRANCH  17  18
ENDBRANCH   7  17
TORSDOF 5
ENDMDL
MODEL 4
REMARK VINA RESULT:      -7.2      3.893      5.928
REMARK  Name = 
REMARK  6 active torsions:
REMARK  status: ('A' for Active; 'I' for Inactive)
REMARK    1  A    between atoms: C_1  and  N_2
REMARK    2  A    between atoms: C_5  and  N_6
REMARK    3  A    between atoms: N_6  and  C_7
REMARK    4  A    between atoms: C_13  and  O_14
REMARK    5  A    between atoms: O_14  and  C_15
REMARK    6  A    between atoms: C_15  and  C_16
REMARK                            x       y       z     vdW  Elec       q    Type
REMARK                         _______ _______ _______ _____ _____    ______ ____
ROOT
ATOM      1  C   UNL     1       2.881   6.906  18.365  0.00  0.00    +0.000 A 
ATOM      2  C   UNL     1       2.555   8.136  17.762  0.00  0.00    +0.000 A 
ATOM      3  C   UNL     1       1.855   9.125  18.456  0.00  0.00    +0.000 A 
ATOM      4  C   UNL     1       1.439   8.892  19.758  0.00  0.00    +0.000 A 
ATOM      5 CL   UNL     1       0.618  10.127  20.627  0.00  0.00    +0.000 Cl
ATOM      6  C   UNL     1       1.688   7.664  20.357  0.00  0.00    +0.000 A 
ATOM      7  C   UNL     1       2.401   6.668  19.672  0.00  0.00    +0.000 A 
ENDROOT
BRANCH   1   8
ATOM      8  N   UNL     1       3.585   5.918  17.661  0.00  0.00    +0.000 N 
ATOM      9  H   UNL     1       3.161   5.755  16.744  0.00  0.00    +0.000 HD
BRANCH   8  14
ATOM     10  C   UNL     1       7.258   4.976  14.709  0.00  0.00    +0.000 C 
ATOM     11  N   UNL     1       6.441   5.038  15.897  0.00  0.00    +0.000 N 
ATOM     12  C   UNL     1       6.887   4.495  17.149  0.00  0.00    +0.000 C 
ATOM     13  C   UNL     1       5.741   4.760  18.102  0.00  0.00    +0.000 C 
ATOM     14  C   UNL     1       5.050   6.014  17.552  0.00  0.00    +0.000 C 
ATOM     15  C   UNL     1       5.477   6.025  16.080  0.00  0.00    +0.000 C 
ATOM     16  O   UNL     1       5.064   6.801  15.231  0.00  0.00    +0.000 OA
ENDBRANCH   8  14
ENDBRANCH   1   8
BRANCH   7  17
ATOM     17  O   UNL     1       2.533   5.515  20.401  0.00  0.00    +0.000 OA
BRANCH  17  18
ATOM     18  C   UNL     1       1.379   4.675  20.534  0.00  0.00    +0.000 C 
BRANCH  18  19
ATOM     19  C   UNL     1       1.345   3.607  19.443  0.00  0.00    +0.000 C 
ATOM     20  F   UNL     1       1.043   4.105  18.224  0.00  0.00    +0.000 F 
ATOM     21  F   UNL     1       2.538   2.976  19.337  0.00  0.00    +0.000 F 
ATOM     22  F   UNL     1       0.418   2.658  19.728  0.00  0.00    +0.000 F 
ENDBRANCH  18  19
ENDBRANCH  17  18
ENDBRANCH   7  17
TORSDOF 5
ENDMDL
MODEL 5
REMARK VINA RESULT:      -7.2      4.076      6.293
REMARK  Name = 
REMARK  6 active torsions:
REMARK  status: ('A' for Active; 'I' for Inactive)
REMARK    1  A    between atoms: C_1  and  N_2
REMARK    2  A    between atoms: C_5  and  N_6
REMARK    3  A    between atoms: N_6  and  C_7
REMARK    4  A    between atoms: C_13  and  O_14
REMARK    5  A    between atoms: O_14  and  C_15
REMARK    6  A    between atoms: C_15  and  C_16
REMARK                            x       y       z     vdW  Elec       q    Type
REMARK                         _______ _______ _______ _____ _____    ______ ____
ROOT
ATOM      1  C   UNL     1       2.961   6.518  18.393  0.00  0.00    +0.000 A 
ATOM      2  C   UNL     1       2.453   7.785  18.048  0.00  0.00    +0.000 A 
ATOM      3  C   UNL     1       1.771   8.575  18.975  0.00  0.00    +0.000 A 
ATOM      4  C   UNL     1       1.555   8.101  20.259  0.00  0.00    +0.000 A 
ATOM      5 CL   UNL     1       0.756   9.093  21.414  0.00  0.00    +0.000 Cl
ATOM      6  C   UNL     1       1.985   6.828  20.612  0.00  0.00    +0.000 A 
ATOM      7  C   UNL     1       2.682   6.030  19.690  0.00  0.00    +0.000 A 
ENDROOT
BRANCH   1   8
ATOM      8  N   UNL     1       3.645   5.731  17.456  0.00  0.00    +0.000 N 
ATOM      9  H   UNL     1       3.199   5.792  16.537  0.00  0.00    +0.000 HD
BRANCH   8  14
ATOM     10  C   UNL     1       7.298   5.044  14.410  0.00  0.00    +0.000 C 
ATOM     11  N   UNL     1       6.493   5.013  15.607  0.00  0.00    +0.000 N 
ATOM     12  C   UNL     1       6.960   4.391  16.814  0.00  0.00    +0.000 C 
ATOM     13  C   UNL     1       5.820   4.574  17.794  0.00  0.00    +0.000 C 
ATOM     14  C   UNL     1       5.107   5.853  17.340  0.00  0.00    +0.000 C 
ATOM     15  C   UNL     1       5.519   5.972  15.867  0.00  0.00    +0.000 C 
ATOM     16  O   UNL     1       5.086   6.799  15.078  0.00  0.00    +0.000 OA
ENDBRANCH   8  14
ENDBRANCH   1   8
BRANCH   7  17
ATOM     17  O   UNL     1       3.008   4.799  20.196  0.00  0.00    +0.000 OA
BRANCH  17  18
ATOM     18  C   UNL     1       2.249   4.315  21.311  0.00  0.00    +0.000 C 
BRANCH  18  19
ATOM     19  C   UNL     1       1.396   3.111  20.917  0.00  0.00    +0.000 C 
ATOM     20  F   UNL     1       2.082   2.183  20.214  0.00  0.00    +0.000 F 
ATOM     21  F   UNL     1       0.885   2.494  22.009  0.00  0.00    +0.000 F 
ATOM     22  F   UNL     1       0.346   3.496  20.150  0.00  0.00    +0.000 F 
ENDBRANCH  18  19
ENDBRANCH  17  18
ENDBRANCH   7  17
TORSDOF 5
ENDMDL
MODEL 6
REMARK VINA RESULT:      -7.2      1.396      1.794
REMARK  Name = 
REMARK  6 active torsions:
REMARK  status: ('A' for Active; 'I' for Inactive)
REMARK    1  A    between atoms: C_1  and  N_2
REMARK    2  A    between atoms: C_5  and  N_6
REMARK    3  A    between atoms: N_6  and  C_7
REMARK    4  A    between atoms: C_13  and  O_14
REMARK    5  A    between atoms: O_14  and  C_15
REMARK    6  A    between atoms: C_15  and  C_16
REMARK                            x       y       z     vdW  Elec       q    Type
REMARK                         _______ _______ _______ _____ _____    ______ ____
ROOT
ATOM      1  C   UNL     1       6.094   4.593  18.350  0.00  0.00    +0.000 A 
ATOM      2  C   UNL     1       6.854   5.238  19.344  0.00  0.00    +0.000 A 
ATOM      3  C   UNL     1       7.532   6.431  19.086  0.00  0.00    +0.000 A 
ATOM      4  C   UNL     1       7.488   6.988  17.817  0.00  0.00    +0.000 A 
ATOM      5 CL   UNL     1       8.284   8.481  17.511  0.00  0.00    +0.000 Cl
ATOM      6  C   UNL     1       6.801   6.341  16.797  0.00  0.00    +0.000 A 
ATOM      7  C   UNL     1       6.108   5.147  17.051  0.00  0.00    +0.000 A 
ENDROOT
BRANCH   1   8
ATOM      8  N   UNL     1       5.417   3.395  18.619  0.00  0.00    +0.000 N 
ATOM      9  H   UNL     1       5.676   3.030  19.539  0.00  0.00    +0.000 HD
BRANCH   8  14
ATOM     10  C   UNL     1       1.250   3.120  20.998  0.00  0.00    +0.000 C 
ATOM     11  N   UNL     1       2.300   2.851  20.045  0.00  0.00    +0.000 N 
ATOM     12  C   UNL     1       2.164   1.834  19.041  0.00  0.00    +0.000 C 
ATOM     13  C   UNL     1       3.473   1.881  18.281  0.00  0.00    +0.000 C 
ATOM     14  C   UNL     1       3.960   3.328  18.419  0.00  0.00    +0.000 C 
ATOM     15  C   UNL     1       3.225   3.821  19.671  0.00  0.00    +0.000 C 
ATOM     16  O   UNL     1       3.402   4.901  20.214  0.00  0.00    +0.000 OA
ENDBRANCH   8  14
ENDBRANCH   1   8
BRANCH   7  17
ATOM     17  O   UNL     1       5.509   4.635  15.929  0.00  0.00    +0.000 OA
BRANCH  17  18
ATOM     18  C   UNL     1       6.240   3.665  15.168  0.00  0.00    +0.000 C 
BRANCH  18  19
ATOM     19  C   UNL     1       6.162   3.965  13.672  0.00  0.00    +0.000 C 
ATOM     20  F   UNL     1       7.056   4.895  13.270  0.00  0.00    +0.000 F 
ATOM     21  F   UNL     1       6.382   2.849  12.937  0.00  0.00    +0.000 F 
ATOM     22  F   UNL     1       4.930   4.424  13.338  0.00  0.00    +0.000 F 
ENDBRANCH  18  19
ENDBRANCH  17  18
ENDBRANCH   7  17
TORSDOF 5
ENDMDL
MODEL 7
REMARK VINA RESULT:      -7.2      4.674      5.929
REMARK  Name = 
REMARK  6 active torsions:
REMARK  status: ('A' for Active; 'I' for Inactive)
REMARK    1  A    between atoms: C_1  and  N_2
REMARK    2  A    between atoms: C_5  and  N_6
REMARK    3  A    between atoms: N_6  and  C_7
REMARK    4  A    between atoms: C_13  and  O_14
REMARK    5  A    between atoms: O_14  and  C_15
REMARK    6  A    between atoms: C_15  and  C_16
REMARK                            x       y       z     vdW  Elec       q    Type
REMARK                         _______ _______ _______ _____ _____    ______ ____
ROOT
ATOM      1  C   UNL     1       3.566   6.449  18.179  0.00  0.00    +0.000 A 
ATOM      2  C   UNL     1       4.474   6.882  17.194  0.00  0.00    +0.000 A 
ATOM      3  C   UNL     1       5.734   6.296  17.056  0.00  0.00    +0.000 A 
ATOM      4  C   UNL     1       6.124   5.287  17.922  0.00  0.00    +0.000 A 
ATOM      5 CL   UNL     1       7.657   4.535  17.723  0.00  0.00    +0.000 Cl
ATOM      6  C   UNL     1       5.277   4.883  18.946  0.00  0.00    +0.000 A 
ATOM      7  C   UNL     1       4.003   5.457  19.085  0.00  0.00    +0.000 A 
ENDROOT
BRANCH   1   8
ATOM      8  N   UNL     1       2.302   7.042  18.311  0.00  0.00    +0.000 N 
ATOM      9  H   UNL     1       1.676   6.444  18.857  0.00  0.00    +0.000 HD
BRANCH   8  14
ATOM     10  C   UNL     1      -0.338  10.018  21.007  0.00  0.00    +0.000 C 
ATOM     11  N   UNL     1       0.399   9.476  19.890  0.00  0.00    +0.000 N 
ATOM     12  C   UNL     1       0.546  10.202  18.660  0.00  0.00    +0.000 C 
ATOM     13  C   UNL     1       1.361   9.281  17.778  0.00  0.00    +0.000 C 
ATOM     14  C   UNL     1       2.203   8.444  18.747  0.00  0.00    +0.000 C 
ATOM     15  C   UNL     1       1.415   8.541  20.059  0.00  0.00    +0.000 C 
ATOM     16  O   UNL     1       1.672   7.927  21.084  0.00  0.00    +0.000 OA
ENDBRANCH   8  14
ENDBRANCH   1   8
BRANCH   7  17
ATOM     17  O   UNL     1       3.314   4.960  20.160  0.00  0.00    +0.000 OA
BRANCH  17  18
ATOM     18  C   UNL     1       2.731   3.656  20.032  0.00  0.00    +0.000 C 
BRANCH  18  19
ATOM     19  C   UNL     1       1.282   3.650  20.513  0.00  0.00    +0.000 C 
ATOM     20  F   UNL     1       0.775   4.890  20.688  0.00  0.00    +0.000 F 
ATOM     21  F   UNL     1       0.477   3.005  19.635  0.00  0.00    +0.000 F 
ATOM     22  F   UNL     1       1.172   3.003  21.701  0.00  0.00    +0.000 F 
ENDBRANCH  18  19
ENDBRANCH  17  18
ENDBRANCH   7  17
TORSDOF 5
ENDMDL
MODEL 8
REMARK VINA RESULT:      -7.1      4.758      6.119
REMARK  Name = 
REMARK  6 active torsions:
REMARK  status: ('A' for Active; 'I' for Inactive)
REMARK    1  A    between atoms: C_1  and  N_2
REMARK    2  A    between atoms: C_5  and  N_6
REMARK    3  A    between atoms: N_6  and  C_7
REMARK    4  A    between atoms: C_13  and  O_14
REMARK    5  A    between atoms: O_14  and  C_15
REMARK    6  A    between atoms: C_15  and  C_16
REMARK                            x       y       z     vdW  Elec       q    Type
REMARK                         _______ _______ _______ _____ _____    ______ ____
ROOT
ATOM      1  C   UNL     1       3.065   5.848  18.110  0.00  0.00    +0.000 A 
ATOM      2  C   UNL     1       4.203   6.478  17.570  0.00  0.00    +0.000 A 
ATOM      3  C   UNL     1       5.106   5.785  16.762  0.00  0.00    +0.000 A 
ATOM      4  C   UNL     1       4.906   4.438  16.503  0.00  0.00    +0.000 A 
ATOM      5 CL   UNL     1       5.993   3.596  15.471  0.00  0.00    +0.000 Cl
ATOM      6  C   UNL     1       3.830   3.772  17.075  0.00  0.00    +0.000 A 
ATOM      7  C   UNL     1       2.910   4.463  17.879  0.00  0.00    +0.000 A 
ENDROOT
BRANCH   1   8
ATOM      8  N   UNL     1       2.163   6.552  18.920  0.00  0.00    +0.000 N 
ATOM      9  H   UNL     1       2.100   6.126  19.849  0.00  0.00    +0.000 HD
BRANCH   8  14
ATOM     10  C   UNL     1      -0.128  10.444  20.564  0.00  0.00    +0.000 C 
ATOM     11  N   UNL     1       0.590   9.549  19.689  0.00  0.00    +0.000 N 
ATOM     12  C   UNL     1       0.957   9.931  18.355  0.00  0.00    +0.000 C 
ATOM     13  C   UNL     1       1.668   8.716  17.799  0.00  0.00    +0.000 C 
ATOM     14  C   UNL     1       2.274   8.017  19.022  0.00  0.00    +0.000 C 
ATOM     15  C   UNL     1       1.413   8.539  20.178  0.00  0.00    +0.000 C 
ATOM     16  O   UNL     1       1.478   8.154  21.336  0.00  0.00    +0.000 OA
ENDBRANCH   8  14
ENDBRANCH   1   8
BRANCH   7  17
ATOM     17  O   UNL     1       1.928   3.649  18.379  0.00  0.00    +0.000 OA
BRANCH  17  18
ATOM     18  C   UNL     1       2.210   2.928  19.585  0.00  0.00    +0.000 C 
BRANCH  18  19
ATOM     19  C   UNL     1       1.501   3.558  20.783  0.00  0.00    +0.000 C 
ATOM     20  F   UNL     1       0.425   4.296  20.433  0.00  0.00    +0.000 F 
ATOM     21  F   UNL     1       1.077   2.612  21.654  0.00  0.00    +0.000 F 
ATOM     22  F   UNL     1       2.342   4.376  21.463  0.00  0.00    +0.000 F 
ENDBRANCH  18  19
ENDBRANCH  17  18
ENDBRANCH   7  17
TORSDOF 5
ENDMDL
MODEL 9
REMARK VINA RESULT:      -7.1      4.688      5.988
REMARK  Name = 
REMARK  6 active torsions:
REMARK  status: ('A' for Active; 'I' for Inactive)
REMARK    1  A    between atoms: C_1  and  N_2
REMARK    2  A    between atoms: C_5  and  N_6
REMARK    3  A    between atoms: N_6  and  C_7
REMARK    4  A    between atoms: C_13  and  O_14
REMARK    5  A    between atoms: O_14  and  C_15
REMARK    6  A    between atoms: C_15  and  C_16
REMARK                            x       y       z     vdW  Elec       q    Type
REMARK                         _______ _______ _______ _____ _____    ______ ____
ROOT
ATOM      1  C   UNL     1       3.195   6.005  17.822  0.00  0.00    +0.000 A 
ATOM      2  C   UNL     1       4.263   6.742  17.277  0.00  0.00    +0.000 A 
ATOM      3  C   UNL     1       5.271   6.124  16.534  0.00  0.00    +0.000 A 
ATOM      4  C   UNL     1       5.247   4.751  16.348  0.00  0.00    +0.000 A 
ATOM      5 CL   UNL     1       6.463   3.996  15.396  0.00  0.00    +0.000 Cl
ATOM      6  C   UNL     1       4.243   3.987  16.930  0.00  0.00    +0.000 A 
ATOM      7  C   UNL     1       3.219   4.601  17.668  0.00  0.00    +0.000 A 
ENDROOT
BRANCH   1   8
ATOM      8  N   UNL     1       2.186   6.634  18.566  0.00  0.00    +0.000 N 
ATOM      9  H   UNL     1       1.965   6.094  19.407  0.00  0.00    +0.000 HD
BRANCH   8  14
ATOM     10  C   UNL     1      -0.061  10.251  20.795  0.00  0.00    +0.000 C 
ATOM     11  N   UNL     1       0.640   9.491  19.788  0.00  0.00    +0.000 N 
ATOM     12  C   UNL     1       0.991  10.064  18.519  0.00  0.00    +0.000 C 
ATOM     13  C   UNL     1       1.688   8.941  17.781  0.00  0.00    +0.000 C 
ATOM     14  C   UNL     1       2.306   8.068  18.880  0.00  0.00    +0.000 C 
ATOM     15  C   UNL     1       1.464   8.418  20.112  0.00  0.00    +0.000 C 
ATOM     16  O   UNL     1       1.543   7.867  21.200  0.00  0.00    +0.000 OA
ENDBRANCH   8  14
ENDBRANCH   1   8
BRANCH   7  17
ATOM     17  O   UNL     1       2.329   3.699  18.189  0.00  0.00    +0.000 OA
BRANCH  17  18
ATOM     18  C   UNL     1       2.483   3.328  19.565  0.00  0.00    +0.000 C 
BRANCH  18  19
ATOM     19  C   UNL     1       1.136   3.299  20.284  0.00  0.00    +0.000 C 
ATOM     20  F   UNL     1       1.181   2.649  21.467  0.00  0.00    +0.000 F 
ATOM     21  F   UNL     1       0.684   4.552  20.528  0.00  0.00    +0.000 F 
ATOM     22  F   UNL     1       0.199   2.680  19.523  0.00  0.00    +0.000 F 
ENDBRANCH  18  19
ENDBRANCH  17  18
ENDBRANCH   7  17
TORSDOF 5
ENDMDL
