MODEL 1
REMARK VINA RESULT:      -6.8      0.000      0.000
REMARK  Name = 
REMARK  2 active torsions:
REMARK  status: ('A' for Active; 'I' for Inactive)
REMARK    1  A    between atoms: N_1  and  C_2
REMARK    2  A    between atoms: C_5  and  C_6
REMARK                            x       y       z     vdW  Elec       q    Type
REMARK                         _______ _______ _______ _____ _____    ______ ____
ROOT
ATOM      1  C   UNL     1       4.966   5.879  16.258  0.00  0.00    +0.000 A 
ATOM      2  C   UNL     1       4.985   4.493  16.078  0.00  0.00    +0.000 A 
ATOM      3  C   UNL     1       4.685   3.628  17.139  0.00  0.00    +0.000 A 
ATOM      4  C   UNL     1       4.399   4.144  18.407  0.00  0.00    +0.000 A 
ATOM      5  C   UNL     1       4.472   5.526  18.609  0.00  0.00    +0.000 A 
ATOM      6  C   UNL     1       4.755   6.384  17.541  0.00  0.00    +0.000 A 
ENDROOT
BRANCH   4   7
ATOM      7  C   UNL     1       4.156   3.200  19.533  0.00  0.00    +0.000 C 
ATOM      8  O   UNL     1       5.088   2.518  19.956  0.00  0.00    +0.000 OA
ATOM      9  N   UNL     1       2.883   3.141  20.094  0.00  0.00    +0.000 N 
ATOM     10  C   UNL     1       2.675   2.515  21.381  0.00  0.00    +0.000 C 
ATOM     11  C   UNL     1       1.249   2.905  21.721  0.00  0.00    +0.000 C 
ATOM     12  N   UNL     1       0.645   3.042  20.427  0.00  0.00    +0.000 N 
ATOM     13  C   UNL     1       1.622   3.281  19.461  0.00  0.00    +0.000 C 
ATOM     14  O   UNL     1       1.365   3.591  18.314  0.00  0.00    +0.000 OA
ATOM     15  H   UNL     1      -0.315   3.296  20.234  0.00  0.00    +0.000 HD
ENDBRANCH   4   7
BRANCH   1  16
ATOM     16  N   UNL     1       5.393   6.733  15.233  0.00  0.00    +0.000 N 
ATOM     17  H   UNL     1       5.566   7.684  15.542  0.00  0.00    +0.000 HD
ATOM     18  H   UNL     1       6.168   6.360  14.693  0.00  0.00    +0.000 HD
ENDBRANCH   1  16
TORSDOF 2
ENDMDL
MODEL 2
REMARK VINA RESULT:      -6.8      0.183      1.255
REMARK  Name = 
REMARK  2 active torsions:
REMARK  status: ('A' for Active; 'I' for Inactive)
REMARK    1  A    between atoms: N_1  and  C_2
REMARK    2  A    between atoms: C_5  and  C_6
REMARK                            x       y       z     vdW  Elec       q    Type
REMARK                         _______ _______ _______ _____ _____    ______ ____
ROOT
ATOM      1  C   UNL     1       5.081   5.994  16.287  0.00  0.00    +0.000 A 
ATOM      2  C   UNL     1       4.756   6.449  17.568  0.00  0.00    +0.000 A 
ATOM      3  C   UNL     1       4.519   5.544  18.612  0.00  0.00    +0.000 A 
ATOM      4  C   UNL     1       4.568   4.167  18.372  0.00  0.00    +0.000 A 
ATOM      5  C   UNL     1       4.800   3.713  17.069  0.00  0.00    +0.000 A 
ATOM      6  C   UNL     1       5.054   4.622  16.038  0.00  0.00    +0.000 A 
ENDROOT
BRANCH   4   7
ATOM      7  C   UNL     1       4.240   3.228  19.482  0.00  0.00    +0.000 C 
ATOM      8  O   UNL     1       5.130   2.522  19.953  0.00  0.00    +0.000 OA
ATOM      9  N   UNL     1       2.937   3.202  19.973  0.00  0.00    +0.000 N 
ATOM     10  C   UNL     1       2.644   2.581  21.245  0.00  0.00    +0.000 C 
ATOM     11  C   UNL     1       1.212   3.008  21.508  0.00  0.00    +0.000 C 
ATOM     12  N   UNL     1       0.683   3.161  20.184  0.00  0.00    +0.000 N 
ATOM     13  C   UNL     1       1.717   3.375  19.273  0.00  0.00    +0.000 C 
ATOM     14  O   UNL     1       1.531   3.693  18.114  0.00  0.00    +0.000 OA
ATOM     15  H   UNL     1      -0.259   3.440  19.939  0.00  0.00    +0.000 HD
ENDBRANCH   4   7
BRANCH   1  16
ATOM     16  N   UNL     1       5.188   6.896  15.221  0.00  0.00    +0.000 N 
ATOM     17  H   UNL     1       5.033   7.862  15.489  0.00  0.00    +0.000 HD
ATOM     18  H   UNL     1       6.040   6.782  14.679  0.00  0.00    +0.000 HD
ENDBRANCH   1  16
TORSDOF 2
ENDMDL
MODEL 3
REMARK VINA RESULT:      -6.7      1.893      2.298
REMARK  Name = 
REMARK  2 active torsions:
REMARK  status: ('A' for Active; 'I' for Inactive)
REMARK    1  A    between atoms: N_1  and  C_2
REMARK    2  A    between atoms: C_5  and  C_6
REMARK                            x       y       z     vdW  Elec       q    Type
REMARK                         _______ _______ _______ _____ _____    ______ ____
ROOT
ATOM      1  C   UNL     1       6.776   4.947  15.802  0.00  0.00    +0.000 A 
ATOM      2  C   UNL     1       7.164   4.690  17.120  0.00  0.00    +0.000 A 
ATOM      3  C   UNL     1       6.208   4.538  18.133  0.00  0.00    +0.000 A 
ATOM      4  C   UNL     1       4.848   4.680  17.841  0.00  0.00    +0.000 A 
ATOM      5  C   UNL     1       4.465   5.030  16.542  0.00  0.00    +0.000 A 
ATOM      6  C   UNL     1       5.424   5.162  15.533  0.00  0.00    +0.000 A 
ENDROOT
BRANCH   4   7
ATOM      7  C   UNL     1       3.857   4.586  18.951  0.00  0.00    +0.000 C 
ATOM      8  O   UNL     1       3.926   5.384  19.886  0.00  0.00    +0.000 OA
ATOM      9  N   UNL     1       2.862   3.615  18.879  0.00  0.00    +0.000 N 
ATOM     10  C   UNL     1       1.695   3.695  19.730  0.00  0.00    +0.000 C 
ATOM     11  C   UNL     1       0.780   2.634  19.149  0.00  0.00    +0.000 C 
ATOM     12  N   UNL     1       1.708   1.687  18.599  0.00  0.00    +0.000 N 
ATOM     13  C   UNL     1       2.933   2.304  18.347  0.00  0.00    +0.000 C 
ATOM     14  O   UNL     1       3.837   1.767  17.735  0.00  0.00    +0.000 OA
ATOM     15  H   UNL     1       1.478   0.826  18.119  0.00  0.00    +0.000 HD
ENDBRANCH   4   7
BRANCH   1  16
ATOM     16  N   UNL     1       7.736   5.226  14.822  0.00  0.00    +0.000 N 
ATOM     17  H   UNL     1       7.544   6.071  14.293  0.00  0.00    +0.000 HD
ATOM     18  H   UNL     1       8.689   5.203  15.171  0.00  0.00    +0.000 HD
ENDBRANCH   1  16
TORSDOF 2
ENDMDL
MODEL 4
REMARK VINA RESULT:      -6.6      1.902      2.284
REMARK  Name = 
REMARK  2 active torsions:
REMARK  status: ('A' for Active; 'I' for Inactive)
REMARK    1  A    between atoms: N_1  and  C_2
REMARK    2  A    between atoms: C_5  and  C_6
REMARK                            x       y       z     vdW  Elec       q    Type
REMARK                         _______ _______ _______ _____ _____    ______ ____
ROOT
ATOM      1  C   UNL     1       6.731   5.201  16.030  0.00  0.00    +0.000 A 
ATOM      2  C   UNL     1       5.382   5.442  15.750  0.00  0.00    +0.000 A 
ATOM      3  C   UNL     1       4.408   5.309  16.747  0.00  0.00    +0.000 A 
ATOM      4  C   UNL     1       4.770   4.894  18.033  0.00  0.00    +0.000 A 
ATOM      5  C   UNL     1       6.105   4.563  18.288  0.00  0.00    +0.000 A 
ATOM      6  C   UNL     1       7.074   4.715  17.292  0.00  0.00    +0.000 A 
ENDROOT
BRANCH   4   7
ATOM      7  C   UNL     1       3.704   4.691  19.054  0.00  0.00    +0.000 C 
ATOM      8  O   UNL     1       3.647   5.448  20.021  0.00  0.00    +0.000 OA
ATOM      9  N   UNL     1       2.783   3.664  18.863  0.00  0.00    +0.000 N 
ATOM     10  C   UNL     1       1.550   3.634  19.618  0.00  0.00    +0.000 C 
ATOM     11  C   UNL     1       0.754   2.545  18.924  0.00  0.00    +0.000 C 
ATOM     12  N   UNL     1       1.781   1.683  18.415  0.00  0.00    +0.000 N 
ATOM     13  C   UNL     1       2.980   2.384  18.287  0.00  0.00    +0.000 C 
ATOM     14  O   UNL     1       3.962   1.932  17.730  0.00  0.00    +0.000 OA
ATOM     15  H   UNL     1       1.646   0.832  17.884  0.00  0.00    +0.000 HD
ENDBRANCH   4   7
BRANCH   1  16
ATOM     16  N   UNL     1       7.681   5.208  15.002  0.00  0.00    +0.000 N 
ATOM     17  H   UNL     1       8.599   5.521  15.298  0.00  0.00    +0.000 HD
ATOM     18  H   UNL     1       7.724   4.334  14.485  0.00  0.00    +0.000 HD
ENDBRANCH   1  16
TORSDOF 2
ENDMDL
MODEL 5
REMARK VINA RESULT:      -6.6      2.451      5.443
REMARK  Name = 
REMARK  2 active torsions:
REMARK  status: ('A' for Active; 'I' for Inactive)
REMARK    1  A    between atoms: N_1  and  C_2
REMARK    2  A    between atoms: C_5  and  C_6
REMARK                            x       y       z     vdW  Elec       q    Type
REMARK                         _______ _______ _______ _____ _____    ______ ____
ROOT
ATOM      1  C   UNL     1       1.393   4.071  19.617  0.00  0.00    +0.000 A 
ATOM      2  C   UNL     1       2.120   5.094  20.233  0.00  0.00    +0.000 A 
ATOM      3  C   UNL     1       3.117   5.786  19.534  0.00  0.00    +0.000 A 
ATOM      4  C   UNL     1       3.425   5.433  18.216  0.00  0.00    +0.000 A 
ATOM      5  C   UNL     1       2.763   4.348  17.632  0.00  0.00    +0.000 A 
ATOM      6  C   UNL     1       1.757   3.674  18.330  0.00  0.00    +0.000 A 
ENDROOT
BRANCH   4   7
ATOM      7  C   UNL     1       4.540   6.136  17.521  0.00  0.00    +0.000 C 
ATOM      8  O   UNL     1       4.294   6.811  16.522  0.00  0.00    +0.000 OA
ATOM      9  N   UNL     1       5.826   6.033  18.045  0.00  0.00    +0.000 N 
ATOM     10  C   UNL     1       6.865   6.949  17.629  0.00  0.00    +0.000 C 
ATOM     11  C   UNL     1       7.983   6.663  18.613  0.00  0.00    +0.000 C 
ATOM     12  N   UNL     1       7.766   5.283  18.940  0.00  0.00    +0.000 N 
ATOM     13  C   UNL     1       6.441   4.930  18.689  0.00  0.00    +0.000 C 
ATOM     14  O   UNL     1       5.956   3.867  19.029  0.00  0.00    +0.000 OA
ATOM     15  H   UNL     1       8.316   4.720  19.577  0.00  0.00    +0.000 HD
ENDBRANCH   4   7
BRANCH   1  16
ATOM     16  N   UNL     1       0.491   3.297  20.358  0.00  0.00    +0.000 N 
ATOM     17  H   UNL     1       0.398   2.345  20.020  0.00  0.00    +0.000 HD
ATOM     18  H   UNL     1       0.656   3.332  21.359  0.00  0.00    +0.000 HD
ENDBRANCH   1  16
TORSDOF 2
ENDMDL
MODEL 6
REMARK VINA RESULT:      -6.6      2.322      5.334
REMARK  Name = 
REMARK  2 active torsions:
REMARK  status: ('A' for Active; 'I' for Inactive)
REMARK    1  A    between atoms: N_1  and  C_2
REMARK    2  A    between atoms: C_5  and  C_6
REMARK                            x       y       z     vdW  Elec       q    Type
REMARK                         _______ _______ _______ _____ _____    ______ ____
ROOT
ATOM      1  C   UNL     1       1.493   3.139  18.791  0.00  0.00    +0.000 A 
ATOM      2  C   UNL     1       1.707   4.495  18.529  0.00  0.00    +0.000 A 
ATOM      3  C   UNL     1       2.819   4.915  17.787  0.00  0.00    +0.000 A 
ATOM      4  C   UNL     1       3.754   3.980  17.331  0.00  0.00    +0.000 A 
ATOM      5  C   UNL     1       3.589   2.634  17.675  0.00  0.00    +0.000 A 
ATOM      6  C   UNL     1       2.467   2.221  18.400  0.00  0.00    +0.000 A 
ENDROOT
BRANCH   4   7
ATOM      7  C   UNL     1       4.965   4.461  16.609  0.00  0.00    +0.000 C 
ATOM      8  O   UNL     1       5.081   4.222  15.407  0.00  0.00    +0.000 OA
ATOM      9  N   UNL     1       5.915   5.196  17.312  0.00  0.00    +0.000 N 
ATOM     10  C   UNL     1       6.916   5.967  16.608  0.00  0.00    +0.000 C 
ATOM     11  C   UNL     1       7.545   6.794  17.713  0.00  0.00    +0.000 C 
ATOM     12  N   UNL     1       7.377   5.957  18.866  0.00  0.00    +0.000 N 
ATOM     13  C   UNL     1       6.330   5.058  18.660  0.00  0.00    +0.000 C 
ATOM     14  O   UNL     1       5.878   4.348  19.538  0.00  0.00    +0.000 OA
ATOM     15  H   UNL     1       7.672   6.165  19.811  0.00  0.00    +0.000 HD
ENDBRANCH   4   7
BRANCH   1  16
ATOM     16  N   UNL     1       0.455   2.737  19.641  0.00  0.00    +0.000 N 
ATOM     17  H   UNL     1      -0.202   3.479  19.860  0.00  0.00    +0.000 HD
ATOM     18  H   UNL     1      -0.014   1.890  19.333  0.00  0.00    +0.000 HD
ENDBRANCH   1  16
TORSDOF 2
ENDMDL
MODEL 7
REMARK VINA RESULT:      -6.6      2.823      5.469
REMARK  Name = 
REMARK  2 active torsions:
REMARK  status: ('A' for Active; 'I' for Inactive)
REMARK    1  A    between atoms: N_1  and  C_2
REMARK    2  A    between atoms: C_5  and  C_6
REMARK                            x       y       z     vdW  Elec       q    Type
REMARK                         _______ _______ _______ _____ _____    ______ ____
ROOT
ATOM      1  C   UNL     1       2.135   3.870  18.185  0.00  0.00    +0.000 A 
ATOM      2  C   UNL     1       3.026   3.354  17.240  0.00  0.00    +0.000 A 
ATOM      3  C   UNL     1       4.127   4.105  16.807  0.00  0.00    +0.000 A 
ATOM      4  C   UNL     1       4.326   5.402  17.290  0.00  0.00    +0.000 A 
ATOM      5  C   UNL     1       3.382   5.953  18.164  0.00  0.00    +0.000 A 
ATOM      6  C   UNL     1       2.296   5.190  18.605  0.00  0.00    +0.000 A 
ENDROOT
BRANCH   4   7
ATOM      7  C   UNL     1       5.462   6.206  16.757  0.00  0.00    +0.000 C 
ATOM      8  O   UNL     1       5.421   6.606  15.595  0.00  0.00    +0.000 OA
ATOM      9  N   UNL     1       6.525   6.505  17.605  0.00  0.00    +0.000 N 
ATOM     10  C   UNL     1       7.469   7.545  17.261  0.00  0.00    +0.000 C 
ATOM     11  C   UNL     1       8.266   7.717  18.541  0.00  0.00    +0.000 C 
ATOM     12  N   UNL     1       8.198   6.410  19.129  0.00  0.00    +0.000 N 
ATOM     13  C   UNL     1       7.093   5.716  18.637  0.00  0.00    +0.000 C 
ATOM     14  O   UNL     1       6.716   4.652  19.090  0.00  0.00    +0.000 OA
ATOM     15  H   UNL     1       8.615   6.120  20.004  0.00  0.00    +0.000 HD
ENDBRANCH   4   7
BRANCH   1  16
ATOM     16  N   UNL     1       0.969   3.169  18.515  0.00  0.00    +0.000 N 
ATOM     17  H   UNL     1       1.128   2.388  19.143  0.00  0.00    +0.000 HD
ATOM     18  H   UNL     1       0.214   3.769  18.837  0.00  0.00    +0.000 HD
ENDBRANCH   1  16
TORSDOF 2
ENDMDL
MODEL 8
REMARK VINA RESULT:      -6.5      2.408      5.608
REMARK  Name = 
REMARK  2 active torsions:
REMARK  status: ('A' for Active; 'I' for Inactive)
REMARK    1  A    between atoms: N_1  and  C_2
REMARK    2  A    between atoms: C_5  and  C_6
REMARK                            x       y       z     vdW  Elec       q    Type
REMARK                         _______ _______ _______ _____ _____    ______ ____
ROOT
ATOM      1  C   UNL     1       2.641   3.386  21.031  0.00  0.00    +0.000 A 
ATOM      2  C   UNL     1       3.480   2.559  20.280  0.00  0.00    +0.000 A 
ATOM      3  C   UNL     1       4.258   3.082  19.238  0.00  0.00    +0.000 A 
ATOM      4  C   UNL     1       4.172   4.439  18.912  0.00  0.00    +0.000 A 
ATOM      5  C   UNL     1       3.263   5.247  19.602  0.00  0.00    +0.000 A 
ATOM      6  C   UNL     1       2.504   4.721  20.652  0.00  0.00    +0.000 A 
ENDROOT
BRANCH   4   7
ATOM      7  C   UNL     1       4.954   4.954  17.752  0.00  0.00    +0.000 C 
ATOM      8  O   UNL     1       4.591   4.672  16.611  0.00  0.00    +0.000 OA
ATOM      9  N   UNL     1       6.057   5.767  17.998  0.00  0.00    +0.000 N 
ATOM     10  C   UNL     1       6.636   6.561  16.936  0.00  0.00    +0.000 C 
ATOM     11  C   UNL     1       7.601   7.466  17.677  0.00  0.00    +0.000 C 
ATOM     12  N   UNL     1       7.968   6.669  18.813  0.00  0.00    +0.000 N 
ATOM     13  C   UNL     1       6.990   5.708  19.064  0.00  0.00    +0.000 C 
ATOM     14  O   UNL     1       6.977   5.011  20.061  0.00  0.00    +0.000 OA
ATOM     15  H   UNL     1       8.606   6.932  19.553  0.00  0.00    +0.000 HD
ENDBRANCH   4   7
BRANCH   1  16
ATOM     16  N   UNL     1       1.771   2.837  21.982  0.00  0.00    +0.000 N 
ATOM     17  H   UNL     1       2.200   2.122  22.561  0.00  0.00    +0.000 HD
ATOM     18  H   UNL     1       1.286   3.536  22.537  0.00  0.00    +0.000 HD
ENDBRANCH   1  16
TORSDOF 2
ENDMDL
MODEL 9
REMARK VINA RESULT:      -6.4      1.546      2.730
REMARK  Name = 
REMARK  2 active torsions:
REMARK  status: ('A' for Active; 'I' for Inactive)
REMARK    1  A    between atoms: N_1  and  C_2
REMARK    2  A    between atoms: C_5  and  C_6
REMARK                            x       y       z     vdW  Elec       q    Type
REMARK                         _______ _______ _______ _____ _____    ______ ____
ROOT
ATOM      1  C   UNL     1       6.633   5.195  15.604  0.00  0.00    +0.000 A 
ATOM      2  C   UNL     1       6.416   6.202  16.550  0.00  0.00    +0.000 A 
ATOM      3  C   UNL     1       5.299   6.164  17.394  0.00  0.00    +0.000 A 
ATOM      4  C   UNL     1       4.362   5.132  17.274  0.00  0.00    +0.000 A 
ATOM      5  C   UNL     1       4.530   4.177  16.265  0.00  0.00    +0.000 A 
ATOM      6  C   UNL     1       5.657   4.212  15.439  0.00  0.00    +0.000 A 
ENDROOT
BRANCH   4   7
ATOM      7  C   UNL     1       3.146   5.157  18.134  0.00  0.00    +0.000 C 
ATOM      8  O   UNL     1       2.363   6.101  18.039  0.00  0.00    +0.000 OA
ATOM      9  N   UNL     1       2.917   4.090  19.000  0.00  0.00    +0.000 N 
ATOM     10  C   UNL     1       1.613   3.892  19.593  0.00  0.00    +0.000 C 
ATOM     11  C   UNL     1       1.732   2.516  20.221  0.00  0.00    +0.000 C 
ATOM     12  N   UNL     1       3.131   2.432  20.527  0.00  0.00    +0.000 N 
ATOM     13  C   UNL     1       3.855   3.311  19.723  0.00  0.00    +0.000 C 
ATOM     14  O   UNL     1       5.070   3.321  19.669  0.00  0.00    +0.000 OA
ATOM     15  H   UNL     1       3.608   1.652  20.962  0.00  0.00    +0.000 HD
ENDBRANCH   4   7
BRANCH   1  16
ATOM     16  N   UNL     1       7.677   5.306  14.678  0.00  0.00    +0.000 N 
ATOM     17  H   UNL     1       7.968   6.263  14.505  0.00  0.00    +0.000 HD
ATOM     18  H   UNL     1       8.465   4.698  14.883  0.00  0.00    +0.000 HD
ENDBRANCH   1  16
TORSDOF 2
ENDMDL
