MODEL 1
REMARK VINA RESULT:      -7.3      0.000      0.000
REMARK  Name = 
REMARK  6 active torsions:
REMARK  status: ('A' for Active; 'I' for Inactive)
REMARK    1  A    between atoms: C_1  and  N_2
REMARK    2  A    between atoms: N_2  and  C_3
REMARK    3  A    between atoms: C_3  and  C_4
REMARK    4  A    between atoms: C_4  and  C_5
REMARK    5  A    between atoms: C_5  and  N_6
REMARK    6  A    between atoms: C_22  and  C_23
REMARK                            x       y       z     vdW  Elec       q    Type
REMARK                         _______ _______ _______ _____ _____    ______ ____
ROOT
ATOM      1  N   UNL     1       5.234   5.823  18.479  0.00  0.00    +0.000 N 
ATOM      2  C   UNL     1       5.229   5.193  17.227  0.00  0.00    +0.000 A 
ATOM      3  C   UNL     1       5.756   5.912  16.141  0.00  0.00    +0.000 A 
ATOM      4  C   UNL     1       5.719   5.393  14.849  0.00  0.00    +0.000 A 
ATOM      5  C   UNL     1       5.159   4.143  14.628  0.00  0.00    +0.000 A 
ATOM      6  C   UNL     1       4.666   3.401  15.703  0.00  0.00    +0.000 A 
ATOM      7  C   UNL     1       4.695   3.899  17.019  0.00  0.00    +0.000 A 
ATOM      8  N   UNL     1       4.155   3.186  18.093  0.00  0.00    +0.000 N 
ATOM      9  C   UNL     1       3.955   1.728  18.103  0.00  0.00    +0.000 C 
ATOM     10  C   UNL     1       2.498   1.456  18.497  0.00  0.00    +0.000 C 
ATOM     11  C   UNL     1       2.157   2.723  19.205  0.00  0.00    +0.000 A 
ATOM     12  C   UNL     1       1.003   3.004  19.916  0.00  0.00    +0.000 A 
ATOM     13  C   UNL     1       0.836   4.299  20.389  0.00  0.00    +0.000 A 
ATOM     14  C   UNL     1       1.809   5.280  20.130  0.00  0.00    +0.000 A 
ATOM     15  C   UNL     1       2.974   5.009  19.371  0.00  0.00    +0.000 A 
ATOM     16  C   UNL     1       3.129   3.701  18.927  0.00  0.00    +0.000 A 
ATOM     17  C   UNL     1       3.934   6.153  19.083  0.00  0.00    +0.000 C 
ATOM     18  C   UNL     1       3.261   7.238  18.223  0.00  0.00    +0.000 C 
ENDROOT
BRANCH   1  19
ATOM     19  C   UNL     1       6.383   5.534  19.340  0.00  0.00    +0.000 C 
BRANCH  19  20
ATOM     20  C   UNL     1       7.679   5.775  18.547  0.00  0.00    +0.000 C 
BRANCH  20  21
ATOM     21  C   UNL     1       8.281   7.152  18.828  0.00  0.00    +0.000 C 
BRANCH  21  23
ATOM     22  C   UNL     1       8.347   9.441  18.054  0.00  0.00    +0.000 C 
ATOM     23  N   UNL     1       7.910   8.083  17.757  0.00  0.00    +0.000 NA
ATOM     24  H   UNL     1       8.332   7.779  16.879  0.00  0.00    +0.000 HD
ENDBRANCH  21  23
ENDBRANCH  20  21
ENDBRANCH  19  20
ENDBRANCH   1  19
TORSDOF 4
ENDMDL
MODEL 2
REMARK VINA RESULT:      -6.6      1.330      3.742
REMARK  Name = 
REMARK  6 active torsions:
REMARK  status: ('A' for Active; 'I' for Inactive)
REMARK    1  A    between atoms: C_1  and  N_2
REMARK    2  A    between atoms: N_2  and  C_3
REMARK    3  A    between atoms: C_3  and  C_4
REMARK    4  A    between atoms: C_4  and  C_5
REMARK    5  A    between atoms: C_5  and  N_6
REMARK    6  A    between atoms: C_22  and  C_23
REMARK                            x       y       z     vdW  Elec       q    Type
REMARK                         _______ _______ _______ _____ _____    ______ ____
ROOT
ATOM      1  N   UNL     1       5.114   4.989  18.229  0.00  0.00    +0.000 N 
ATOM      2  C   UNL     1       4.148   4.012  18.504  0.00  0.00    +0.000 A 
ATOM      3  C   UNL     1       4.312   2.754  17.899  0.00  0.00    +0.000 A 
ATOM      4  C   UNL     1       3.359   1.750  18.055  0.00  0.00    +0.000 A 
ATOM      5  C   UNL     1       2.231   1.990  18.826  0.00  0.00    +0.000 A 
ATOM      6  C   UNL     1       2.074   3.221  19.466  0.00  0.00    +0.000 A 
ATOM      7  C   UNL     1       3.023   4.251  19.329  0.00  0.00    +0.000 A 
ATOM      8  N   UNL     1       2.847   5.505  19.921  0.00  0.00    +0.000 N 
ATOM      9  C   UNL     1       1.985   5.756  21.087  0.00  0.00    +0.000 C 
ATOM     10  C   UNL     1       1.040   6.911  20.733  0.00  0.00    +0.000 C 
ATOM     11  C   UNL     1       1.802   7.571  19.633  0.00  0.00    +0.000 A 
ATOM     12  C   UNL     1       1.507   8.770  19.009  0.00  0.00    +0.000 A 
ATOM     13  C   UNL     1       2.282   9.137  17.916  0.00  0.00    +0.000 A 
ATOM     14  C   UNL     1       3.315   8.296  17.465  0.00  0.00    +0.000 A 
ATOM     15  C   UNL     1       3.597   7.049  18.076  0.00  0.00    +0.000 A 
ATOM     16  C   UNL     1       2.822   6.714  19.180  0.00  0.00    +0.000 A 
ATOM     17  C   UNL     1       4.687   6.177  17.473  0.00  0.00    +0.000 C 
ATOM     18  C   UNL     1       4.317   5.735  16.045  0.00  0.00    +0.000 C 
ENDROOT
BRANCH   1  19
ATOM     19  C   UNL     1       6.214   5.096  19.191  0.00  0.00    +0.000 C 
BRANCH  19  20
ATOM     20  C   UNL     1       7.524   5.355  18.429  0.00  0.00    +0.000 C 
BRANCH  20  21
ATOM     21  C   UNL     1       8.051   6.773  18.649  0.00  0.00    +0.000 C 
BRANCH  21  23
ATOM     22  C   UNL     1       7.961   9.008  17.731  0.00  0.00    +0.000 C 
ATOM     23  N   UNL     1       7.795   7.588  17.455  0.00  0.00    +0.000 NA
ATOM     24  H   UNL     1       8.437   7.312  16.711  0.00  0.00    +0.000 HD
ENDBRANCH  21  23
ENDBRANCH  20  21
ENDBRANCH  19  20
ENDBRANCH   1  19
TORSDOF 4
ENDMDL
MODEL 3
REMARK VINA RESULT:      -6.6      1.683      4.133
REMARK  Name = 
REMARK  6 active torsions:
REMARK  status: ('A' for Active; 'I' for Inactive)
REMARK    1  A    between atoms: C_1  and  N_2
REMARK    2  A    between atoms: N_2  and  C_3
REMARK    3  A    between atoms: C_3  and  C_4
REMARK    4  A    between atoms: C_4  and  C_5
REMARK    5  A    between atoms: C_5  and  N_6
REMARK    6  A    between atoms: C_22  and  C_23
REMARK                            x       y       z     vdW  Elec       q    Type
REMARK                         _______ _______ _______ _____ _____    ______ ____
ROOT
ATOM      1  N   UNL     1       4.922   5.040  18.259  0.00  0.00    +0.000 N 
ATOM      2  C   UNL     1       3.938   4.090  18.561  0.00  0.00    +0.000 A 
ATOM      3  C   UNL     1       4.058   2.824  17.962  0.00  0.00    +0.000 A 
ATOM      4  C   UNL     1       3.083   1.845  18.145  0.00  0.00    +0.000 A 
ATOM      5  C   UNL     1       1.977   2.120  18.936  0.00  0.00    +0.000 A 
ATOM      6  C   UNL     1       1.864   3.359  19.570  0.00  0.00    +0.000 A 
ATOM      7  C   UNL     1       2.836   4.364  19.405  0.00  0.00    +0.000 A 
ATOM      8  N   UNL     1       2.703   5.626  19.991  0.00  0.00    +0.000 N 
ATOM      9  C   UNL     1       1.871   5.908  21.172  0.00  0.00    +0.000 C 
ATOM     10  C   UNL     1       0.949   7.083  20.827  0.00  0.00    +0.000 C 
ATOM     11  C   UNL     1       1.705   7.716  19.707  0.00  0.00    +0.000 A 
ATOM     12  C   UNL     1       1.428   8.917  19.080  0.00  0.00    +0.000 A 
ATOM     13  C   UNL     1       2.190   9.256  17.969  0.00  0.00    +0.000 A 
ATOM     14  C   UNL     1       3.192   8.386  17.505  0.00  0.00    +0.000 A 
ATOM     15  C   UNL     1       3.455   7.137  18.119  0.00  0.00    +0.000 A 
ATOM     16  C   UNL     1       2.694   6.830  19.242  0.00  0.00    +0.000 A 
ATOM     17  C   UNL     1       4.511   6.233  17.502  0.00  0.00    +0.000 C 
ATOM     18  C   UNL     1       4.101   5.790  16.085  0.00  0.00    +0.000 C 
ENDROOT
BRANCH   1  19
ATOM     19  C   UNL     1       6.043   5.127  19.198  0.00  0.00    +0.000 C 
BRANCH  19  20
ATOM     20  C   UNL     1       7.318   5.506  18.426  0.00  0.00    +0.000 C 
BRANCH  20  21
ATOM     21  C   UNL     1       7.559   4.592  17.224  0.00  0.00    +0.000 C 
BRANCH  21  23
ATOM     22  C   UNL     1       7.011   4.661  14.870  0.00  0.00    +0.000 C 
ATOM     23  N   UNL     1       7.587   5.390  15.992  0.00  0.00    +0.000 NA
ATOM     24  H   UNL     1       7.066   6.255  16.135  0.00  0.00    +0.000 HD
ENDBRANCH  21  23
ENDBRANCH  20  21
ENDBRANCH  19  20
ENDBRANCH   1  19
TORSDOF 4
ENDMDL
MODEL 4
REMARK VINA RESULT:      -6.6      2.024      4.092
REMARK  Name = 
REMARK  6 active torsions:
REMARK  status: ('A' for Active; 'I' for Inactive)
REMARK    1  A    between atoms: C_1  and  N_2
REMARK    2  A    between atoms: N_2  and  C_3
REMARK    3  A    between atoms: C_3  and  C_4
REMARK    4  A    between atoms: C_4  and  C_5
REMARK    5  A    between atoms: C_5  and  N_6
REMARK    6  A    between atoms: C_22  and  C_23
REMARK                            x       y       z     vdW  Elec       q    Type
REMARK                         _______ _______ _______ _____ _____    ______ ____
ROOT
ATOM      1  N   UNL     1       4.960   4.881  17.275  0.00  0.00    +0.000 N 
ATOM      2  C   UNL     1       3.997   5.878  17.479  0.00  0.00    +0.000 A 
ATOM      3  C   UNL     1       4.364   7.202  17.181  0.00  0.00    +0.000 A 
ATOM      4  C   UNL     1       3.496   8.263  17.427  0.00  0.00    +0.000 A 
ATOM      5  C   UNL     1       2.244   8.012  17.970  0.00  0.00    +0.000 A 
ATOM      6  C   UNL     1       1.849   6.699  18.234  0.00  0.00    +0.000 A 
ATOM      7  C   UNL     1       2.705   5.608  17.991  0.00  0.00    +0.000 A 
ATOM      8  N   UNL     1       2.339   4.296  18.303  0.00  0.00    +0.000 N 
ATOM      9  C   UNL     1       0.948   3.834  18.441  0.00  0.00    +0.000 C 
ATOM     10  C   UNL     1       0.822   3.121  19.793  0.00  0.00    +0.000 C 
ATOM     11  C   UNL     1       2.244   2.754  20.052  0.00  0.00    +0.000 A 
ATOM     12  C   UNL     1       2.734   1.957  21.071  0.00  0.00    +0.000 A 
ATOM     13  C   UNL     1       4.113   1.851  21.201  0.00  0.00    +0.000 A 
ATOM     14  C   UNL     1       4.964   2.551  20.329  0.00  0.00    +0.000 A 
ATOM     15  C   UNL     1       4.469   3.399  19.307  0.00  0.00    +0.000 A 
ATOM     16  C   UNL     1       3.087   3.472  19.183  0.00  0.00    +0.000 A 
ATOM     17  C   UNL     1       5.468   4.171  18.459  0.00  0.00    +0.000 C 
ATOM     18  C   UNL     1       6.270   5.168  19.315  0.00  0.00    +0.000 C 
ENDROOT
BRANCH   1  19
ATOM     19  C   UNL     1       4.914   4.197  15.981  0.00  0.00    +0.000 C 
BRANCH  19  20
ATOM     20  C   UNL     1       6.344   4.063  15.432  0.00  0.00    +0.000 C 
BRANCH  20  21
ATOM     21  C   UNL     1       6.420   4.373  13.936  0.00  0.00    +0.000 C 
BRANCH  21  23
ATOM     22  C   UNL     1       5.346   3.268  12.075  0.00  0.00    +0.000 C 
ATOM     23  N   UNL     1       6.301   3.130  13.166  0.00  0.00    +0.000 NA
ATOM     24  H   UNL     1       7.213   2.876  12.784  0.00  0.00    +0.000 HD
ENDBRANCH  21  23
ENDBRANCH  20  21
ENDBRANCH  19  20
ENDBRANCH   1  19
TORSDOF 4
ENDMDL
MODEL 5
REMARK VINA RESULT:      -6.5      7.515     10.295
REMARK  Name = 
REMARK  6 active torsions:
REMARK  status: ('A' for Active; 'I' for Inactive)
REMARK    1  A    between atoms: C_1  and  N_2
REMARK    2  A    between atoms: N_2  and  C_3
REMARK    3  A    between atoms: C_3  and  C_4
REMARK    4  A    between atoms: C_4  and  C_5
REMARK    5  A    between atoms: C_5  and  N_6
REMARK    6  A    between atoms: C_22  and  C_23
REMARK                            x       y       z     vdW  Elec       q    Type
REMARK                         _______ _______ _______ _____ _____    ______ ____
ROOT
ATOM      1  N   UNL     1      -0.706  12.035  18.418  0.00  0.00    +0.000 N 
ATOM      2  C   UNL     1      -0.719  13.289  19.044  0.00  0.00    +0.000 A 
ATOM      3  C   UNL     1      -0.233  14.383  18.307  0.00  0.00    +0.000 A 
ATOM      4  C   UNL     1      -0.138  15.650  18.878  0.00  0.00    +0.000 A 
ATOM      5  C   UNL     1      -0.533  15.840  20.194  0.00  0.00    +0.000 A 
ATOM      6  C   UNL     1      -1.054  14.771  20.926  0.00  0.00    +0.000 A 
ATOM      7  C   UNL     1      -1.166  13.482  20.372  0.00  0.00    +0.000 A 
ATOM      8  N   UNL     1      -1.636  12.395  21.115  0.00  0.00    +0.000 N 
ATOM      9  C   UNL     1      -2.487  12.514  22.310  0.00  0.00    +0.000 C 
ATOM     10  C   UNL     1      -1.829  11.708  23.437  0.00  0.00    +0.000 C 
ATOM     11  C   UNL     1      -0.980  10.766  22.651  0.00  0.00    +0.000 A 
ATOM     12  C   UNL     1      -0.256   9.689  23.130  0.00  0.00    +0.000 A 
ATOM     13  C   UNL     1       0.573   9.020  22.237  0.00  0.00    +0.000 A 
ATOM     14  C   UNL     1       0.669   9.449  20.902  0.00  0.00    +0.000 A 
ATOM     15  C   UNL     1      -0.041  10.574  20.414  0.00  0.00    +0.000 A 
ATOM     16  C   UNL     1      -0.879  11.214  21.321  0.00  0.00    +0.000 A 
ATOM     17  C   UNL     1       0.183  11.004  18.973  0.00  0.00    +0.000 C 
ATOM     18  C   UNL     1       1.640  11.448  18.747  0.00  0.00    +0.000 C 
ENDROOT
BRANCH   1  19
ATOM     19  C   UNL     1      -1.945  11.640  17.743  0.00  0.00    +0.000 C 
BRANCH  19  20
ATOM     20  C   UNL     1      -1.783  10.215  17.190  0.00  0.00    +0.000 C 
BRANCH  20  21
ATOM     21  C   UNL     1      -2.911   9.836  16.230  0.00  0.00    +0.000 C 
BRANCH  21  23
ATOM     22  C   UNL     1      -3.675  10.045  13.946  0.00  0.00    +0.000 C 
ATOM     23  N   UNL     1      -2.695  10.482  14.930  0.00  0.00    +0.000 NA
ATOM     24  H   UNL     1      -2.756  11.495  15.039  0.00  0.00    +0.000 HD
ENDBRANCH  21  23
ENDBRANCH  20  21
ENDBRANCH  19  20
ENDBRANCH   1  19
TORSDOF 4
ENDMDL
MODEL 6
REMARK VINA RESULT:      -6.4      1.201      1.461
REMARK  Name = 
REMARK  6 active torsions:
REMARK  status: ('A' for Active; 'I' for Inactive)
REMARK    1  A    between atoms: C_1  and  N_2
REMARK    2  A    between atoms: N_2  and  C_3
REMARK    3  A    between atoms: C_3  and  C_4
REMARK    4  A    between atoms: C_4  and  C_5
REMARK    5  A    between atoms: C_5  and  N_6
REMARK    6  A    between atoms: C_22  and  C_23
REMARK                            x       y       z     vdW  Elec       q    Type
REMARK                         _______ _______ _______ _____ _____    ______ ____
ROOT
ATOM      1  N   UNL     1       5.512   6.610  17.643  0.00  0.00    +0.000 N 
ATOM      2  C   UNL     1       5.438   5.492  16.802  0.00  0.00    +0.000 A 
ATOM      3  C   UNL     1       5.762   5.680  15.447  0.00  0.00    +0.000 A 
ATOM      4  C   UNL     1       5.641   4.642  14.527  0.00  0.00    +0.000 A 
ATOM      5  C   UNL     1       5.199   3.398  14.951  0.00  0.00    +0.000 A 
ATOM      6  C   UNL     1       4.911   3.184  16.301  0.00  0.00    +0.000 A 
ATOM      7  C   UNL     1       5.029   4.214  17.253  0.00  0.00    +0.000 A 
ATOM      8  N   UNL     1       4.691   4.024  18.596  0.00  0.00    +0.000 N 
ATOM      9  C   UNL     1       4.654   2.712  19.263  0.00  0.00    +0.000 C 
ATOM     10  C   UNL     1       3.288   2.570  19.945  0.00  0.00    +0.000 C 
ATOM     11  C   UNL     1       2.889   4.002  20.078  0.00  0.00    +0.000 A 
ATOM     12  C   UNL     1       1.797   4.510  20.758  0.00  0.00    +0.000 A 
ATOM     13  C   UNL     1       1.542   5.870  20.645  0.00  0.00    +0.000 A 
ATOM     14  C   UNL     1       2.368   6.683  19.849  0.00  0.00    +0.000 A 
ATOM     15  C   UNL     1       3.465   6.163  19.119  0.00  0.00    +0.000 A 
ATOM     16  C   UNL     1       3.713   4.802  19.266  0.00  0.00    +0.000 A 
ATOM     17  C   UNL     1       4.257   7.107  18.229  0.00  0.00    +0.000 C 
ATOM     18  C   UNL     1       3.380   7.665  17.094  0.00  0.00    +0.000 C 
ENDROOT
BRANCH   1  19
ATOM     19  C   UNL     1       6.773   6.789  18.367  0.00  0.00    +0.000 C 
BRANCH  19  20
ATOM     20  C   UNL     1       7.768   7.536  17.463  0.00  0.00    +0.000 C 
BRANCH  20  21
ATOM     21  C   UNL     1       7.983   8.982  17.912  0.00  0.00    +0.000 C 
BRANCH  21  23
ATOM     22  C   UNL     1       9.327  10.380  19.355  0.00  0.00    +0.000 C 
ATOM     23  N   UNL     1       8.918   9.017  19.042  0.00  0.00    +0.000 NA
ATOM     24  H   UNL     1       8.476   8.602  19.863  0.00  0.00    +0.000 HD
ENDBRANCH  21  23
ENDBRANCH  20  21
ENDBRANCH  19  20
ENDBRANCH   1  19
TORSDOF 4
ENDMDL
MODEL 7
REMARK VINA RESULT:      -6.3      7.748     10.083
REMARK  Name = 
REMARK  6 active torsions:
REMARK  status: ('A' for Active; 'I' for Inactive)
REMARK    1  A    between atoms: C_1  and  N_2
REMARK    2  A    between atoms: N_2  and  C_3
REMARK    3  A    between atoms: C_3  and  C_4
REMARK    4  A    between atoms: C_4  and  C_5
REMARK    5  A    between atoms: C_5  and  N_6
REMARK    6  A    between atoms: C_22  and  C_23
REMARK                            x       y       z     vdW  Elec       q    Type
REMARK                         _______ _______ _______ _____ _____    ______ ____
ROOT
ATOM      1  N   UNL     1      -0.245  11.882  19.812  0.00  0.00    +0.000 N 
ATOM      2  C   UNL     1      -0.153  11.127  20.989  0.00  0.00    +0.000 A 
ATOM      3  C   UNL     1       0.815  10.109  21.029  0.00  0.00    +0.000 A 
ATOM      4  C   UNL     1       0.922   9.261  22.129  0.00  0.00    +0.000 A 
ATOM      5  C   UNL     1       0.065   9.425  23.207  0.00  0.00    +0.000 A 
ATOM      6  C   UNL     1      -0.875  10.457  23.199  0.00  0.00    +0.000 A 
ATOM      7  C   UNL     1      -1.003  11.331  22.103  0.00  0.00    +0.000 A 
ATOM      8  N   UNL     1      -1.977  12.332  22.063  0.00  0.00    +0.000 N 
ATOM      9  C   UNL     1      -2.623  12.908  23.254  0.00  0.00    +0.000 C 
ATOM     10  C   UNL     1      -4.141  12.824  23.052  0.00  0.00    +0.000 C 
ATOM     11  C   UNL     1      -4.223  12.727  21.566  0.00  0.00    +0.000 A 
ATOM     12  C   UNL     1      -5.362  12.771  20.783  0.00  0.00    +0.000 A 
ATOM     13  C   UNL     1      -5.220  12.530  19.422  0.00  0.00    +0.000 A 
ATOM     14  C   UNL     1      -3.955  12.239  18.882  0.00  0.00    +0.000 A 
ATOM     15  C   UNL     1      -2.790  12.156  19.684  0.00  0.00    +0.000 A 
ATOM     16  C   UNL     1      -2.954  12.420  21.039  0.00  0.00    +0.000 A 
ATOM     17  C   UNL     1      -1.479  11.764  19.020  0.00  0.00    +0.000 C 
ATOM     18  C   UNL     1      -1.552  10.337  18.447  0.00  0.00    +0.000 C 
ENDROOT
BRANCH   1  19
ATOM     19  C   UNL     1       0.516  13.133  19.789  0.00  0.00    +0.000 C 
BRANCH  19  20
ATOM     20  C   UNL     1       1.138  13.317  18.394  0.00  0.00    +0.000 C 
BRANCH  20  21
ATOM     21  C   UNL     1       2.502  12.636  18.275  0.00  0.00    +0.000 C 
BRANCH  21  23
ATOM     22  C   UNL     1       3.070  14.972  18.026  0.00  0.00    +0.000 C 
ATOM     23  N   UNL     1       3.497  13.599  17.791  0.00  0.00    +0.000 NA
ATOM     24  H   UNL     1       4.387  13.438  18.264  0.00  0.00    +0.000 HD
ENDBRANCH  21  23
ENDBRANCH  20  21
ENDBRANCH  19  20
ENDBRANCH   1  19
TORSDOF 4
ENDMDL
MODEL 8
REMARK VINA RESULT:      -6.2      8.523     10.821
REMARK  Name = 
REMARK  6 active torsions:
REMARK  status: ('A' for Active; 'I' for Inactive)
REMARK    1  A    between atoms: C_1  and  N_2
REMARK    2  A    between atoms: N_2  and  C_3
REMARK    3  A    between atoms: C_3  and  C_4
REMARK    4  A    between atoms: C_4  and  C_5
REMARK    5  A    between atoms: C_5  and  N_6
REMARK    6  A    between atoms: C_22  and  C_23
REMARK                            x       y       z     vdW  Elec       q    Type
REMARK                         _______ _______ _______ _____ _____    ______ ____
ROOT
ATOM      1  N   UNL     1      -0.451  12.074  19.871  0.00  0.00    +0.000 N 
ATOM      2  C   UNL     1      -0.288  11.251  20.993  0.00  0.00    +0.000 A 
ATOM      3  C   UNL     1       0.687  10.242  20.918  0.00  0.00    +0.000 A 
ATOM      4  C   UNL     1       0.862   9.330  21.957  0.00  0.00    +0.000 A 
ATOM      5  C   UNL     1       0.065   9.421  23.089  0.00  0.00    +0.000 A 
ATOM      6  C   UNL     1      -0.882  10.442  23.195  0.00  0.00    +0.000 A 
ATOM      7  C   UNL     1      -1.076  11.379  22.162  0.00  0.00    +0.000 A 
ATOM      8  N   UNL     1      -2.058  12.371  22.237  0.00  0.00    +0.000 N 
ATOM      9  C   UNL     1      -2.640  12.867  23.494  0.00  0.00    +0.000 C 
ATOM     10  C   UNL     1      -4.166  12.781  23.372  0.00  0.00    +0.000 C 
ATOM     11  C   UNL     1      -4.330  12.772  21.889  0.00  0.00    +0.000 A 
ATOM     12  C   UNL     1      -5.512  12.851  21.174  0.00  0.00    +0.000 A 
ATOM     13  C   UNL     1      -5.444  12.694  19.796  0.00  0.00    +0.000 A 
ATOM     14  C   UNL     1      -4.209  12.449  19.170  0.00  0.00    +0.000 A 
ATOM     15  C   UNL     1      -3.000  12.329  19.900  0.00  0.00    +0.000 A 
ATOM     16  C   UNL     1      -3.091  12.510  21.275  0.00  0.00    +0.000 A 
ATOM     17  C   UNL     1      -1.726  11.991  19.142  0.00  0.00    +0.000 C 
ATOM     18  C   UNL     1      -1.821  10.600  18.489  0.00  0.00    +0.000 C 
ENDROOT
BRANCH   1  19
ATOM     19  C   UNL     1       0.300  13.332  19.881  0.00  0.00    +0.000 C 
BRANCH  19  20
ATOM     20  C   UNL     1      -0.140  14.189  18.683  0.00  0.00    +0.000 C 
BRANCH  20  21
ATOM     21  C   UNL     1       0.211  15.666  18.869  0.00  0.00    +0.000 C 
BRANCH  21  23
ATOM     22  C   UNL     1      -0.670  17.607  17.729  0.00  0.00    +0.000 C 
ATOM     23  N   UNL     1      -0.975  16.493  18.617  0.00  0.00    +0.000 NA
ATOM     24  H   UNL     1      -1.707  15.920  18.198  0.00  0.00    +0.000 HD
ENDBRANCH  21  23
ENDBRANCH  20  21
ENDBRANCH  19  20
ENDBRANCH   1  19
TORSDOF 4
ENDMDL
MODEL 9
REMARK VINA RESULT:      -6.2      7.161     10.108
REMARK  Name = 
REMARK  6 active torsions:
REMARK  status: ('A' for Active; 'I' for Inactive)
REMARK    1  A    between atoms: C_1  and  N_2
REMARK    2  A    between atoms: N_2  and  C_3
REMARK    3  A    between atoms: C_3  and  C_4
REMARK    4  A    between atoms: C_4  and  C_5
REMARK    5  A    between atoms: C_5  and  N_6
REMARK    6  A    between atoms: C_22  and  C_23
REMARK                            x       y       z     vdW  Elec       q    Type
REMARK                         _______ _______ _______ _____ _____    ______ ____
ROOT
ATOM      1  N   UNL     1      -1.421  12.343  19.269  0.00  0.00    +0.000 N 
ATOM      2  C   UNL     1      -1.201  13.129  20.408  0.00  0.00    +0.000 A 
ATOM      3  C   UNL     1      -1.170  14.523  20.235  0.00  0.00    +0.000 A 
ATOM      4  C   UNL     1      -0.881  15.374  21.299  0.00  0.00    +0.000 A 
ATOM      5  C   UNL     1      -0.624  14.840  22.554  0.00  0.00    +0.000 A 
ATOM      6  C   UNL     1      -0.690  13.459  22.750  0.00  0.00    +0.000 A 
ATOM      7  C   UNL     1      -0.985  12.577  21.694  0.00  0.00    +0.000 A 
ATOM      8  N   UNL     1      -0.999  11.190  21.869  0.00  0.00    +0.000 N 
ATOM      9  C   UNL     1      -1.197  10.521  23.165  0.00  0.00    +0.000 C 
ATOM     10  C   UNL     1      -0.051   9.521  23.357  0.00  0.00    +0.000 C 
ATOM     11  C   UNL     1       0.378   9.308  21.945  0.00  0.00    +0.000 A 
ATOM     12  C   UNL     1       1.294   8.384  21.475  0.00  0.00    +0.000 A 
ATOM     13  C   UNL     1       1.641   8.445  20.131  0.00  0.00    +0.000 A 
ATOM     14  C   UNL     1       1.081   9.429  19.298  0.00  0.00    +0.000 A 
ATOM     15  C   UNL     1       0.171  10.402  19.781  0.00  0.00    +0.000 A 
ATOM     16  C   UNL     1      -0.176  10.308  21.124  0.00  0.00    +0.000 A 
ATOM     17  C   UNL     1      -0.325  11.470  18.819  0.00  0.00    +0.000 C 
ATOM     18  C   UNL     1       0.834  12.359  18.332  0.00  0.00    +0.000 C 
ENDROOT
BRANCH   1  19
ATOM     19  C   UNL     1      -2.810  11.957  19.011  0.00  0.00    +0.000 C 
BRANCH  19  20
ATOM     20  C   UNL     1      -2.949  11.531  17.540  0.00  0.00    +0.000 C 
BRANCH  20  21
ATOM     21  C   UNL     1      -3.267  10.042  17.397  0.00  0.00    +0.000 C 
BRANCH  21  23
ATOM     22  C   UNL     1      -3.091  10.556  15.041  0.00  0.00    +0.000 C 
ATOM     23  N   UNL     1      -2.832   9.567  16.079  0.00  0.00    +0.000 NA
ATOM     24  H   UNL     1      -1.833   9.360  16.104  0.00  0.00    +0.000 HD
ENDBRANCH  21  23
ENDBRANCH  20  21
ENDBRANCH  19  20
ENDBRANCH   1  19
TORSDOF 4
ENDMDL
