MODEL 1
REMARK VINA RESULT:      -9.2      0.000      0.000
REMARK  Name = 
REMARK  7 active torsions:
REMARK  status: ('A' for Active; 'I' for Inactive)
REMARK    1  A    between atoms: C_1  and  O_2
REMARK    2  A    between atoms: O_2  and  C_3
REMARK    3  A    between atoms: C_7  and  N_8
REMARK    4  A    between atoms: C_9  and  C_11
REMARK    5  A    between atoms: C_11  and  N_12
REMARK    6  A    between atoms: N_15  and  C_16
REMARK    7  A    between atoms: C_16  and  C_17
REMARK                            x       y       z     vdW  Elec       q    Type
REMARK                         _______ _______ _______ _____ _____    ______ ____
ROOT
ATOM      1  N   UNL     1       2.383   6.423  19.896  0.00  0.00    +0.000 N 
ATOM      2  C   UNL     1       2.447   6.514  18.492  0.00  0.00    +0.000 A 
ATOM      3  O   UNL     1       1.978   7.439  17.842  0.00  0.00    +0.000 OA
ATOM      4  N   UNL     1       2.992   5.371  17.962  0.00  0.00    +0.000 N 
ATOM      5  C   UNL     1       1.922   4.530  17.876  0.00  0.00    +0.000 A 
ATOM      6  O   UNL     1       1.428   4.091  16.850  0.00  0.00    +0.000 OA
ATOM      7  C   UNL     1       1.444   4.144  19.230  0.00  0.00    +0.000 A 
ATOM      8  C   UNL     1       1.168   2.770  19.314  0.00  0.00    +0.000 A 
ATOM      9  C   UNL     1       1.496   2.133  20.501  0.00  0.00    +0.000 A 
ATOM     10  C   UNL     1       1.974   2.921  21.564  0.00  0.00    +0.000 A 
ATOM     11  C   UNL     1       2.083   4.361  21.505  0.00  0.00    +0.000 A 
ATOM     12  C   UNL     1       1.829   5.038  20.306  0.00  0.00    +0.000 A 
ENDROOT
BRANCH   1  13
ATOM     13  C   UNL     1       2.197   7.757  20.513  0.00  0.00    +0.000 C 
BRANCH  13  15
ATOM     14  N   UNL     1       0.579   9.727  19.528  0.00  0.00    +0.000 N 
ATOM     15  C   UNL     1       0.788   8.685  20.450  0.00  0.00    +0.000 C 
ATOM     16  O   UNL     1      -0.034   8.457  21.350  0.00  0.00    +0.000 OA
ATOM     17  H   UNL     1       1.325   9.948  18.878  0.00  0.00    +0.000 HD
BRANCH  14  22
ATOM     18  C   UNL     1      -2.624  11.242  18.000  0.00  0.00    +0.000 A 
ATOM     19  C   UNL     1      -3.017  12.142  18.977  0.00  0.00    +0.000 A 
ATOM     20  C   UNL     1      -2.276  12.260  20.127  0.00  0.00    +0.000 A 
ATOM     21  C   UNL     1      -1.092  11.488  20.324  0.00  0.00    +0.000 A 
ATOM     22  C   UNL     1      -0.630  10.563  19.380  0.00  0.00    +0.000 A 
ATOM     23  C   UNL     1      -1.436  10.447  18.195  0.00  0.00    +0.000 A 
BRANCH  18  25
ATOM     24  C   UNL     1      -2.964  10.823  15.658  0.00  0.00    +0.000 C 
ATOM     25  O   UNL     1      -3.437  11.233  16.919  0.00  0.00    +0.000 OA
ENDBRANCH  18  25
ENDBRANCH  14  22
ENDBRANCH  13  15
ENDBRANCH   1  13
BRANCH   4  26
ATOM     26  C   UNL     1       4.156   4.820  18.713  0.00  0.00    +0.000 C 
BRANCH  26  27
ATOM     27  C   UNL     1       5.422   5.531  18.422  0.00  0.00    +0.000 A 
ATOM     28  C   UNL     1       5.509   6.418  17.342  0.00  0.00    +0.000 A 
ATOM     29  C   UNL     1       6.687   7.132  17.135  0.00  0.00    +0.000 A 
ATOM     30  C   UNL     1       7.776   6.919  17.977  0.00  0.00    +0.000 A 
ATOM     31  C   UNL     1       7.677   6.039  19.054  0.00  0.00    +0.000 A 
ATOM     32  C   UNL     1       6.498   5.350  19.285  0.00  0.00    +0.000 A 
ENDBRANCH  26  27
ENDBRANCH   4  26
TORSDOF 6
ENDMDL
MODEL 2
REMARK VINA RESULT:      -9.1      1.029      1.105
REMARK  Name = 
REMARK  7 active torsions:
REMARK  status: ('A' for Active; 'I' for Inactive)
REMARK    1  A    between atoms: C_1  and  O_2
REMARK    2  A    between atoms: O_2  and  C_3
REMARK    3  A    between atoms: C_7  and  N_8
REMARK    4  A    between atoms: C_9  and  C_11
REMARK    5  A    between atoms: C_11  and  N_12
REMARK    6  A    between atoms: N_15  and  C_16
REMARK    7  A    between atoms: C_16  and  C_17
REMARK                            x       y       z     vdW  Elec       q    Type
REMARK                         _______ _______ _______ _____ _____    ______ ____
ROOT
ATOM      1  N   UNL     1       2.306   6.504  19.913  0.00  0.00    +0.000 N 
ATOM      2  C   UNL     1       2.269   6.587  18.508  0.00  0.00    +0.000 A 
ATOM      3  O   UNL     1       1.739   7.500  17.888  0.00  0.00    +0.000 OA
ATOM      4  N   UNL     1       2.795   5.450  17.946  0.00  0.00    +0.000 N 
ATOM      5  C   UNL     1       1.737   4.590  17.940  0.00  0.00    +0.000 A 
ATOM      6  O   UNL     1       1.180   4.136  16.953  0.00  0.00    +0.000 OA
ATOM      7  C   UNL     1       1.363   4.204  19.326  0.00  0.00    +0.000 A 
ATOM      8  C   UNL     1       1.117   2.827  19.436  0.00  0.00    +0.000 A 
ATOM      9  C   UNL     1       1.539   2.203  20.600  0.00  0.00    +0.000 A 
ATOM     10  C   UNL     1       2.076   3.006  21.623  0.00  0.00    +0.000 A 
ATOM     11  C   UNL     1       2.156   4.447  21.549  0.00  0.00    +0.000 A 
ATOM     12  C   UNL     1       1.807   5.112  20.368  0.00  0.00    +0.000 A 
ENDROOT
BRANCH   1  13
ATOM     13  C   UNL     1       2.140   7.838  20.535  0.00  0.00    +0.000 C 
BRANCH  13  15
ATOM     14  N   UNL     1       0.490   9.819  19.627  0.00  0.00    +0.000 N 
ATOM     15  C   UNL     1       0.727   8.762  20.525  0.00  0.00    +0.000 C 
ATOM     16  O   UNL     1      -0.071   8.516  21.442  0.00  0.00    +0.000 OA
ATOM     17  H   UNL     1       1.218  10.054  18.962  0.00  0.00    +0.000 HD
BRANCH  14  22
ATOM     18  C   UNL     1      -2.791  11.304  18.240  0.00  0.00    +0.000 A 
ATOM     19  C   UNL     1      -3.129  12.226  19.216  0.00  0.00    +0.000 A 
ATOM     20  C   UNL     1      -2.327  12.369  20.321  0.00  0.00    +0.000 A 
ATOM     21  C   UNL     1      -1.135  11.601  20.471  0.00  0.00    +0.000 A 
ATOM     22  C   UNL     1      -0.725  10.653  19.526  0.00  0.00    +0.000 A 
ATOM     23  C   UNL     1      -1.593  10.511  18.389  0.00  0.00    +0.000 A 
BRANCH  18  25
ATOM     24  C   UNL     1      -3.233  10.936  15.907  0.00  0.00    +0.000 C 
ATOM     25  O   UNL     1      -3.661  11.271  17.206  0.00  0.00    +0.000 OA
ENDBRANCH  18  25
ENDBRANCH  14  22
ENDBRANCH  13  15
ENDBRANCH   1  13
BRANCH   4  26
ATOM     26  C   UNL     1       4.019   4.924  18.616  0.00  0.00    +0.000 C 
BRANCH  26  27
ATOM     27  C   UNL     1       5.136   4.681  17.675  0.00  0.00    +0.000 A 
ATOM     28  C   UNL     1       4.882   4.369  16.334  0.00  0.00    +0.000 A 
ATOM     29  C   UNL     1       5.950   4.220  15.451  0.00  0.00    +0.000 A 
ATOM     30  C   UNL     1       7.254   4.337  15.926  0.00  0.00    +0.000 A 
ATOM     31  C   UNL     1       7.496   4.655  17.261  0.00  0.00    +0.000 A 
ATOM     32  C   UNL     1       6.438   4.836  18.137  0.00  0.00    +0.000 A 
ENDBRANCH  26  27
ENDBRANCH   4  26
TORSDOF 6
ENDMDL
MODEL 3
REMARK VINA RESULT:      -8.8      0.937      1.649
REMARK  Name = 
REMARK  7 active torsions:
REMARK  status: ('A' for Active; 'I' for Inactive)
REMARK    1  A    between atoms: C_1  and  O_2
REMARK    2  A    between atoms: O_2  and  C_3
REMARK    3  A    between atoms: C_7  and  N_8
REMARK    4  A    between atoms: C_9  and  C_11
REMARK    5  A    between atoms: C_11  and  N_12
REMARK    6  A    between atoms: N_15  and  C_16
REMARK    7  A    between atoms: C_16  and  C_17
REMARK                            x       y       z     vdW  Elec       q    Type
REMARK                         _______ _______ _______ _____ _____    ______ ____
ROOT
ATOM      1  N   UNL     1       2.361   6.476  19.865  0.00  0.00    +0.000 N 
ATOM      2  C   UNL     1       2.449   6.522  18.461  0.00  0.00    +0.000 A 
ATOM      3  O   UNL     1       1.980   7.419  17.773  0.00  0.00    +0.000 OA
ATOM      4  N   UNL     1       3.016   5.368  17.977  0.00  0.00    +0.000 N 
ATOM      5  C   UNL     1       1.957   4.512  17.901  0.00  0.00    +0.000 A 
ATOM      6  O   UNL     1       1.487   4.034  16.881  0.00  0.00    +0.000 OA
ATOM      7  C   UNL     1       1.460   4.165  19.257  0.00  0.00    +0.000 A 
ATOM      8  C   UNL     1       1.198   2.791  19.382  0.00  0.00    +0.000 A 
ATOM      9  C   UNL     1       1.512   2.197  20.594  0.00  0.00    +0.000 A 
ATOM     10  C   UNL     1       1.961   3.025  21.639  0.00  0.00    +0.000 A 
ATOM     11  C   UNL     1       2.056   4.464  21.535  0.00  0.00    +0.000 A 
ATOM     12  C   UNL     1       1.816   5.098  20.311  0.00  0.00    +0.000 A 
ENDROOT
BRANCH   1  13
ATOM     13  C   UNL     1       2.149   7.826  20.435  0.00  0.00    +0.000 C 
BRANCH  13  15
ATOM     14  N   UNL     1       0.423   9.659  19.370  0.00  0.00    +0.000 N 
ATOM     15  C   UNL     1       0.712   8.710  20.368  0.00  0.00    +0.000 C 
ATOM     16  O   UNL     1      -0.054   8.546  21.329  0.00  0.00    +0.000 OA
ATOM     17  H   UNL     1       1.126   9.838  18.662  0.00  0.00    +0.000 HD
BRANCH  14  22
ATOM     18  C   UNL     1      -2.263  12.359  19.988  0.00  0.00    +0.000 A 
ATOM     19  C   UNL     1      -3.201  12.067  19.011  0.00  0.00    +0.000 A 
ATOM     20  C   UNL     1      -2.978  11.024  18.147  0.00  0.00    +0.000 A 
ATOM     21  C   UNL     1      -1.806  10.218  18.252  0.00  0.00    +0.000 A 
ATOM     22  C   UNL     1      -0.816  10.448  19.215  0.00  0.00    +0.000 A 
ATOM     23  C   UNL     1      -1.067  11.558  20.094  0.00  0.00    +0.000 A 
BRANCH  18  25
ATOM     24  C   UNL     1      -1.905  14.620  20.718  0.00  0.00    +0.000 C 
ATOM     25  O   UNL     1      -2.612  13.404  20.773  0.00  0.00    +0.000 OA
ENDBRANCH  18  25
ENDBRANCH  14  22
ENDBRANCH  13  15
ENDBRANCH   1  13
BRANCH   4  26
ATOM     26  C   UNL     1       4.173   4.856  18.767  0.00  0.00    +0.000 C 
BRANCH  26  27
ATOM     27  C   UNL     1       5.441   5.555  18.455  0.00  0.00    +0.000 A 
ATOM     28  C   UNL     1       5.519   6.441  17.373  0.00  0.00    +0.000 A 
ATOM     29  C   UNL     1       6.701   7.143  17.148  0.00  0.00    +0.000 A 
ATOM     30  C   UNL     1       7.801   6.919  17.972  0.00  0.00    +0.000 A 
ATOM     31  C   UNL     1       7.710   6.041  19.051  0.00  0.00    +0.000 A 
ATOM     32  C   UNL     1       6.528   5.363  19.301  0.00  0.00    +0.000 A 
ENDBRANCH  26  27
ENDBRANCH   4  26
TORSDOF 6
ENDMDL
MODEL 4
REMARK VINA RESULT:      -8.8      0.967      1.911
REMARK  Name = 
REMARK  7 active torsions:
REMARK  status: ('A' for Active; 'I' for Inactive)
REMARK    1  A    between atoms: C_1  and  O_2
REMARK    2  A    between atoms: O_2  and  C_3
REMARK    3  A    between atoms: C_7  and  N_8
REMARK    4  A    between atoms: C_9  and  C_11
REMARK    5  A    between atoms: C_11  and  N_12
REMARK    6  A    between atoms: N_15  and  C_16
REMARK    7  A    between atoms: C_16  and  C_17
REMARK                            x       y       z     vdW  Elec       q    Type
REMARK                         _______ _______ _______ _____ _____    ______ ____
ROOT
ATOM      1  N   UNL     1       2.360   6.434  19.900  0.00  0.00    +0.000 N 
ATOM      2  C   UNL     1       2.435   6.514  18.497  0.00  0.00    +0.000 A 
ATOM      3  O   UNL     1       1.960   7.427  17.835  0.00  0.00    +0.000 OA
ATOM      4  N   UNL     1       2.999   5.373  17.981  0.00  0.00    +0.000 N 
ATOM      5  C   UNL     1       1.941   4.518  17.892  0.00  0.00    +0.000 A 
ATOM      6  O   UNL     1       1.462   4.065  16.865  0.00  0.00    +0.000 OA
ATOM      7  C   UNL     1       1.456   4.137  19.244  0.00  0.00    +0.000 A 
ATOM      8  C   UNL     1       1.196   2.761  19.338  0.00  0.00    +0.000 A 
ATOM      9  C   UNL     1       1.521   2.138  20.532  0.00  0.00    +0.000 A 
ATOM     10  C   UNL     1       1.979   2.940  21.593  0.00  0.00    +0.000 A 
ATOM     11  C   UNL     1       2.071   4.381  21.523  0.00  0.00    +0.000 A 
ATOM     12  C   UNL     1       1.820   5.045  20.317  0.00  0.00    +0.000 A 
ENDROOT
BRANCH   1  13
ATOM     13  C   UNL     1       2.151   7.770  20.505  0.00  0.00    +0.000 C 
BRANCH  13  15
ATOM     14  N   UNL     1       0.459   9.658  19.483  0.00  0.00    +0.000 N 
ATOM     15  C   UNL     1       0.721   8.666  20.446  0.00  0.00    +0.000 C 
ATOM     16  O   UNL     1      -0.065   8.467  21.384  0.00  0.00    +0.000 OA
ATOM     17  H   UNL     1       1.178   9.861  18.798  0.00  0.00    +0.000 HD
BRANCH  14  22
ATOM     18  C   UNL     1      -2.257  12.302  20.202  0.00  0.00    +0.000 A 
ATOM     19  C   UNL     1      -3.144  12.101  19.157  0.00  0.00    +0.000 A 
ATOM     20  C   UNL     1      -2.876  11.138  18.216  0.00  0.00    +0.000 A 
ATOM     21  C   UNL     1      -1.710  10.322  18.308  0.00  0.00    +0.000 A 
ATOM     22  C   UNL     1      -0.771  10.462  19.337  0.00  0.00    +0.000 A 
ATOM     23  C   UNL     1      -1.067  11.491  20.296  0.00  0.00    +0.000 A 
BRANCH  18  25
ATOM     24  C   UNL     1      -3.752  13.092  21.910  0.00  0.00    +0.000 C 
ATOM     25  O   UNL     1      -2.646  13.274  21.058  0.00  0.00    +0.000 OA
ENDBRANCH  18  25
ENDBRANCH  14  22
ENDBRANCH  13  15
ENDBRANCH   1  13
BRANCH   4  26
ATOM     26  C   UNL     1       4.163   4.844  18.747  0.00  0.00    +0.000 C 
BRANCH  26  27
ATOM     27  C   UNL     1       5.415   5.594  18.492  0.00  0.00    +0.000 A 
ATOM     28  C   UNL     1       6.542   5.393  19.298  0.00  0.00    +0.000 A 
ATOM     29  C   UNL     1       7.730   6.053  18.991  0.00  0.00    +0.000 A 
ATOM     30  C   UNL     1       7.765   6.939  17.916  0.00  0.00    +0.000 A 
ATOM     31  C   UNL     1       6.639   7.126  17.116  0.00  0.00    +0.000 A 
ATOM     32  C   UNL     1       5.464   6.448  17.396  0.00  0.00    +0.000 A 
ENDBRANCH  26  27
ENDBRANCH   4  26
TORSDOF 6
ENDMDL
MODEL 5
REMARK VINA RESULT:      -8.7      1.536      2.204
REMARK  Name = 
REMARK  7 active torsions:
REMARK  status: ('A' for Active; 'I' for Inactive)
REMARK    1  A    between atoms: C_1  and  O_2
REMARK    2  A    between atoms: O_2  and  C_3
REMARK    3  A    between atoms: C_7  and  N_8
REMARK    4  A    between atoms: C_9  and  C_11
REMARK    5  A    between atoms: C_11  and  N_12
REMARK    6  A    between atoms: N_15  and  C_16
REMARK    7  A    between atoms: C_16  and  C_17
REMARK                            x       y       z     vdW  Elec       q    Type
REMARK                         _______ _______ _______ _____ _____    ______ ____
ROOT
ATOM      1  N   UNL     1       2.321   6.498  19.928  0.00  0.00    +0.000 N 
ATOM      2  C   UNL     1       2.270   6.593  18.524  0.00  0.00    +0.000 A 
ATOM      3  O   UNL     1       1.742   7.515  17.918  0.00  0.00    +0.000 OA
ATOM      4  N   UNL     1       2.780   5.456  17.947  0.00  0.00    +0.000 N 
ATOM      5  C   UNL     1       1.714   4.606  17.945  0.00  0.00    +0.000 A 
ATOM      6  O   UNL     1       1.143   4.165  16.961  0.00  0.00    +0.000 OA
ATOM      7  C   UNL     1       1.351   4.212  19.331  0.00  0.00    +0.000 A 
ATOM      8  C   UNL     1       1.094   2.835  19.433  0.00  0.00    +0.000 A 
ATOM      9  C   UNL     1       1.523   2.198  20.587  0.00  0.00    +0.000 A 
ATOM     10  C   UNL     1       2.078   2.987  21.611  0.00  0.00    +0.000 A 
ATOM     11  C   UNL     1       2.170   4.429  21.548  0.00  0.00    +0.000 A 
ATOM     12  C   UNL     1       1.814   5.107  20.377  0.00  0.00    +0.000 A 
ENDROOT
BRANCH   1  13
ATOM     13  C   UNL     1       2.174   7.827  20.563  0.00  0.00    +0.000 C 
BRANCH  13  15
ATOM     14  N   UNL     1       0.522   9.847  19.747  0.00  0.00    +0.000 N 
ATOM     15  C   UNL     1       0.762   8.752  20.599  0.00  0.00    +0.000 C 
ATOM     16  O   UNL     1      -0.031   8.469  21.509  0.00  0.00    +0.000 OA
ATOM     17  H   UNL     1       1.247  10.109  19.089  0.00  0.00    +0.000 HD
BRANCH  14  22
ATOM     18  C   UNL     1      -2.221  12.347  20.803  0.00  0.00    +0.000 A 
ATOM     19  C   UNL     1      -3.041  12.369  19.687  0.00  0.00    +0.000 A 
ATOM     20  C   UNL     1      -2.719  11.604  18.594  0.00  0.00    +0.000 A 
ATOM     21  C   UNL     1      -1.565  10.765  18.595  0.00  0.00    +0.000 A 
ATOM     22  C   UNL     1      -0.693  10.685  19.687  0.00  0.00    +0.000 A 
ATOM     23  C   UNL     1      -1.044  11.512  20.809  0.00  0.00    +0.000 A 
BRANCH  18  25
ATOM     24  C   UNL     1      -2.938  12.610  23.081  0.00  0.00    +0.000 C 
ATOM     25  O   UNL     1      -2.658  13.140  21.807  0.00  0.00    +0.000 OA
ENDBRANCH  18  25
ENDBRANCH  14  22
ENDBRANCH  13  15
ENDBRANCH   1  13
BRANCH   4  26
ATOM     26  C   UNL     1       4.006   4.914  18.600  0.00  0.00    +0.000 C 
BRANCH  26  27
ATOM     27  C   UNL     1       5.109   4.660  17.644  0.00  0.00    +0.000 A 
ATOM     28  C   UNL     1       4.833   4.303  16.318  0.00  0.00    +0.000 A 
ATOM     29  C   UNL     1       5.885   4.145  15.418  0.00  0.00    +0.000 A 
ATOM     30  C   UNL     1       7.197   4.299  15.863  0.00  0.00    +0.000 A 
ATOM     31  C   UNL     1       7.459   4.662  17.182  0.00  0.00    +0.000 A 
ATOM     32  C   UNL     1       6.417   4.852  18.074  0.00  0.00    +0.000 A 
ENDBRANCH  26  27
ENDBRANCH   4  26
TORSDOF 6
ENDMDL
MODEL 6
REMARK VINA RESULT:      -8.7      2.210      8.571
REMARK  Name = 
REMARK  7 active torsions:
REMARK  status: ('A' for Active; 'I' for Inactive)
REMARK    1  A    between atoms: C_1  and  O_2
REMARK    2  A    between atoms: O_2  and  C_3
REMARK    3  A    between atoms: C_7  and  N_8
REMARK    4  A    between atoms: C_9  and  C_11
REMARK    5  A    between atoms: C_11  and  N_12
REMARK    6  A    between atoms: N_15  and  C_16
REMARK    7  A    between atoms: C_16  and  C_17
REMARK                            x       y       z     vdW  Elec       q    Type
REMARK                         _______ _______ _______ _____ _____    ______ ____
ROOT
ATOM      1  N   UNL     1       0.746  10.509  19.154  0.00  0.00    +0.000 N 
ATOM      2  C   UNL     1       0.328  11.799  18.775  0.00  0.00    +0.000 A 
ATOM      3  O   UNL     1       1.028  12.596  18.165  0.00  0.00    +0.000 OA
ATOM      4  N   UNL     1      -0.914  12.072  19.293  0.00  0.00    +0.000 N 
ATOM      5  C   UNL     1      -0.634  12.514  20.552  0.00  0.00    +0.000 A 
ATOM      6  O   UNL     1      -0.833  13.638  20.984  0.00  0.00    +0.000 OA
ATOM      7  C   UNL     1      -0.095  11.411  21.390  0.00  0.00    +0.000 A 
ATOM      8  C   UNL     1      -0.672  11.397  22.670  0.00  0.00    +0.000 A 
ATOM      9  C   UNL     1      -0.935  10.157  23.229  0.00  0.00    +0.000 A 
ATOM     10  C   UNL     1      -0.508   9.013  22.531  0.00  0.00    +0.000 A 
ATOM     11  C   UNL     1       0.241   9.064  21.295  0.00  0.00    +0.000 A 
ATOM     12  C   UNL     1       0.469  10.290  20.660  0.00  0.00    +0.000 A 
ENDROOT
BRANCH   1  13
ATOM     13  C   UNL     1       1.857  10.032  18.300  0.00  0.00    +0.000 C 
BRANCH  13  15
ATOM     14  N   UNL     1       2.460   7.541  19.252  0.00  0.00    +0.000 N 
ATOM     15  C   UNL     1       2.381   8.432  18.165  0.00  0.00    +0.000 C 
ATOM     16  O   UNL     1       2.799   8.106  17.044  0.00  0.00    +0.000 OA
ATOM     17  H   UNL     1       2.208   7.885  20.171  0.00  0.00    +0.000 HD
BRANCH  14  22
ATOM     18  C   UNL     1       4.719   4.419  19.053  0.00  0.00    +0.000 A 
ATOM     19  C   UNL     1       3.800   3.387  19.146  0.00  0.00    +0.000 A 
ATOM     20  C   UNL     1       2.465   3.678  19.285  0.00  0.00    +0.000 A 
ATOM     21  C   UNL     1       2.004   5.028  19.312  0.00  0.00    +0.000 A 
ATOM     22  C   UNL     1       2.872   6.123  19.219  0.00  0.00    +0.000 A 
ATOM     23  C   UNL     1       4.264   5.788  19.093  0.00  0.00    +0.000 A 
BRANCH  18  25
ATOM     24  C   UNL     1       6.911   4.698  18.110  0.00  0.00    +0.000 C 
ATOM     25  O   UNL     1       5.994   3.992  18.912  0.00  0.00    +0.000 OA
ENDBRANCH  18  25
ENDBRANCH  14  22
ENDBRANCH  13  15
ENDBRANCH   1  13
BRANCH   4  26
ATOM     26  C   UNL     1      -1.884  10.941  19.232  0.00  0.00    +0.000 C 
BRANCH  26  27
ATOM     27  C   UNL     1      -2.564  10.829  17.920  0.00  0.00    +0.000 A 
ATOM     28  C   UNL     1      -2.053   9.987  16.925  0.00  0.00    +0.000 A 
ATOM     29  C   UNL     1      -2.752   9.841  15.728  0.00  0.00    +0.000 A 
ATOM     30  C   UNL     1      -3.921  10.570  15.523  0.00  0.00    +0.000 A 
ATOM     31  C   UNL     1      -4.424  11.399  16.523  0.00  0.00    +0.000 A 
ATOM     32  C   UNL     1      -3.752  11.525  17.728  0.00  0.00    +0.000 A 
ENDBRANCH  26  27
ENDBRANCH   4  26
TORSDOF 6
ENDMDL
MODEL 7
REMARK VINA RESULT:      -8.7      1.792      2.207
REMARK  Name = 
REMARK  7 active torsions:
REMARK  status: ('A' for Active; 'I' for Inactive)
REMARK    1  A    between atoms: C_1  and  O_2
REMARK    2  A    between atoms: O_2  and  C_3
REMARK    3  A    between atoms: C_7  and  N_8
REMARK    4  A    between atoms: C_9  and  C_11
REMARK    5  A    between atoms: C_11  and  N_12
REMARK    6  A    between atoms: N_15  and  C_16
REMARK    7  A    between atoms: C_16  and  C_17
REMARK                            x       y       z     vdW  Elec       q    Type
REMARK                         _______ _______ _______ _____ _____    ______ ____
ROOT
ATOM      1  N   UNL     1       2.393   6.585  19.852  0.00  0.00    +0.000 N 
ATOM      2  C   UNL     1       2.302   6.626  18.447  0.00  0.00    +0.000 A 
ATOM      3  O   UNL     1       1.792   7.544  17.819  0.00  0.00    +0.000 OA
ATOM      4  N   UNL     1       2.748   5.447  17.903  0.00  0.00    +0.000 N 
ATOM      5  C   UNL     1       1.650   4.642  17.968  0.00  0.00    +0.000 A 
ATOM      6  O   UNL     1       1.031   4.186  17.019  0.00  0.00    +0.000 OA
ATOM      7  C   UNL     1       1.315   4.319  19.379  0.00  0.00    +0.000 A 
ATOM      8  C   UNL     1       1.008   2.959  19.545  0.00  0.00    +0.000 A 
ATOM      9  C   UNL     1       1.447   2.351  20.711  0.00  0.00    +0.000 A 
ATOM     10  C   UNL     1       2.064   3.157  21.684  0.00  0.00    +0.000 A 
ATOM     11  C   UNL     1       2.211   4.590  21.560  0.00  0.00    +0.000 A 
ATOM     12  C   UNL     1       1.846   5.235  20.372  0.00  0.00    +0.000 A 
ENDROOT
BRANCH   1  13
ATOM     13  C   UNL     1       2.319   7.944  20.435  0.00  0.00    +0.000 C 
BRANCH  13  15
ATOM     14  N   UNL     1       0.818  10.093  21.210  0.00  0.00    +0.000 N 
ATOM     15  C   UNL     1       0.915   8.709  20.978  0.00  0.00    +0.000 C 
ATOM     16  O   UNL     1      -0.023   7.949  21.265  0.00  0.00    +0.000 OA
ATOM     17  H   UNL     1       1.644  10.662  21.064  0.00  0.00    +0.000 HD
BRANCH  14  22
ATOM     18  C   UNL     1      -2.277  12.395  21.078  0.00  0.00    +0.000 A 
ATOM     19  C   UNL     1      -2.721  12.362  22.389  0.00  0.00    +0.000 A 
ATOM     20  C   UNL     1      -2.050  11.600  23.313  0.00  0.00    +0.000 A 
ATOM     21  C   UNL     1      -0.886  10.859  22.953  0.00  0.00    +0.000 A 
ATOM     22  C   UNL     1      -0.374  10.847  21.650  0.00  0.00    +0.000 A 
ATOM     23  C   UNL     1      -1.107  11.637  20.700  0.00  0.00    +0.000 A 
BRANCH  18  25
ATOM     24  C   UNL     1      -4.007  14.041  20.812  0.00  0.00    +0.000 C 
ATOM     25  O   UNL     1      -3.023  13.188  20.277  0.00  0.00    +0.000 OA
ENDBRANCH  18  25
ENDBRANCH  14  22
ENDBRANCH  13  15
ENDBRANCH   1  13
BRANCH   4  26
ATOM     26  C   UNL     1       3.972   4.882  18.541  0.00  0.00    +0.000 C 
BRANCH  26  27
ATOM     27  C   UNL     1       5.075   4.655  17.578  0.00  0.00    +0.000 A 
ATOM     28  C   UNL     1       4.801   4.356  16.238  0.00  0.00    +0.000 A 
ATOM     29  C   UNL     1       5.855   4.223  15.337  0.00  0.00    +0.000 A 
ATOM     30  C   UNL     1       7.166   4.343  15.792  0.00  0.00    +0.000 A 
ATOM     31  C   UNL     1       7.428   4.648  17.126  0.00  0.00    +0.000 A 
ATOM     32  C   UNL     1       6.384   4.814  18.021  0.00  0.00    +0.000 A 
ENDBRANCH  26  27
ENDBRANCH   4  26
TORSDOF 6
ENDMDL
MODEL 8
REMARK VINA RESULT:      -8.7      2.566      8.715
REMARK  Name = 
REMARK  7 active torsions:
REMARK  status: ('A' for Active; 'I' for Inactive)
REMARK    1  A    between atoms: C_1  and  O_2
REMARK    2  A    between atoms: O_2  and  C_3
REMARK    3  A    between atoms: C_7  and  N_8
REMARK    4  A    between atoms: C_9  and  C_11
REMARK    5  A    between atoms: C_11  and  N_12
REMARK    6  A    between atoms: N_15  and  C_16
REMARK    7  A    between atoms: C_16  and  C_17
REMARK                            x       y       z     vdW  Elec       q    Type
REMARK                         _______ _______ _______ _____ _____    ______ ____
ROOT
ATOM      1  N   UNL     1       1.147   9.556  19.370  0.00  0.00    +0.000 N 
ATOM      2  C   UNL     1       1.009  10.738  18.617  0.00  0.00    +0.000 A 
ATOM      3  O   UNL     1       1.897  11.218  17.925  0.00  0.00    +0.000 OA
ATOM      4  N   UNL     1      -0.204  11.329  18.870  0.00  0.00    +0.000 N 
ATOM      5  C   UNL     1       0.035  12.055  19.999  0.00  0.00    +0.000 A 
ATOM      6  O   UNL     1       0.007  13.272  20.095  0.00  0.00    +0.000 OA
ATOM      7  C   UNL     1       0.284  11.161  21.160  0.00  0.00    +0.000 A 
ATOM      8  C   UNL     1      -0.401  11.591  22.307  0.00  0.00    +0.000 A 
ATOM      9  C   UNL     1      -0.938  10.609  23.126  0.00  0.00    +0.000 A 
ATOM     10  C   UNL     1      -0.665   9.265  22.812  0.00  0.00    +0.000 A 
ATOM     11  C   UNL     1       0.191   8.856  21.721  0.00  0.00    +0.000 A 
ATOM     12  C   UNL     1       0.697   9.809  20.828  0.00  0.00    +0.000 A 
ENDROOT
BRANCH   1  13
ATOM     13  C   UNL     1       2.225   8.697  18.830  0.00  0.00    +0.000 C 
BRANCH  13  15
ATOM     14  N   UNL     1       2.787   6.121  18.107  0.00  0.00    +0.000 N 
ATOM     15  C   UNL     1       2.393   7.039  19.099  0.00  0.00    +0.000 C 
ATOM     16  O   UNL     1       2.045   6.648  20.223  0.00  0.00    +0.000 OA
ATOM     17  H   UNL     1       2.959   6.472  17.172  0.00  0.00    +0.000 HD
BRANCH  14  22
ATOM     18  C   UNL     1       4.257   2.771  19.335  0.00  0.00    +0.000 A 
ATOM     19  C   UNL     1       3.485   1.846  18.651  0.00  0.00    +0.000 A 
ATOM     20  C   UNL     1       2.490   2.281  17.812  0.00  0.00    +0.000 A 
ATOM     21  C   UNL     1       2.251   3.673  17.611  0.00  0.00    +0.000 A 
ATOM     22  C   UNL     1       2.992   4.667  18.262  0.00  0.00    +0.000 A 
ATOM     23  C   UNL     1       4.014   4.182  19.149  0.00  0.00    +0.000 A 
BRANCH  18  25
ATOM     24  C   UNL     1       4.933   1.040  20.858  0.00  0.00    +0.000 C 
ATOM     25  O   UNL     1       5.203   2.208  20.120  0.00  0.00    +0.000 OA
ENDBRANCH  18  25
ENDBRANCH  14  22
ENDBRANCH  13  15
ENDBRANCH   1  13
BRANCH   4  26
ATOM     26  C   UNL     1      -1.356  10.387  18.970  0.00  0.00    +0.000 C 
BRANCH  26  27
ATOM     27  C   UNL     1      -2.309  10.515  17.844  0.00  0.00    +0.000 A 
ATOM     28  C   UNL     1      -3.460  11.302  17.971  0.00  0.00    +0.000 A 
ATOM     29  C   UNL     1      -4.301  11.468  16.873  0.00  0.00    +0.000 A 
ATOM     30  C   UNL     1      -4.009  10.811  15.680  0.00  0.00    +0.000 A 
ATOM     31  C   UNL     1      -2.858  10.035  15.562  0.00  0.00    +0.000 A 
ATOM     32  C   UNL     1      -2.000   9.892  16.640  0.00  0.00    +0.000 A 
ENDBRANCH  26  27
ENDBRANCH   4  26
TORSDOF 6
ENDMDL
MODEL 9
REMARK VINA RESULT:      -8.6      1.798      2.693
REMARK  Name = 
REMARK  7 active torsions:
REMARK  status: ('A' for Active; 'I' for Inactive)
REMARK    1  A    between atoms: C_1  and  O_2
REMARK    2  A    between atoms: O_2  and  C_3
REMARK    3  A    between atoms: C_7  and  N_8
REMARK    4  A    between atoms: C_9  and  C_11
REMARK    5  A    between atoms: C_11  and  N_12
REMARK    6  A    between atoms: N_15  and  C_16
REMARK    7  A    between atoms: C_16  and  C_17
REMARK                            x       y       z     vdW  Elec       q    Type
REMARK                         _______ _______ _______ _____ _____    ______ ____
ROOT
ATOM      1  N   UNL     1       2.339   6.577  19.882  0.00  0.00    +0.000 N 
ATOM      2  C   UNL     1       2.258   6.656  18.478  0.00  0.00    +0.000 A 
ATOM      3  O   UNL     1       1.739   7.584  17.872  0.00  0.00    +0.000 OA
ATOM      4  N   UNL     1       2.727   5.500  17.905  0.00  0.00    +0.000 N 
ATOM      5  C   UNL     1       1.641   4.677  17.938  0.00  0.00    +0.000 A 
ATOM      6  O   UNL     1       1.037   4.238  16.972  0.00  0.00    +0.000 OA
ATOM      7  C   UNL     1       1.300   4.308  19.337  0.00  0.00    +0.000 A 
ATOM      8  C   UNL     1       1.013   2.940  19.462  0.00  0.00    +0.000 A 
ATOM      9  C   UNL     1       1.452   2.307  20.614  0.00  0.00    +0.000 A 
ATOM     10  C   UNL     1       2.050   3.094  21.614  0.00  0.00    +0.000 A 
ATOM     11  C   UNL     1       2.175   4.532  21.532  0.00  0.00    +0.000 A 
ATOM     12  C   UNL     1       1.809   5.204  20.360  0.00  0.00    +0.000 A 
ENDROOT
BRANCH   1  13
ATOM     13  C   UNL     1       2.239   7.917  20.503  0.00  0.00    +0.000 C 
BRANCH  13  15
ATOM     14  N   UNL     1       0.693  10.163  20.702  0.00  0.00    +0.000 N 
ATOM     15  C   UNL     1       0.808   8.763  20.798  0.00  0.00    +0.000 C 
ATOM     16  O   UNL     1      -0.136   8.074  21.212  0.00  0.00    +0.000 OA
ATOM     17  H   UNL     1       1.521  10.696  20.464  0.00  0.00    +0.000 HD
BRANCH  14  22
ATOM     18  C   UNL     1      -2.189  11.997  22.497  0.00  0.00    +0.000 A 
ATOM     19  C   UNL     1      -2.885  12.555  21.438  0.00  0.00    +0.000 A 
ATOM     20  C   UNL     1      -2.434  12.363  20.155  0.00  0.00    +0.000 A 
ATOM     21  C   UNL     1      -1.274  11.577  19.891  0.00  0.00    +0.000 A 
ATOM     22  C   UNL     1      -0.522  10.978  20.908  0.00  0.00    +0.000 A 
ATOM     23  C   UNL     1      -1.005  11.211  22.241  0.00  0.00    +0.000 A 
BRANCH  18  25
ATOM     24  C   UNL     1      -4.038  12.803  23.803  0.00  0.00    +0.000 C 
ATOM     25  O   UNL     1      -2.745  12.257  23.702  0.00  0.00    +0.000 OA
ENDBRANCH  18  25
ENDBRANCH  14  22
ENDBRANCH  13  15
ENDBRANCH   1  13
BRANCH   4  26
ATOM     26  C   UNL     1       3.954   4.936  18.536  0.00  0.00    +0.000 C 
BRANCH  26  27
ATOM     27  C   UNL     1       5.086   4.806  17.590  0.00  0.00    +0.000 A 
ATOM     28  C   UNL     1       6.404   4.751  18.060  0.00  0.00    +0.000 A 
ATOM     29  C   UNL     1       7.446   4.552  17.155  0.00  0.00    +0.000 A 
ATOM     30  C   UNL     1       7.164   4.459  15.794  0.00  0.00    +0.000 A 
ATOM     31  C   UNL     1       5.848   4.508  15.338  0.00  0.00    +0.000 A 
ATOM     32  C   UNL     1       4.805   4.673  16.235  0.00  0.00    +0.000 A 
ENDBRANCH  26  27
ENDBRANCH   4  26
TORSDOF 6
ENDMDL
