MODEL 1
REMARK VINA RESULT:      -7.5      0.000      0.000
REMARK  Name = 
REMARK  5 active torsions:
REMARK  status: ('A' for Active; 'I' for Inactive)
REMARK    1  A    between atoms: C_1  and  C_2
REMARK    2  A    between atoms: C_2  and  C_3
REMARK    3  A    between atoms: N_6  and  C_7
REMARK    4  A    between atoms: C_10  and  O_11
REMARK    5  A    between atoms: C_12  and  C_13
REMARK                            x       y       z     vdW  Elec       q    Type
REMARK                         _______ _______ _______ _____ _____    ______ ____
ROOT
ATOM      1  C   UNL     1       2.231   7.214  19.605  0.00  0.00    +0.000 A 
ATOM      2  C   UNL     1       1.807   6.169  20.434  0.00  0.00    +0.000 A 
ATOM      3  C   UNL     1       2.411   4.914  20.408  0.00  0.00    +0.000 A 
ATOM      4  C   UNL     1       3.462   4.668  19.529  0.00  0.00    +0.000 A 
ATOM      5  C   UNL     1       3.926   5.658  18.645  0.00  0.00    +0.000 A 
ATOM      6  C   UNL     1       3.292   6.924  18.722  0.00  0.00    +0.000 A 
ENDROOT
BRANCH   5   7
ATOM      7  C   UNL     1       5.029   5.429  17.677  0.00  0.00    +0.000 A 
ATOM      8  C   UNL     1       4.911   5.711  16.328  0.00  0.00    +0.000 A 
ATOM      9  C   UNL     1       5.985   5.396  15.534  0.00  0.00    +0.000 A 
ATOM     10  N   UNL     1       7.126   4.876  16.008  0.00  0.00    +0.000 NA
ATOM     11  C   UNL     1       7.180   4.686  17.326  0.00  0.00    +0.000 A 
ATOM     12  N   UNL     1       8.351   4.153  17.832  0.00  0.00    +0.000 N 
ATOM     13  N   UNL     1       6.181   4.923  18.184  0.00  0.00    +0.000 NA
ATOM     14  H   UNL     1       8.816   3.639  17.096  0.00  0.00    +0.000 HD
ATOM     15  H   UNL     1       8.146   3.655  18.685  0.00  0.00    +0.000 HD
ENDBRANCH   5   7
BRANCH   1  19
ATOM     16  C   UNL     1      -0.527  10.384  19.515  0.00  0.00    +0.000 C 
ATOM     17  C   UNL     1      -0.361   9.404  20.693  0.00  0.00    +0.000 C 
ATOM     18  C   UNL     1       1.098   9.008  20.916  0.00  0.00    +0.000 C 
ATOM     19  N   UNL     1       1.645   8.465  19.672  0.00  0.00    +0.000 N 
ATOM     20  C   UNL     1       1.589   9.357  18.509  0.00  0.00    +0.000 C 
ATOM     21  C   UNL     1       0.138   9.781  18.264  0.00  0.00    +0.000 C 
BRANCH  16  23
ATOM     22  C   UNL     1      -0.101  12.745  18.604  0.00  0.00    +0.000 C 
ATOM     23  C   UNL     1       0.022  11.799  19.790  0.00  0.00    +0.000 C 
ENDBRANCH  16  23
ENDBRANCH   1  19
BRANCH   4  24
ATOM     24  O   UNL     1       4.052   3.434  19.563  0.00  0.00    +0.000 OA
ATOM     25  H   UNL     1       3.484   2.823  20.061  0.00  0.00    +0.000 HD
ENDBRANCH   4  24
TORSDOF 4
ENDMDL
MODEL 2
REMARK VINA RESULT:      -7.4      4.292      6.181
REMARK  Name = 
REMARK  5 active torsions:
REMARK  status: ('A' for Active; 'I' for Inactive)
REMARK    1  A    between atoms: C_1  and  C_2
REMARK    2  A    between atoms: C_2  and  C_3
REMARK    3  A    between atoms: N_6  and  C_7
REMARK    4  A    between atoms: C_10  and  O_11
REMARK    5  A    between atoms: C_12  and  C_13
REMARK                            x       y       z     vdW  Elec       q    Type
REMARK                         _______ _______ _______ _____ _____    ______ ____
ROOT
ATOM      1  C   UNL     1       4.915   4.584  17.090  0.00  0.00    +0.000 A 
ATOM      2  C   UNL     1       6.039   5.372  17.362  0.00  0.00    +0.000 A 
ATOM      3  C   UNL     1       6.999   5.651  16.391  0.00  0.00    +0.000 A 
ATOM      4  C   UNL     1       6.859   5.128  15.108  0.00  0.00    +0.000 A 
ATOM      5  C   UNL     1       5.773   4.304  14.766  0.00  0.00    +0.000 A 
ATOM      6  C   UNL     1       4.813   4.065  15.783  0.00  0.00    +0.000 A 
ENDROOT
BRANCH   5   7
ATOM      7  C   UNL     1       5.600   3.708  13.416  0.00  0.00    +0.000 A 
ATOM      8  C   UNL     1       4.438   3.849  12.680  0.00  0.00    +0.000 A 
ATOM      9  C   UNL     1       4.387   3.199  11.473  0.00  0.00    +0.000 A 
ATOM     10  N   UNL     1       5.406   2.484  10.977  0.00  0.00    +0.000 NA
ATOM     11  C   UNL     1       6.511   2.443  11.721  0.00  0.00    +0.000 A 
ATOM     12  N   UNL     1       7.573   1.713  11.223  0.00  0.00    +0.000 N 
ATOM     13  N   UNL     1       6.654   3.009  12.926  0.00  0.00    +0.000 NA
ATOM     14  H   UNL     1       7.215   1.021  10.579  0.00  0.00    +0.000 HD
ATOM     15  H   UNL     1       8.137   1.382  11.992  0.00  0.00    +0.000 HD
ENDBRANCH   5   7
BRANCH   1  19
ATOM     16  C   UNL     1       1.570   3.134  19.180  0.00  0.00    +0.000 C 
ATOM     17  C   UNL     1       2.906   2.380  19.041  0.00  0.00    +0.000 C 
ATOM     18  C   UNL     1       4.110   3.321  19.085  0.00  0.00    +0.000 C 
ATOM     19  N   UNL     1       3.953   4.351  18.056  0.00  0.00    +0.000 N 
ATOM     20  C   UNL     1       2.737   5.164  18.150  0.00  0.00    +0.000 C 
ATOM     21  C   UNL     1       1.510   4.247  18.118  0.00  0.00    +0.000 C 
BRANCH  16  23
ATOM     22  C   UNL     1       1.574   2.725  21.713  0.00  0.00    +0.000 C 
ATOM     23  C   UNL     1       1.316   3.715  20.587  0.00  0.00    +0.000 C 
ENDBRANCH  16  23
ENDBRANCH   1  19
BRANCH   4  24
ATOM     24  O   UNL     1       7.804   5.457  14.174  0.00  0.00    +0.000 OA
ATOM     25  H   UNL     1       8.642   5.654  14.625  0.00  0.00    +0.000 HD
ENDBRANCH   4  24
TORSDOF 4
ENDMDL
MODEL 3
REMARK VINA RESULT:      -7.4      4.163      5.618
REMARK  Name = 
REMARK  5 active torsions:
REMARK  status: ('A' for Active; 'I' for Inactive)
REMARK    1  A    between atoms: C_1  and  C_2
REMARK    2  A    between atoms: C_2  and  C_3
REMARK    3  A    between atoms: N_6  and  C_7
REMARK    4  A    between atoms: C_10  and  O_11
REMARK    5  A    between atoms: C_12  and  C_13
REMARK                            x       y       z     vdW  Elec       q    Type
REMARK                         _______ _______ _______ _____ _____    ______ ____
ROOT
ATOM      1  C   UNL     1       4.842   4.676  18.180  0.00  0.00    +0.000 A 
ATOM      2  C   UNL     1       5.658   5.576  18.876  0.00  0.00    +0.000 A 
ATOM      3  C   UNL     1       6.718   6.238  18.262  0.00  0.00    +0.000 A 
ATOM      4  C   UNL     1       6.998   6.003  16.918  0.00  0.00    +0.000 A 
ATOM      5  C   UNL     1       6.242   5.093  16.159  0.00  0.00    +0.000 A 
ATOM      6  C   UNL     1       5.162   4.457  16.824  0.00  0.00    +0.000 A 
ENDROOT
BRANCH   5   7
ATOM      7  C   UNL     1       6.522   4.797  14.731  0.00  0.00    +0.000 A 
ATOM      8  C   UNL     1       5.886   3.783  14.038  0.00  0.00    +0.000 A 
ATOM      9  C   UNL     1       6.281   3.577  12.740  0.00  0.00    +0.000 A 
ATOM     10  N   UNL     1       7.207   4.325  12.124  0.00  0.00    +0.000 NA
ATOM     11  C   UNL     1       7.732   5.318  12.842  0.00  0.00    +0.000 A 
ATOM     12  N   UNL     1       8.685   6.101  12.220  0.00  0.00    +0.000 N 
ATOM     13  N   UNL     1       7.446   5.582  14.123  0.00  0.00    +0.000 NA
ATOM     14  H   UNL     1       9.106   5.566  11.473  0.00  0.00    +0.000 HD
ATOM     15  H   UNL     1       9.303   6.487  12.919  0.00  0.00    +0.000 HD
ENDBRANCH   5   7
BRANCH   1  19
ATOM     16  C   UNL     1       1.004   3.751  19.622  0.00  0.00    +0.000 C 
ATOM     17  C   UNL     1       1.476   3.503  18.176  0.00  0.00    +0.000 C 
ATOM     18  C   UNL     1       2.939   3.064  18.112  0.00  0.00    +0.000 C 
ATOM     19  N   UNL     1       3.770   4.057  18.797  0.00  0.00    +0.000 N 
ATOM     20  C   UNL     1       3.433   4.309  20.201  0.00  0.00    +0.000 C 
ATOM     21  C   UNL     1       1.967   4.743  20.301  0.00  0.00    +0.000 C 
BRANCH  16  23
ATOM     22  C   UNL     1       1.429   2.599  21.875  0.00  0.00    +0.000 C 
ATOM     23  C   UNL     1       0.864   2.469  20.468  0.00  0.00    +0.000 C 
ENDBRANCH  16  23
ENDBRANCH   1  19
BRANCH   4  24
ATOM     24  O   UNL     1       8.024   6.704  16.343  0.00  0.00    +0.000 OA
ATOM     25  H   UNL     1       8.286   7.427  16.936  0.00  0.00    +0.000 HD
ENDBRANCH   4  24
TORSDOF 4
ENDMDL
MODEL 4
REMARK VINA RESULT:      -7.3      1.074      1.539
REMARK  Name = 
REMARK  5 active torsions:
REMARK  status: ('A' for Active; 'I' for Inactive)
REMARK    1  A    between atoms: C_1  and  C_2
REMARK    2  A    between atoms: C_2  and  C_3
REMARK    3  A    between atoms: N_6  and  C_7
REMARK    4  A    between atoms: C_10  and  O_11
REMARK    5  A    between atoms: C_12  and  C_13
REMARK                            x       y       z     vdW  Elec       q    Type
REMARK                         _______ _______ _______ _____ _____    ______ ____
ROOT
ATOM      1  C   UNL     1       2.287   6.674  19.902  0.00  0.00    +0.000 A 
ATOM      2  C   UNL     1       1.632   5.574  20.468  0.00  0.00    +0.000 A 
ATOM      3  C   UNL     1       2.136   4.279  20.361  0.00  0.00    +0.000 A 
ATOM      4  C   UNL     1       3.320   4.051  19.664  0.00  0.00    +0.000 A 
ATOM      5  C   UNL     1       4.020   5.101  19.043  0.00  0.00    +0.000 A 
ATOM      6  C   UNL     1       3.477   6.403  19.196  0.00  0.00    +0.000 A 
ENDROOT
BRANCH   5   7
ATOM      7  C   UNL     1       5.273   4.897  18.271  0.00  0.00    +0.000 A 
ATOM      8  C   UNL     1       6.514   5.272  18.749  0.00  0.00    +0.000 A 
ATOM      9  C   UNL     1       7.584   5.081  17.910  0.00  0.00    +0.000 A 
ATOM     10  N   UNL     1       7.478   4.525  16.695  0.00  0.00    +0.000 NA
ATOM     11  C   UNL     1       6.255   4.139  16.331  0.00  0.00    +0.000 A 
ATOM     12  N   UNL     1       6.128   3.561  15.083  0.00  0.00    +0.000 N 
ATOM     13  N   UNL     1       5.142   4.311  17.055  0.00  0.00    +0.000 NA
ATOM     14  H   UNL     1       6.894   3.875  14.502  0.00  0.00    +0.000 HD
ATOM     15  H   UNL     1       5.193   3.718  14.739  0.00  0.00    +0.000 HD
ENDBRANCH   5   7
BRANCH   1  19
ATOM     16  C   UNL     1      -0.238  10.032  20.026  0.00  0.00    +0.000 C 
ATOM     17  C   UNL     1      -0.145   8.969  21.137  0.00  0.00    +0.000 C 
ATOM     18  C   UNL     1       1.282   8.455  21.331  0.00  0.00    +0.000 C 
ATOM     19  N   UNL     1       1.791   7.957  20.052  0.00  0.00    +0.000 N 
ATOM     20  C   UNL     1       1.802   8.924  18.950  0.00  0.00    +0.000 C 
ATOM     21  C   UNL     1       0.385   9.466  18.736  0.00  0.00    +0.000 C 
BRANCH  16  23
ATOM     22  C   UNL     1      -0.208  12.051  21.609  0.00  0.00    +0.000 C 
ATOM     23  C   UNL     1       0.411  11.384  20.390  0.00  0.00    +0.000 C 
ENDBRANCH  16  23
ENDBRANCH   1  19
BRANCH   4  24
ATOM     24  O   UNL     1       3.800   2.771  19.615  0.00  0.00    +0.000 OA
ATOM     25  H   UNL     1       4.180   2.541  20.479  0.00  0.00    +0.000 HD
ENDBRANCH   4  24
TORSDOF 4
ENDMDL
MODEL 5
REMARK VINA RESULT:      -7.3      2.538      3.742
REMARK  Name = 
REMARK  5 active torsions:
REMARK  status: ('A' for Active; 'I' for Inactive)
REMARK    1  A    between atoms: C_1  and  C_2
REMARK    2  A    between atoms: C_2  and  C_3
REMARK    3  A    between atoms: N_6  and  C_7
REMARK    4  A    between atoms: C_10  and  O_11
REMARK    5  A    between atoms: C_12  and  C_13
REMARK                            x       y       z     vdW  Elec       q    Type
REMARK                         _______ _______ _______ _____ _____    ______ ____
ROOT
ATOM      1  C   UNL     1       1.749   8.409  19.719  0.00  0.00    +0.000 A 
ATOM      2  C   UNL     1       2.205   8.621  18.413  0.00  0.00    +0.000 A 
ATOM      3  C   UNL     1       2.764   7.598  17.650  0.00  0.00    +0.000 A 
ATOM      4  C   UNL     1       2.892   6.321  18.191  0.00  0.00    +0.000 A 
ATOM      5  C   UNL     1       2.484   6.037  19.506  0.00  0.00    +0.000 A 
ATOM      6  C   UNL     1       1.904   7.106  20.235  0.00  0.00    +0.000 A 
ENDROOT
BRANCH   5   7
ATOM      7  C   UNL     1       2.624   4.694  20.127  0.00  0.00    +0.000 A 
ATOM      8  C   UNL     1       1.698   4.182  21.016  0.00  0.00    +0.000 A 
ATOM      9  C   UNL     1       1.978   2.954  21.563  0.00  0.00    +0.000 A 
ATOM     10  N   UNL     1       3.066   2.238  21.248  0.00  0.00    +0.000 NA
ATOM     11  C   UNL     1       3.881   2.777  20.341  0.00  0.00    +0.000 A 
ATOM     12  N   UNL     1       5.005   2.049  20.001  0.00  0.00    +0.000 N 
ATOM     13  N   UNL     1       3.721   3.979  19.775  0.00  0.00    +0.000 NA
ATOM     14  H   UNL     1       5.229   1.425  20.765  0.00  0.00    +0.000 HD
ATOM     15  H   UNL     1       5.729   2.682  19.695  0.00  0.00    +0.000 HD
ENDBRANCH   5   7
BRANCH   1  19
ATOM     16  C   UNL     1      -1.013  10.828  21.766  0.00  0.00    +0.000 C 
ATOM     17  C   UNL     1      -0.351   9.568  22.356  0.00  0.00    +0.000 C 
ATOM     18  C   UNL     1       1.103   9.413  21.909  0.00  0.00    +0.000 C 
ATOM     19  N   UNL     1       1.161   9.429  20.447  0.00  0.00    +0.000 N 
ATOM     20  C   UNL     1       0.612  10.624  19.800  0.00  0.00    +0.000 C 
ATOM     21  C   UNL     1      -0.845  10.813  20.235  0.00  0.00    +0.000 C 
BRANCH  16  23
ATOM     22  C   UNL     1      -1.533  12.946  23.118  0.00  0.00    +0.000 C 
ATOM     23  C   UNL     1      -0.483  12.152  22.355  0.00  0.00    +0.000 C 
ENDBRANCH  16  23
ENDBRANCH   1  19
BRANCH   4  24
ATOM     24  O   UNL     1       3.411   5.336  17.396  0.00  0.00    +0.000 OA
ATOM     25  H   UNL     1       2.871   5.259  16.592  0.00  0.00    +0.000 HD
ENDBRANCH   4  24
TORSDOF 4
ENDMDL
MODEL 6
REMARK VINA RESULT:      -7.1      3.429      8.045
REMARK  Name = 
REMARK  5 active torsions:
REMARK  status: ('A' for Active; 'I' for Inactive)
REMARK    1  A    between atoms: C_1  and  C_2
REMARK    2  A    between atoms: C_2  and  C_3
REMARK    3  A    between atoms: N_6  and  C_7
REMARK    4  A    between atoms: C_10  and  O_11
REMARK    5  A    between atoms: C_12  and  C_13
REMARK                            x       y       z     vdW  Elec       q    Type
REMARK                         _______ _______ _______ _____ _____    ______ ____
ROOT
ATOM      1  C   UNL     1       1.958   7.347  19.105  0.00  0.00    +0.000 A 
ATOM      2  C   UNL     1       2.296   8.053  17.946  0.00  0.00    +0.000 A 
ATOM      3  C   UNL     1       2.062   9.420  17.818  0.00  0.00    +0.000 A 
ATOM      4  C   UNL     1       1.463  10.121  18.862  0.00  0.00    +0.000 A 
ATOM      5  C   UNL     1       1.068   9.477  20.047  0.00  0.00    +0.000 A 
ATOM      6  C   UNL     1       1.345   8.088  20.137  0.00  0.00    +0.000 A 
ENDROOT
BRANCH   5   7
ATOM      7  C   UNL     1       0.406  10.184  21.174  0.00  0.00    +0.000 A 
ATOM      8  C   UNL     1      -0.090   9.523  22.282  0.00  0.00    +0.000 A 
ATOM      9  C   UNL     1      -0.732  10.289  23.223  0.00  0.00    +0.000 A 
ATOM     10  N   UNL     1      -0.859  11.620  23.130  0.00  0.00    +0.000 NA
ATOM     11  C   UNL     1      -0.304  12.187  22.058  0.00  0.00    +0.000 A 
ATOM     12  N   UNL     1      -0.422  13.560  21.948  0.00  0.00    +0.000 N 
ATOM     13  N   UNL     1       0.311  11.532  21.066  0.00  0.00    +0.000 NA
ATOM     14  H   UNL     1      -1.229  13.858  22.479  0.00  0.00    +0.000 HD
ATOM     15  H   UNL     1      -0.389  13.817  20.973  0.00  0.00    +0.000 HD
ENDBRANCH   5   7
BRANCH   1  19
ATOM     16  C   UNL     1       1.636   3.157  19.179  0.00  0.00    +0.000 C 
ATOM     17  C   UNL     1       1.807   3.996  17.899  0.00  0.00    +0.000 C 
ATOM     18  C   UNL     1       2.733   5.194  18.110  0.00  0.00    +0.000 C 
ATOM     19  N   UNL     1       2.233   5.996  19.228  0.00  0.00    +0.000 N 
ATOM     20  C   UNL     1       2.101   5.293  20.508  0.00  0.00    +0.000 C 
ATOM     21  C   UNL     1       1.185   4.079  20.327  0.00  0.00    +0.000 C 
BRANCH  16  23
ATOM     22  C   UNL     1       3.508   1.561  18.449  0.00  0.00    +0.000 C 
ATOM     23  C   UNL     1       2.896   2.364  19.586  0.00  0.00    +0.000 C 
ENDBRANCH  16  23
ENDBRANCH   1  19
BRANCH   4  24
ATOM     24  O   UNL     1       1.286  11.470  18.712  0.00  0.00    +0.000 OA
ATOM     25  H   UNL     1       1.933  11.939  19.264  0.00  0.00    +0.000 HD
ENDBRANCH   4  24
TORSDOF 4
ENDMDL
MODEL 7
REMARK VINA RESULT:      -7.1      3.080      8.063
REMARK  Name = 
REMARK  5 active torsions:
REMARK  status: ('A' for Active; 'I' for Inactive)
REMARK    1  A    between atoms: C_1  and  C_2
REMARK    2  A    between atoms: C_2  and  C_3
REMARK    3  A    between atoms: N_6  and  C_7
REMARK    4  A    between atoms: C_10  and  O_11
REMARK    5  A    between atoms: C_12  and  C_13
REMARK                            x       y       z     vdW  Elec       q    Type
REMARK                         _______ _______ _______ _____ _____    ______ ____
ROOT
ATOM      1  C   UNL     1       2.328   7.556  18.689  0.00  0.00    +0.000 A 
ATOM      2  C   UNL     1       2.458   8.462  17.630  0.00  0.00    +0.000 A 
ATOM      3  C   UNL     1       1.984   9.770  17.713  0.00  0.00    +0.000 A 
ATOM      4  C   UNL     1       1.349  10.204  18.874  0.00  0.00    +0.000 A 
ATOM      5  C   UNL     1       1.154   9.345  19.969  0.00  0.00    +0.000 A 
ATOM      6  C   UNL     1       1.670   8.030  19.844  0.00  0.00    +0.000 A 
ENDROOT
BRANCH   5   7
ATOM      7  C   UNL     1       0.461   9.763  21.215  0.00  0.00    +0.000 A 
ATOM      8  C   UNL     1       0.695   9.162  22.438  0.00  0.00    +0.000 A 
ATOM      9  C   UNL     1      -0.056   9.604  23.499  0.00  0.00    +0.000 A 
ATOM     10  N   UNL     1      -0.955  10.593  23.404  0.00  0.00    +0.000 NA
ATOM     11  C   UNL     1      -1.082  11.158  22.204  0.00  0.00    +0.000 A 
ATOM     12  N   UNL     1      -2.002  12.182  22.089  0.00  0.00    +0.000 N 
ATOM     13  N   UNL     1      -0.427  10.781  21.098  0.00  0.00    +0.000 NA
ATOM     14  H   UNL     1      -2.695  12.076  22.818  0.00  0.00    +0.000 HD
ATOM     15  H   UNL     1      -2.334  12.224  21.137  0.00  0.00    +0.000 HD
ENDBRANCH   5   7
BRANCH   1  19
ATOM     16  C   UNL     1       3.481   3.762  17.297  0.00  0.00    +0.000 C 
ATOM     17  C   UNL     1       4.267   5.062  17.039  0.00  0.00    +0.000 C 
ATOM     18  C   UNL     1       4.232   6.009  18.239  0.00  0.00    +0.000 C 
ATOM     19  N   UNL     1       2.838   6.274  18.602  0.00  0.00    +0.000 N 
ATOM     20  C   UNL     1       2.030   5.095  18.929  0.00  0.00    +0.000 C 
ATOM     21  C   UNL     1       2.053   4.120  17.748  0.00  0.00    +0.000 C 
BRANCH  16  23
ATOM     22  C   UNL     1       3.443   1.473  18.457  0.00  0.00    +0.000 C 
ATOM     23  C   UNL     1       4.148   2.815  18.317  0.00  0.00    +0.000 C 
ENDBRANCH  16  23
ENDBRANCH   1  19
BRANCH   4  24
ATOM     24  O   UNL     1       0.933  11.507  18.929  0.00  0.00    +0.000 OA
ATOM     25  H   UNL     1       0.393  11.634  19.726  0.00  0.00    +0.000 HD
ENDBRANCH   4  24
TORSDOF 4
ENDMDL
MODEL 8
REMARK VINA RESULT:      -7.1      4.026      8.012
REMARK  Name = 
REMARK  5 active torsions:
REMARK  status: ('A' for Active; 'I' for Inactive)
REMARK    1  A    between atoms: C_1  and  C_2
REMARK    2  A    between atoms: C_2  and  C_3
REMARK    3  A    between atoms: N_6  and  C_7
REMARK    4  A    between atoms: C_10  and  O_11
REMARK    5  A    between atoms: C_12  and  C_13
REMARK                            x       y       z     vdW  Elec       q    Type
REMARK                         _______ _______ _______ _____ _____    ______ ____
ROOT
ATOM      1  C   UNL     1       5.148   4.882  15.675  0.00  0.00    +0.000 A 
ATOM      2  C   UNL     1       5.315   6.244  15.950  0.00  0.00    +0.000 A 
ATOM      3  C   UNL     1       4.686   6.863  17.027  0.00  0.00    +0.000 A 
ATOM      4  C   UNL     1       3.852   6.123  17.861  0.00  0.00    +0.000 A 
ATOM      5  C   UNL     1       3.610   4.757  17.634  0.00  0.00    +0.000 A 
ATOM      6  C   UNL     1       4.288   4.168  16.536  0.00  0.00    +0.000 A 
ENDROOT
BRANCH   5   7
ATOM      7  C   UNL     1       2.710   3.938  18.486  0.00  0.00    +0.000 A 
ATOM      8  C   UNL     1       1.702   3.148  17.965  0.00  0.00    +0.000 A 
ATOM      9  C   UNL     1       0.904   2.489  18.866  0.00  0.00    +0.000 A 
ATOM     10  N   UNL     1       1.083   2.550  20.193  0.00  0.00    +0.000 NA
ATOM     11  C   UNL     1       2.111   3.289  20.612  0.00  0.00    +0.000 A 
ATOM     12  N   UNL     1       2.312   3.361  21.978  0.00  0.00    +0.000 N 
ATOM     13  N   UNL     1       2.926   4.000  19.823  0.00  0.00    +0.000 NA
ATOM     14  H   UNL     1       1.436   3.169  22.444  0.00  0.00    +0.000 HD
ATOM     15  H   UNL     1       2.773   4.231  22.199  0.00  0.00    +0.000 HD
ENDBRANCH   5   7
BRANCH   1  19
ATOM     16  C   UNL     1       6.736   3.993  11.887  0.00  0.00    +0.000 C 
ATOM     17  C   UNL     1       7.350   5.002  12.875  0.00  0.00    +0.000 C 
ATOM     18  C   UNL     1       7.220   4.544  14.328  0.00  0.00    +0.000 C 
ATOM     19  N   UNL     1       5.812   4.276  14.623  0.00  0.00    +0.000 N 
ATOM     20  C   UNL     1       5.161   3.276  13.771  0.00  0.00    +0.000 C 
ATOM     21  C   UNL     1       5.283   3.702  12.305  0.00  0.00    +0.000 C 
BRANCH  16  23
ATOM     22  C   UNL     1       6.789   1.587  10.995  0.00  0.00    +0.000 C 
ATOM     23  C   UNL     1       7.532   2.678  11.751  0.00  0.00    +0.000 C 
ENDBRANCH  16  23
ENDBRANCH   1  19
BRANCH   4  24
ATOM     24  O   UNL     1       3.283   6.761  18.931  0.00  0.00    +0.000 OA
ATOM     25  H   UNL     1       3.972   7.243  19.416  0.00  0.00    +0.000 HD
ENDBRANCH   4  24
TORSDOF 4
ENDMDL
MODEL 9
REMARK VINA RESULT:      -7.0      0.592      1.310
REMARK  Name = 
REMARK  5 active torsions:
REMARK  status: ('A' for Active; 'I' for Inactive)
REMARK    1  A    between atoms: C_1  and  C_2
REMARK    2  A    between atoms: C_2  and  C_3
REMARK    3  A    between atoms: N_6  and  C_7
REMARK    4  A    between atoms: C_10  and  O_11
REMARK    5  A    between atoms: C_12  and  C_13
REMARK                            x       y       z     vdW  Elec       q    Type
REMARK                         _______ _______ _______ _____ _____    ______ ____
ROOT
ATOM      1  C   UNL     1       2.074   7.352  19.458  0.00  0.00    +0.000 A 
ATOM      2  C   UNL     1       1.759   6.371  20.406  0.00  0.00    +0.000 A 
ATOM      3  C   UNL     1       2.472   5.178  20.499  0.00  0.00    +0.000 A 
ATOM      4  C   UNL     1       3.526   4.930  19.624  0.00  0.00    +0.000 A 
ATOM      5  C   UNL     1       3.885   5.854  18.626  0.00  0.00    +0.000 A 
ATOM      6  C   UNL     1       3.142   7.061  18.584  0.00  0.00    +0.000 A 
ENDROOT
BRANCH   5   7
ATOM      7  C   UNL     1       4.988   5.617  17.659  0.00  0.00    +0.000 A 
ATOM      8  C   UNL     1       4.893   5.951  16.321  0.00  0.00    +0.000 A 
ATOM      9  C   UNL     1       5.961   5.624  15.524  0.00  0.00    +0.000 A 
ATOM     10  N   UNL     1       7.077   5.045  15.988  0.00  0.00    +0.000 NA
ATOM     11  C   UNL     1       7.112   4.806  17.299  0.00  0.00    +0.000 A 
ATOM     12  N   UNL     1       8.257   4.212  17.795  0.00  0.00    +0.000 N 
ATOM     13  N   UNL     1       6.114   5.051  18.157  0.00  0.00    +0.000 NA
ATOM     14  H   UNL     1       8.709   3.707  17.045  0.00  0.00    +0.000 HD
ATOM     15  H   UNL     1       8.026   3.692  18.629  0.00  0.00    +0.000 HD
ENDBRANCH   5   7
BRANCH   1  19
ATOM     16  C   UNL     1       1.035  11.421  19.620  0.00  0.00    +0.000 C 
ATOM     17  C   UNL     1       1.765  10.753  18.439  0.00  0.00    +0.000 C 
ATOM     18  C   UNL     1       1.264   9.333  18.176  0.00  0.00    +0.000 C 
ATOM     19  N   UNL     1       1.380   8.548  19.406  0.00  0.00    +0.000 N 
ATOM     20  C   UNL     1       0.660   9.076  20.569  0.00  0.00    +0.000 C 
ATOM     21  C   UNL     1       1.133  10.504  20.853  0.00  0.00    +0.000 C 
BRANCH  16  23
ATOM     22  C   UNL     1      -0.606  12.854  18.264  0.00  0.00    +0.000 C 
ATOM     23  C   UNL     1      -0.437  11.781  19.329  0.00  0.00    +0.000 C 
ENDBRANCH  16  23
ENDBRANCH   1  19
BRANCH   4  24
ATOM     24  O   UNL     1       4.225   3.763  19.774  0.00  0.00    +0.000 OA
ATOM     25  H   UNL     1       4.357   3.357  18.901  0.00  0.00    +0.000 HD
ENDBRANCH   4  24
TORSDOF 4
ENDMDL
