MODEL 1
REMARK VINA RESULT:      -7.0      0.000      0.000
REMARK  Name = 
REMARK  4 active torsions:
REMARK  status: ('A' for Active; 'I' for Inactive)
REMARK    1  A    between atoms: C_1  and  O_2
REMARK    2  A    between atoms: O_2  and  C_3
REMARK    3  A    between atoms: C_7  and  N_8
REMARK    4  A    between atoms: C_14  and  O_15
REMARK                            x       y       z     vdW  Elec       q    Type
REMARK                         _______ _______ _______ _____ _____    ______ ____
ROOT
ATOM      1  N   UNL     1       4.366   3.829  17.488  0.00  0.00    +0.000 N 
ATOM      2  C   UNL     1       3.278   4.534  17.951  0.00  0.00    +0.000 C 
ATOM      3  O   UNL     1       2.977   5.671  17.595  0.00  0.00    +0.000 OA
ATOM      4  N   UNL     1       2.475   3.866  18.877  0.00  0.00    +0.000 N 
ATOM      5  C   UNL     1       2.624   2.487  19.341  0.00  0.00    +0.000 C 
ATOM      6  C   UNL     1       3.078   2.479  20.795  0.00  0.00    +0.000 C 
ATOM      7  C   UNL     1       2.134   3.299  21.676  0.00  0.00    +0.000 C 
ATOM      8  C   UNL     1       1.903   4.703  21.113  0.00  0.00    +0.000 C 
ATOM      9  C   UNL     1       1.501   4.659  19.637  0.00  0.00    +0.000 C 
ATOM     10  H   UNL     1       4.417   2.851  17.712  0.00  0.00    +0.000 HD
ENDROOT
BRANCH   1  15
ATOM     11  C   UNL     1       7.322   5.080  14.705  0.00  0.00    +0.000 A 
ATOM     12  C   UNL     1       7.222   5.706  15.938  0.00  0.00    +0.000 A 
ATOM     13  C   UNL     1       6.270   5.304  16.872  0.00  0.00    +0.000 A 
ATOM     14  F   UNL     1       6.341   5.912  18.059  0.00  0.00    +0.000 F 
ATOM     15  C   UNL     1       5.368   4.277  16.597  0.00  0.00    +0.000 A 
ATOM     16  C   UNL     1       5.476   3.631  15.358  0.00  0.00    +0.000 A 
ATOM     17  C   UNL     1       6.441   4.036  14.429  0.00  0.00    +0.000 A 
ATOM     18  F   UNL     1       6.491   3.400  13.244  0.00  0.00    +0.000 F 
BRANCH  11  20
ATOM     19  C   UNL     1       7.740   5.531  12.415  0.00  0.00    +0.000 C 
ATOM     20  O   UNL     1       8.247   5.416  13.749  0.00  0.00    +0.000 OA
ENDBRANCH  11  20
ENDBRANCH   1  15
BRANCH   7  21
ATOM     21  O   UNL     1       0.896   2.609  21.841  0.00  0.00    +0.000 OA
ATOM     22  H   UNL     1       0.708   2.498  22.787  0.00  0.00    +0.000 HD
ENDBRANCH   7  21
TORSDOF 3
ENDMDL
MODEL 2
REMARK VINA RESULT:      -6.9      4.215      6.798
REMARK  Name = 
REMARK  4 active torsions:
REMARK  status: ('A' for Active; 'I' for Inactive)
REMARK    1  A    between atoms: C_1  and  O_2
REMARK    2  A    between atoms: O_2  and  C_3
REMARK    3  A    between atoms: C_7  and  N_8
REMARK    4  A    between atoms: C_14  and  O_15
REMARK                            x       y       z     vdW  Elec       q    Type
REMARK                         _______ _______ _______ _____ _____    ______ ____
ROOT
ATOM      1  N   UNL     1       2.733   6.165  19.132  0.00  0.00    +0.000 N 
ATOM      2  C   UNL     1       2.286   5.223  18.233  0.00  0.00    +0.000 C 
ATOM      3  O   UNL     1       1.295   5.353  17.518  0.00  0.00    +0.000 OA
ATOM      4  N   UNL     1       3.051   4.059  18.148  0.00  0.00    +0.000 N 
ATOM      5  C   UNL     1       4.303   3.773  18.846  0.00  0.00    +0.000 C 
ATOM      6  C   UNL     1       4.072   2.695  19.897  0.00  0.00    +0.000 C 
ATOM      7  C   UNL     1       3.443   1.445  19.281  0.00  0.00    +0.000 C 
ATOM      8  C   UNL     1       2.195   1.780  18.461  0.00  0.00    +0.000 C 
ATOM      9  C   UNL     1       2.464   2.903  17.458  0.00  0.00    +0.000 C 
ATOM     10  H   UNL     1       3.644   6.029  19.534  0.00  0.00    +0.000 HD
ENDROOT
BRANCH   1  15
ATOM     11  C   UNL     1       0.897   9.825  20.264  0.00  0.00    +0.000 A 
ATOM     12  C   UNL     1       1.402   9.671  18.983  0.00  0.00    +0.000 A 
ATOM     13  C   UNL     1       1.995   8.475  18.584  0.00  0.00    +0.000 A 
ATOM     14  F   UNL     1       2.348   8.412  17.297  0.00  0.00    +0.000 F 
ATOM     15  C   UNL     1       2.127   7.398  19.461  0.00  0.00    +0.000 A 
ATOM     16  C   UNL     1       1.604   7.545  20.753  0.00  0.00    +0.000 A 
ATOM     17  C   UNL     1       1.002   8.747  21.142  0.00  0.00    +0.000 A 
ATOM     18  F   UNL     1       0.534   8.847  22.401  0.00  0.00    +0.000 F 
BRANCH  11  20
ATOM     19  C   UNL     1       1.043  12.173  20.558  0.00  0.00    +0.000 C 
ATOM     20  O   UNL     1       0.286  10.968  20.714  0.00  0.00    +0.000 OA
ENDBRANCH  11  20
ENDBRANCH   1  15
BRANCH   7  21
ATOM     21  O   UNL     1       4.403   0.755  18.484  0.00  0.00    +0.000 OA
ATOM     22  H   UNL     1       4.049   0.622  17.590  0.00  0.00    +0.000 HD
ENDBRANCH   7  21
TORSDOF 3
ENDMDL
MODEL 3
REMARK VINA RESULT:      -6.9      1.413      1.627
REMARK  Name = 
REMARK  4 active torsions:
REMARK  status: ('A' for Active; 'I' for Inactive)
REMARK    1  A    between atoms: C_1  and  O_2
REMARK    2  A    between atoms: O_2  and  C_3
REMARK    3  A    between atoms: C_7  and  N_8
REMARK    4  A    between atoms: C_14  and  O_15
REMARK                            x       y       z     vdW  Elec       q    Type
REMARK                         _______ _______ _______ _____ _____    ______ ____
ROOT
ATOM      1  N   UNL     1       4.844   3.570  18.019  0.00  0.00    +0.000 N 
ATOM      2  C   UNL     1       3.757   2.726  18.038  0.00  0.00    +0.000 C 
ATOM      3  O   UNL     1       3.279   2.179  17.047  0.00  0.00    +0.000 OA
ATOM      4  N   UNL     1       3.197   2.491  19.294  0.00  0.00    +0.000 N 
ATOM      5  C   UNL     1       3.686   2.977  20.583  0.00  0.00    +0.000 C 
ATOM      6  C   UNL     1       2.726   4.022  21.137  0.00  0.00    +0.000 C 
ATOM      7  C   UNL     1       1.299   3.478  21.216  0.00  0.00    +0.000 C 
ATOM      8  C   UNL     1       0.845   2.872  19.886  0.00  0.00    +0.000 C 
ATOM      9  C   UNL     1       1.867   1.870  19.346  0.00  0.00    +0.000 C 
ATOM     10  H   UNL     1       5.254   3.821  18.901  0.00  0.00    +0.000 HD
ENDROOT
BRANCH   1  15
ATOM     11  C   UNL     1       6.884   4.914  14.544  0.00  0.00    +0.000 A 
ATOM     12  C   UNL     1       7.521   4.941  15.774  0.00  0.00    +0.000 A 
ATOM     13  C   UNL     1       6.878   4.492  16.925  0.00  0.00    +0.000 A 
ATOM     14  F   UNL     1       7.630   4.470  18.029  0.00  0.00    +0.000 F 
ATOM     15  C   UNL     1       5.565   4.023  16.891  0.00  0.00    +0.000 A 
ATOM     16  C   UNL     1       4.923   3.979  15.646  0.00  0.00    +0.000 A 
ATOM     17  C   UNL     1       5.580   4.425  14.493  0.00  0.00    +0.000 A 
ATOM     18  F   UNL     1       4.914   4.384  13.324  0.00  0.00    +0.000 F 
BRANCH  11  20
ATOM     19  C   UNL     1       7.457   4.364  12.309  0.00  0.00    +0.000 C 
ATOM     20  O   UNL     1       7.467   5.324  13.371  0.00  0.00    +0.000 OA
ENDBRANCH  11  20
ENDBRANCH   1  15
BRANCH   7  21
ATOM     21  O   UNL     1       1.197   2.522  22.270  0.00  0.00    +0.000 OA
ATOM     22  H   UNL     1       0.267   2.267  22.389  0.00  0.00    +0.000 HD
ENDBRANCH   7  21
TORSDOF 3
ENDMDL
MODEL 4
REMARK VINA RESULT:      -6.9      4.277      7.170
REMARK  Name = 
REMARK  4 active torsions:
REMARK  status: ('A' for Active; 'I' for Inactive)
REMARK    1  A    between atoms: C_1  and  O_2
REMARK    2  A    between atoms: O_2  and  C_3
REMARK    3  A    between atoms: C_7  and  N_8
REMARK    4  A    between atoms: C_14  and  O_15
REMARK                            x       y       z     vdW  Elec       q    Type
REMARK                         _______ _______ _______ _____ _____    ______ ____
ROOT
ATOM      1  N   UNL     1       2.391   6.314  19.916  0.00  0.00    +0.000 N 
ATOM      2  C   UNL     1       3.513   5.906  19.231  0.00  0.00    +0.000 C 
ATOM      3  O   UNL     1       4.273   6.655  18.622  0.00  0.00    +0.000 OA
ATOM      4  N   UNL     1       3.778   4.536  19.268  0.00  0.00    +0.000 N 
ATOM      5  C   UNL     1       3.043   3.515  20.013  0.00  0.00    +0.000 C 
ATOM      6  C   UNL     1       2.280   2.620  19.045  0.00  0.00    +0.000 C 
ATOM      7  C   UNL     1       3.211   2.022  17.990  0.00  0.00    +0.000 C 
ATOM      8  C   UNL     1       4.053   3.096  17.298  0.00  0.00    +0.000 C 
ATOM      9  C   UNL     1       4.756   4.001  18.312  0.00  0.00    +0.000 C 
ATOM     10  H   UNL     1       1.944   5.645  20.518  0.00  0.00    +0.000 HD
ENDROOT
BRANCH   1  15
ATOM     11  C   UNL     1       0.794  10.231  20.315  0.00  0.00    +0.000 A 
ATOM     12  C   UNL     1       1.141   9.748  19.063  0.00  0.00    +0.000 A 
ATOM     13  C   UNL     1       1.652   8.462  18.906  0.00  0.00    +0.000 A 
ATOM     14  F   UNL     1       1.850   8.076  17.642  0.00  0.00    +0.000 F 
ATOM     15  C   UNL     1       1.860   7.621  19.998  0.00  0.00    +0.000 A 
ATOM     16  C   UNL     1       1.496   8.099  21.264  0.00  0.00    +0.000 A 
ATOM     17  C   UNL     1       0.974   9.390  21.412  0.00  0.00    +0.000 A 
ATOM     18  F   UNL     1       0.661   9.812  22.651  0.00  0.00    +0.000 F 
BRANCH  11  20
ATOM     19  C   UNL     1      -1.112  11.636  20.192  0.00  0.00    +0.000 C 
ATOM     20  O   UNL     1       0.269  11.479  20.536  0.00  0.00    +0.000 OA
ENDBRANCH  11  20
ENDBRANCH   1  15
BRANCH   7  21
ATOM     21  O   UNL     1       4.045   1.026  18.580  0.00  0.00    +0.000 OA
ATOM     22  H   UNL     1       4.927   1.058  18.175  0.00  0.00    +0.000 HD
ENDBRANCH   7  21
TORSDOF 3
ENDMDL
MODEL 5
REMARK VINA RESULT:      -6.8      4.376      6.390
REMARK  Name = 
REMARK  4 active torsions:
REMARK  status: ('A' for Active; 'I' for Inactive)
REMARK    1  A    between atoms: C_1  and  O_2
REMARK    2  A    between atoms: O_2  and  C_3
REMARK    3  A    between atoms: C_7  and  N_8
REMARK    4  A    between atoms: C_14  and  O_15
REMARK                            x       y       z     vdW  Elec       q    Type
REMARK                         _______ _______ _______ _____ _____    ______ ____
ROOT
ATOM      1  N   UNL     1       2.867   6.134  18.776  0.00  0.00    +0.000 N 
ATOM      2  C   UNL     1       2.302   5.098  18.067  0.00  0.00    +0.000 C 
ATOM      3  O   UNL     1       1.215   5.151  17.496  0.00  0.00    +0.000 OA
ATOM      4  N   UNL     1       3.057   3.926  18.005  0.00  0.00    +0.000 N 
ATOM      5  C   UNL     1       4.401   3.712  18.539  0.00  0.00    +0.000 C 
ATOM      6  C   UNL     1       4.337   2.766  19.730  0.00  0.00    +0.000 C 
ATOM      7  C   UNL     1       3.636   1.457  19.363  0.00  0.00    +0.000 C 
ATOM      8  C   UNL     1       2.278   1.705  18.702  0.00  0.00    +0.000 C 
ATOM      9  C   UNL     1       2.386   2.702  17.547  0.00  0.00    +0.000 C 
ATOM     10  H   UNL     1       3.829   6.039  19.052  0.00  0.00    +0.000 HD
ENDROOT
BRANCH   1  15
ATOM     11  C   UNL     1       1.217   9.990  19.448  0.00  0.00    +0.000 A 
ATOM     12  C   UNL     1       1.066   8.996  20.402  0.00  0.00    +0.000 A 
ATOM     13  C   UNL     1       1.611   7.729  20.210  0.00  0.00    +0.000 A 
ATOM     14  F   UNL     1       1.489   6.891  21.244  0.00  0.00    +0.000 F 
ATOM     15  C   UNL     1       2.305   7.402  19.046  0.00  0.00    +0.000 A 
ATOM     16  C   UNL     1       2.473   8.408  18.086  0.00  0.00    +0.000 A 
ATOM     17  C   UNL     1       1.930   9.682  18.290  0.00  0.00    +0.000 A 
ATOM     18  F   UNL     1       2.099  10.609  17.329  0.00  0.00    +0.000 F 
BRANCH  11  20
ATOM     19  C   UNL     1      -0.669  11.350  19.913  0.00  0.00    +0.000 C 
ATOM     20  O   UNL     1       0.721  11.262  19.583  0.00  0.00    +0.000 OA
ENDBRANCH  11  20
ENDBRANCH   1  15
BRANCH   7  21
ATOM     21  O   UNL     1       4.475   0.672  18.517  0.00  0.00    +0.000 OA
ATOM     22  H   UNL     1       4.818  -0.088  19.015  0.00  0.00    +0.000 HD
ENDBRANCH   7  21
TORSDOF 3
ENDMDL
MODEL 6
REMARK VINA RESULT:      -6.7      4.419      7.682
REMARK  Name = 
REMARK  4 active torsions:
REMARK  status: ('A' for Active; 'I' for Inactive)
REMARK    1  A    between atoms: C_1  and  O_2
REMARK    2  A    between atoms: O_2  and  C_3
REMARK    3  A    between atoms: C_7  and  N_8
REMARK    4  A    between atoms: C_14  and  O_15
REMARK                            x       y       z     vdW  Elec       q    Type
REMARK                         _______ _______ _______ _____ _____    ______ ____
ROOT
ATOM      1  N   UNL     1       2.976   7.746  18.000  0.00  0.00    +0.000 N 
ATOM      2  C   UNL     1       3.119   6.379  17.919  0.00  0.00    +0.000 C 
ATOM      3  O   UNL     1       2.326   5.564  18.384  0.00  0.00    +0.000 OA
ATOM      4  N   UNL     1       4.253   5.929  17.240  0.00  0.00    +0.000 N 
ATOM      5  C   UNL     1       5.248   6.746  16.548  0.00  0.00    +0.000 C 
ATOM      6  C   UNL     1       6.564   6.713  17.312  0.00  0.00    +0.000 C 
ATOM      7  C   UNL     1       7.037   5.277  17.541  0.00  0.00    +0.000 C 
ATOM      8  C   UNL     1       5.943   4.408  18.165  0.00  0.00    +0.000 C 
ATOM      9  C   UNL     1       4.627   4.518  17.392  0.00  0.00    +0.000 C 
ATOM     10  H   UNL     1       3.588   8.312  17.438  0.00  0.00    +0.000 HD
ENDROOT
BRANCH   1  15
ATOM     11  C   UNL     1      -0.107   9.980  19.884  0.00  0.00    +0.000 A 
ATOM     12  C   UNL     1       0.629   9.062  20.616  0.00  0.00    +0.000 A 
ATOM     13  C   UNL     1       1.655   8.328  20.023  0.00  0.00    +0.000 A 
ATOM     14  F   UNL     1       2.358   7.554  20.854  0.00  0.00    +0.000 F 
ATOM     15  C   UNL     1       1.964   8.468  18.671  0.00  0.00    +0.000 A 
ATOM     16  C   UNL     1       1.233   9.407  17.931  0.00  0.00    +0.000 A 
ATOM     17  C   UNL     1       0.210  10.146  18.536  0.00  0.00    +0.000 A 
ATOM     18  F   UNL     1      -0.479  11.020  17.779  0.00  0.00    +0.000 F 
BRANCH  11  20
ATOM     19  C   UNL     1      -0.693  11.893  21.157  0.00  0.00    +0.000 C 
ATOM     20  O   UNL     1      -1.116  10.746  20.411  0.00  0.00    +0.000 OA
ENDBRANCH  11  20
ENDBRANCH   1  15
BRANCH   7  21
ATOM     21  O   UNL     1       7.496   4.711  16.314  0.00  0.00    +0.000 OA
ATOM     22  H   UNL     1       7.257   5.295  15.577  0.00  0.00    +0.000 HD
ENDBRANCH   7  21
TORSDOF 3
ENDMDL
MODEL 7
REMARK VINA RESULT:      -6.6      4.217      6.066
REMARK  Name = 
REMARK  4 active torsions:
REMARK  status: ('A' for Active; 'I' for Inactive)
REMARK    1  A    between atoms: C_1  and  O_2
REMARK    2  A    between atoms: O_2  and  C_3
REMARK    3  A    between atoms: C_7  and  N_8
REMARK    4  A    between atoms: C_14  and  O_15
REMARK                            x       y       z     vdW  Elec       q    Type
REMARK                         _______ _______ _______ _____ _____    ______ ____
ROOT
ATOM      1  N   UNL     1       2.207   7.125  18.330  0.00  0.00    +0.000 N 
ATOM      2  C   UNL     1       1.959   7.770  19.521  0.00  0.00    +0.000 C 
ATOM      3  O   UNL     1       2.137   7.279  20.633  0.00  0.00    +0.000 OA
ATOM      4  N   UNL     1       1.488   9.079  19.412  0.00  0.00    +0.000 N 
ATOM      5  C   UNL     1       1.307   9.853  18.184  0.00  0.00    +0.000 C 
ATOM      6  C   UNL     1      -0.178  10.050  17.914  0.00  0.00    +0.000 C 
ATOM      7  C   UNL     1      -0.882  10.681  19.116  0.00  0.00    +0.000 C 
ATOM      8  C   UNL     1      -0.590   9.920  20.411  0.00  0.00    +0.000 C 
ATOM      9  C   UNL     1       0.911   9.701  20.610  0.00  0.00    +0.000 C 
ATOM     10  H   UNL     1       2.193   7.677  17.490  0.00  0.00    +0.000 HD
ENDROOT
BRANCH   1  15
ATOM     11  C   UNL     1       3.337   3.067  17.783  0.00  0.00    +0.000 A 
ATOM     12  C   UNL     1       4.289   4.070  17.685  0.00  0.00    +0.000 A 
ATOM     13  C   UNL     1       3.945   5.406  17.875  0.00  0.00    +0.000 A 
ATOM     14  F   UNL     1       4.966   6.268  17.858  0.00  0.00    +0.000 F 
ATOM     15  C   UNL     1       2.631   5.790  18.145  0.00  0.00    +0.000 A 
ATOM     16  C   UNL     1       1.669   4.778  18.261  0.00  0.00    +0.000 A 
ATOM     17  C   UNL     1       2.026   3.437  18.077  0.00  0.00    +0.000 A 
ATOM     18  F   UNL     1       1.062   2.502  18.176  0.00  0.00    +0.000 F 
BRANCH  11  20
ATOM     19  C   UNL     1       3.981   1.034  18.820  0.00  0.00    +0.000 C 
ATOM     20  O   UNL     1       3.613   1.732  17.625  0.00  0.00    +0.000 OA
ENDBRANCH  11  20
ENDBRANCH   1  15
BRANCH   7  21
ATOM     21  O   UNL     1      -0.510  12.052  19.238  0.00  0.00    +0.000 OA
ATOM     22  H   UNL     1       0.458  12.126  19.261  0.00  0.00    +0.000 HD
ENDBRANCH   7  21
TORSDOF 3
ENDMDL
MODEL 8
REMARK VINA RESULT:      -6.5      4.842      8.183
REMARK  Name = 
REMARK  4 active torsions:
REMARK  status: ('A' for Active; 'I' for Inactive)
REMARK    1  A    between atoms: C_1  and  O_2
REMARK    2  A    between atoms: O_2  and  C_3
REMARK    3  A    between atoms: C_7  and  N_8
REMARK    4  A    between atoms: C_14  and  O_15
REMARK                            x       y       z     vdW  Elec       q    Type
REMARK                         _______ _______ _______ _____ _____    ______ ____
ROOT
ATOM      1  N   UNL     1       2.203   7.643  19.283  0.00  0.00    +0.000 N 
ATOM      2  C   UNL     1       2.325   6.294  19.529  0.00  0.00    +0.000 C 
ATOM      3  O   UNL     1       1.726   5.687  20.414  0.00  0.00    +0.000 OA
ATOM      4  N   UNL     1       3.189   5.601  18.680  0.00  0.00    +0.000 N 
ATOM      5  C   UNL     1       3.907   6.135  17.524  0.00  0.00    +0.000 C 
ATOM      6  C   UNL     1       5.397   6.196  17.827  0.00  0.00    +0.000 C 
ATOM      7  C   UNL     1       5.930   4.834  18.273  0.00  0.00    +0.000 C 
ATOM      8  C   UNL     1       5.097   4.240  19.410  0.00  0.00    +0.000 C 
ATOM      9  C   UNL     1       3.603   4.249  19.079  0.00  0.00    +0.000 C 
ATOM     10  H   UNL     1       2.601   7.998  18.432  0.00  0.00    +0.000 HD
ENDROOT
BRANCH   1  15
ATOM     11  C   UNL     1      -0.003  10.428  21.612  0.00  0.00    +0.000 A 
ATOM     12  C   UNL     1      -0.027  10.509  20.229  0.00  0.00    +0.000 A 
ATOM     13  C   UNL     1       0.676   9.598  19.444  0.00  0.00    +0.000 A 
ATOM     14  F   UNL     1       0.492   9.716  18.126  0.00  0.00    +0.000 F 
ATOM     15  C   UNL     1       1.450   8.588  20.015  0.00  0.00    +0.000 A 
ATOM     16  C   UNL     1       1.464   8.493  21.413  0.00  0.00    +0.000 A 
ATOM     17  C   UNL     1       0.747   9.407  22.194  0.00  0.00    +0.000 A 
ATOM     18  F   UNL     1       0.809   9.288  23.533  0.00  0.00    +0.000 F 
BRANCH  11  20
ATOM     19  C   UNL     1      -1.640  12.134  21.796  0.00  0.00    +0.000 C 
ATOM     20  O   UNL     1      -0.688  11.281  22.441  0.00  0.00    +0.000 OA
ENDBRANCH  11  20
ENDBRANCH   1  15
BRANCH   7  21
ATOM     21  O   UNL     1       5.981   3.941  17.161  0.00  0.00    +0.000 OA
ATOM     22  H   UNL     1       6.792   3.408  17.208  0.00  0.00    +0.000 HD
ENDBRANCH   7  21
TORSDOF 3
ENDMDL
MODEL 9
REMARK VINA RESULT:      -6.5      4.285      7.804
REMARK  Name = 
REMARK  4 active torsions:
REMARK  status: ('A' for Active; 'I' for Inactive)
REMARK    1  A    between atoms: C_1  and  O_2
REMARK    2  A    between atoms: O_2  and  C_3
REMARK    3  A    between atoms: C_7  and  N_8
REMARK    4  A    between atoms: C_14  and  O_15
REMARK                            x       y       z     vdW  Elec       q    Type
REMARK                         _______ _______ _______ _____ _____    ______ ____
ROOT
ATOM      1  N   UNL     1       3.035   7.645  18.193  0.00  0.00    +0.000 N 
ATOM      2  C   UNL     1       3.175   6.281  18.074  0.00  0.00    +0.000 C 
ATOM      3  O   UNL     1       2.416   5.453  18.572  0.00  0.00    +0.000 OA
ATOM      4  N   UNL     1       4.263   5.849  17.313  0.00  0.00    +0.000 N 
ATOM      5  C   UNL     1       5.209   6.684  16.574  0.00  0.00    +0.000 C 
ATOM      6  C   UNL     1       6.572   6.639  17.250  0.00  0.00    +0.000 C 
ATOM      7  C   UNL     1       7.062   5.200  17.417  0.00  0.00    +0.000 C 
ATOM      8  C   UNL     1       6.013   4.315  18.093  0.00  0.00    +0.000 C 
ATOM      9  C   UNL     1       4.649   4.436  17.410  0.00  0.00    +0.000 C 
ATOM     10  H   UNL     1       3.607   8.224  17.605  0.00  0.00    +0.000 HD
ENDROOT
BRANCH   1  15
ATOM     11  C   UNL     1       0.173   9.690  20.575  0.00  0.00    +0.000 A 
ATOM     12  C   UNL     1       0.333  10.030  19.241  0.00  0.00    +0.000 A 
ATOM     13  C   UNL     1       1.255   9.363  18.436  0.00  0.00    +0.000 A 
ATOM     14  F   UNL     1       1.244   9.710  17.146  0.00  0.00    +0.000 F 
ATOM     15  C   UNL     1       2.067   8.350  18.944  0.00  0.00    +0.000 A 
ATOM     16  C   UNL     1       1.896   7.992  20.288  0.00  0.00    +0.000 A 
ATOM     17  C   UNL     1       0.962   8.661  21.087  0.00  0.00    +0.000 A 
ATOM     18  F   UNL     1       0.850   8.297  22.378  0.00  0.00    +0.000 F 
BRANCH  11  20
ATOM     19  C   UNL     1      -1.091  11.634  21.069  0.00  0.00    +0.000 C 
ATOM     20  O   UNL     1      -0.729  10.293  21.415  0.00  0.00    +0.000 OA
ENDBRANCH  11  20
ENDBRANCH   1  15
BRANCH   7  21
ATOM     21  O   UNL     1       7.441   4.662  16.151  0.00  0.00    +0.000 OA
ATOM     22  H   UNL     1       7.522   5.380  15.503  0.00  0.00    +0.000 HD
ENDBRANCH   7  21
TORSDOF 3
ENDMDL
