MODEL 1
REMARK VINA RESULT:      -8.0      0.000      0.000
REMARK  Name = 
REMARK  4 active torsions:
REMARK  status: ('A' for Active; 'I' for Inactive)
REMARK    1  A    between atoms: C_1  and  C_2
REMARK    2  A    between atoms: C_3  and  C_4
REMARK    3  A    between atoms: C_14  and  C_15
REMARK    4  A    between atoms: C_21  and  C_22
REMARK                            x       y       z     vdW  Elec       q    Type
REMARK                         _______ _______ _______ _____ _____    ______ ____
ROOT
ATOM      1  C   UNL     1       0.133   9.125  22.309  0.00  0.00    +0.000 C 
ATOM      2  C   UNL     1       0.588   9.491  20.938  0.00  0.00    +0.000 A 
ATOM      3  C   UNL     1       0.384  10.674  20.228  0.00  0.00    +0.000 A 
ATOM      4  N   UNL     1       0.924  10.474  18.972  0.00  0.00    +0.000 N 
ATOM      5  C   UNL     1       1.505   9.232  18.868  0.00  0.00    +0.000 A 
ATOM      6  C   UNL     1       2.157   8.611  17.793  0.00  0.00    +0.000 A 
ATOM      7  C   UNL     1       2.666   7.322  18.006  0.00  0.00    +0.000 A 
ATOM      8  C   UNL     1       2.541   6.681  19.247  0.00  0.00    +0.000 A 
ATOM      9  C   UNL     1       1.862   7.319  20.290  0.00  0.00    +0.000 A 
ATOM     10  C   UNL     1       1.335   8.610  20.097  0.00  0.00    +0.000 A 
ATOM     11  H   UNL     1       0.916  11.159  18.232  0.00  0.00    +0.000 HD
ENDROOT
BRANCH   8  12
ATOM     12  C   UNL     1       3.108   5.303  19.436  0.00  0.00    +0.000 C 
ATOM     13  N   UNL     1       4.392   5.202  19.588  0.00  0.00    +0.000 NA
ATOM     14  N   UNL     1       4.957   3.987  19.731  0.00  0.00    +0.000 N 
ATOM     15  C   UNL     1       4.340   2.775  19.698  0.00  0.00    +0.000 C 
ATOM     16  O   UNL     1       4.984   1.732  19.813  0.00  0.00    +0.000 OA
ATOM     17  C   UNL     1       2.857   2.753  19.491  0.00  0.00    +0.000 C 
ATOM     18  C   UNL     1       2.156   4.106  19.447  0.00  0.00    +0.000 C 
ATOM     19  C   UNL     1       1.157   4.221  20.606  0.00  0.00    +0.000 C 
ATOM     20  H   UNL     1       5.967   3.972  19.834  0.00  0.00    +0.000 HD
ENDBRANCH   8  12
BRANCH   3  21
ATOM     21  C   UNL     1      -0.279  11.925  20.619  0.00  0.00    +0.000 A 
ATOM     22  C   UNL     1       0.451  12.950  21.229  0.00  0.00    +0.000 A 
ATOM     23  C   UNL     1      -0.209  14.090  21.654  0.00  0.00    +0.000 A 
ATOM     24  N   UNL     1      -1.529  14.296  21.481  0.00  0.00    +0.000 NA
ATOM     25  C   UNL     1      -2.215  13.314  20.858  0.00  0.00    +0.000 A 
ATOM     26  C   UNL     1      -1.645  12.126  20.418  0.00  0.00    +0.000 A 
ENDBRANCH   3  21
TORSDOF 2
ENDMDL
MODEL 2
REMARK VINA RESULT:      -7.9      3.103      4.088
REMARK  Name = 
REMARK  4 active torsions:
REMARK  status: ('A' for Active; 'I' for Inactive)
REMARK    1  A    between atoms: C_1  and  C_2
REMARK    2  A    between atoms: C_3  and  C_4
REMARK    3  A    between atoms: C_14  and  C_15
REMARK    4  A    between atoms: C_21  and  C_22
REMARK                            x       y       z     vdW  Elec       q    Type
REMARK                         _______ _______ _______ _____ _____    ______ ____
ROOT
ATOM      1  C   UNL     1       1.895  10.003  18.218  0.00  0.00    +0.000 C 
ATOM      2  C   UNL     1       1.889   8.809  19.111  0.00  0.00    +0.000 A 
ATOM      3  C   UNL     1       1.215   8.614  20.316  0.00  0.00    +0.000 A 
ATOM      4  N   UNL     1       1.616   7.381  20.792  0.00  0.00    +0.000 N 
ATOM      5  C   UNL     1       2.477   6.761  19.918  0.00  0.00    +0.000 A 
ATOM      6  C   UNL     1       3.127   5.521  19.993  0.00  0.00    +0.000 A 
ATOM      7  C   UNL     1       3.946   5.156  18.915  0.00  0.00    +0.000 A 
ATOM      8  C   UNL     1       4.102   5.990  17.798  0.00  0.00    +0.000 A 
ATOM      9  C   UNL     1       3.459   7.232  17.767  0.00  0.00    +0.000 A 
ATOM     10  C   UNL     1       2.639   7.624  18.842  0.00  0.00    +0.000 A 
ATOM     11  H   UNL     1       1.299   6.972  21.659  0.00  0.00    +0.000 HD
ENDROOT
BRANCH   8  12
ATOM     12  C   UNL     1       4.981   5.557  16.660  0.00  0.00    +0.000 C 
ATOM     13  N   UNL     1       4.897   6.226  15.553  0.00  0.00    +0.000 NA
ATOM     14  N   UNL     1       5.642   5.862  14.490  0.00  0.00    +0.000 N 
ATOM     15  C   UNL     1       6.493   4.805  14.396  0.00  0.00    +0.000 C 
ATOM     16  O   UNL     1       7.094   4.567  13.349  0.00  0.00    +0.000 OA
ATOM     17  C   UNL     1       6.653   3.929  15.600  0.00  0.00    +0.000 C 
ATOM     18  C   UNL     1       5.925   4.372  16.864  0.00  0.00    +0.000 C 
ATOM     19  C   UNL     1       6.938   4.672  17.978  0.00  0.00    +0.000 C 
ATOM     20  H   UNL     1       5.522   6.417  13.648  0.00  0.00    +0.000 HD
ENDBRANCH   8  12
BRANCH   3  21
ATOM     21  C   UNL     1       0.276   9.480  21.042  0.00  0.00    +0.000 A 
ATOM     22  C   UNL     1      -0.399  10.506  20.374  0.00  0.00    +0.000 A 
ATOM     23  C   UNL     1      -1.223  11.354  21.093  0.00  0.00    +0.000 A 
ATOM     24  N   UNL     1      -1.451  11.228  22.415  0.00  0.00    +0.000 NA
ATOM     25  C   UNL     1      -0.822  10.211  23.041  0.00  0.00    +0.000 A 
ATOM     26  C   UNL     1       0.041   9.325  22.409  0.00  0.00    +0.000 A 
ENDBRANCH   3  21
TORSDOF 2
ENDMDL
MODEL 3
REMARK VINA RESULT:      -7.9      2.698      3.382
REMARK  Name = 
REMARK  4 active torsions:
REMARK  status: ('A' for Active; 'I' for Inactive)
REMARK    1  A    between atoms: C_1  and  C_2
REMARK    2  A    between atoms: C_3  and  C_4
REMARK    3  A    between atoms: C_14  and  C_15
REMARK    4  A    between atoms: C_21  and  C_22
REMARK                            x       y       z     vdW  Elec       q    Type
REMARK                         _______ _______ _______ _____ _____    ______ ____
ROOT
ATOM      1  C   UNL     1       1.584  10.655  18.334  0.00  0.00    +0.000 C 
ATOM      2  C   UNL     1       1.404   9.500  19.259  0.00  0.00    +0.000 A 
ATOM      3  C   UNL     1       0.633   9.411  20.417  0.00  0.00    +0.000 A 
ATOM      4  N   UNL     1       0.882   8.164  20.957  0.00  0.00    +0.000 N 
ATOM      5  C   UNL     1       1.741   7.437  20.166  0.00  0.00    +0.000 A 
ATOM      6  C   UNL     1       2.266   6.147  20.325  0.00  0.00    +0.000 A 
ATOM      7  C   UNL     1       3.120   5.670  19.321  0.00  0.00    +0.000 A 
ATOM      8  C   UNL     1       3.431   6.446  18.195  0.00  0.00    +0.000 A 
ATOM      9  C   UNL     1       2.911   7.739  18.080  0.00  0.00    +0.000 A 
ATOM     10  C   UNL     1       2.057   8.242  19.080  0.00  0.00    +0.000 A 
ATOM     11  H   UNL     1       0.468   7.817  21.809  0.00  0.00    +0.000 HD
ENDROOT
BRANCH   8  12
ATOM     12  C   UNL     1       4.344   5.894  17.137  0.00  0.00    +0.000 C 
ATOM     13  N   UNL     1       4.751   6.710  16.216  0.00  0.00    +0.000 NA
ATOM     14  N   UNL     1       5.548   6.261  15.226  0.00  0.00    +0.000 N 
ATOM     15  C   UNL     1       5.981   4.988  15.022  0.00  0.00    +0.000 C 
ATOM     16  O   UNL     1       6.686   4.705  14.053  0.00  0.00    +0.000 OA
ATOM     17  C   UNL     1       5.549   3.939  15.999  0.00  0.00    +0.000 C 
ATOM     18  C   UNL     1       4.748   4.421  17.204  0.00  0.00    +0.000 C 
ATOM     19  C   UNL     1       5.518   4.129  18.500  0.00  0.00    +0.000 C 
ATOM     20  H   UNL     1       5.824   6.945  14.527  0.00  0.00    +0.000 HD
ENDBRANCH   8  12
BRANCH   3  21
ATOM     21  C   UNL     1      -0.271  10.384  21.046  0.00  0.00    +0.000 A 
ATOM     22  C   UNL     1      -0.458  10.380  22.431  0.00  0.00    +0.000 A 
ATOM     23  C   UNL     1      -1.369  11.259  22.992  0.00  0.00    +0.000 A 
ATOM     24  N   UNL     1      -2.072  12.160  22.280  0.00  0.00    +0.000 NA
ATOM     25  C   UNL     1      -1.854  12.178  20.948  0.00  0.00    +0.000 A 
ATOM     26  C   UNL     1      -0.980  11.321  20.293  0.00  0.00    +0.000 A 
ENDBRANCH   3  21
TORSDOF 2
ENDMDL
MODEL 4
REMARK VINA RESULT:      -7.8      3.599      8.768
REMARK  Name = 
REMARK  4 active torsions:
REMARK  status: ('A' for Active; 'I' for Inactive)
REMARK    1  A    between atoms: C_1  and  C_2
REMARK    2  A    between atoms: C_3  and  C_4
REMARK    3  A    between atoms: C_14  and  C_15
REMARK    4  A    between atoms: C_21  and  C_22
REMARK                            x       y       z     vdW  Elec       q    Type
REMARK                         _______ _______ _______ _____ _____    ______ ____
ROOT
ATOM      1  C   UNL     1       2.749   7.839  17.505  0.00  0.00    +0.000 C 
ATOM      2  C   UNL     1       2.255   7.781  18.910  0.00  0.00    +0.000 A 
ATOM      3  C   UNL     1       2.266   6.710  19.804  0.00  0.00    +0.000 A 
ATOM      4  N   UNL     1       1.610   7.144  20.940  0.00  0.00    +0.000 N 
ATOM      5  C   UNL     1       1.225   8.459  20.827  0.00  0.00    +0.000 A 
ATOM      6  C   UNL     1       0.537   9.294  21.718  0.00  0.00    +0.000 A 
ATOM      7  C   UNL     1       0.302  10.616  21.312  0.00  0.00    +0.000 A 
ATOM      8  C   UNL     1       0.746  11.090  20.068  0.00  0.00    +0.000 A 
ATOM      9  C   UNL     1       1.406  10.222  19.193  0.00  0.00    +0.000 A 
ATOM     10  C   UNL     1       1.646   8.888  19.575  0.00  0.00    +0.000 A 
ATOM     11  H   UNL     1       1.454   6.577  21.761  0.00  0.00    +0.000 HD
ENDROOT
BRANCH   8  12
ATOM     12  C   UNL     1       0.481  12.515  19.675  0.00  0.00    +0.000 C 
ATOM     13  N   UNL     1      -0.757  12.886  19.575  0.00  0.00    +0.000 NA
ATOM     14  N   UNL     1      -1.052  14.145  19.196  0.00  0.00    +0.000 N 
ATOM     15  C   UNL     1      -0.183  15.131  18.846  0.00  0.00    +0.000 C 
ATOM     16  O   UNL     1      -0.590  16.237  18.488  0.00  0.00    +0.000 OA
ATOM     17  C   UNL     1       1.280  14.818  18.885  0.00  0.00    +0.000 C 
ATOM     18  C   UNL     1       1.668  13.446  19.425  0.00  0.00    +0.000 C 
ATOM     19  C   UNL     1       2.513  13.599  20.697  0.00  0.00    +0.000 C 
ATOM     20  H   UNL     1      -2.039  14.372  19.123  0.00  0.00    +0.000 HD
ENDBRANCH   8  12
BRANCH   3  21
ATOM     21  C   UNL     1       2.807   5.351  19.667  0.00  0.00    +0.000 A 
ATOM     22  C   UNL     1       1.968   4.241  19.804  0.00  0.00    +0.000 A 
ATOM     23  C   UNL     1       2.513   2.970  19.744  0.00  0.00    +0.000 A 
ATOM     24  N   UNL     1       3.819   2.728  19.518  0.00  0.00    +0.000 NA
ATOM     25  C   UNL     1       4.611   3.809  19.352  0.00  0.00    +0.000 A 
ATOM     26  C   UNL     1       4.161   5.121  19.420  0.00  0.00    +0.000 A 
ENDBRANCH   3  21
TORSDOF 2
ENDMDL
MODEL 5
REMARK VINA RESULT:      -7.8      1.169      1.594
REMARK  Name = 
REMARK  4 active torsions:
REMARK  status: ('A' for Active; 'I' for Inactive)
REMARK    1  A    between atoms: C_1  and  C_2
REMARK    2  A    between atoms: C_3  and  C_4
REMARK    3  A    between atoms: C_14  and  C_15
REMARK    4  A    between atoms: C_21  and  C_22
REMARK                            x       y       z     vdW  Elec       q    Type
REMARK                         _______ _______ _______ _____ _____    ______ ____
ROOT
ATOM      1  C   UNL     1      -0.095   9.226  22.533  0.00  0.00    +0.000 C 
ATOM      2  C   UNL     1       0.248   9.711  21.166  0.00  0.00    +0.000 A 
ATOM      3  C   UNL     1      -0.121  10.898  20.534  0.00  0.00    +0.000 A 
ATOM      4  N   UNL     1       0.374  10.825  19.246  0.00  0.00    +0.000 N 
ATOM      5  C   UNL     1       1.083   9.664  19.046  0.00  0.00    +0.000 A 
ATOM      6  C   UNL     1       1.745   9.176  17.911  0.00  0.00    +0.000 A 
ATOM      7  C   UNL     1       2.403   7.944  18.027  0.00  0.00    +0.000 A 
ATOM      8  C   UNL     1       2.412   7.230  19.235  0.00  0.00    +0.000 A 
ATOM      9  C   UNL     1       1.720   7.733  20.341  0.00  0.00    +0.000 A 
ATOM     10  C   UNL     1       1.045   8.964  20.245  0.00  0.00    +0.000 A 
ATOM     11  H   UNL     1       0.253  11.542  18.546  0.00  0.00    +0.000 HD
ENDROOT
BRANCH   8  12
ATOM     12  C   UNL     1       3.136   5.917  19.320  0.00  0.00    +0.000 C 
ATOM     13  N   UNL     1       2.539   4.945  19.936  0.00  0.00    +0.000 NA
ATOM     14  N   UNL     1       3.157   3.754  20.069  0.00  0.00    +0.000 N 
ATOM     15  C   UNL     1       4.408   3.418  19.655  0.00  0.00    +0.000 C 
ATOM     16  O   UNL     1       4.865   2.294  19.867  0.00  0.00    +0.000 OA
ATOM     17  C   UNL     1       5.219   4.467  18.959  0.00  0.00    +0.000 C 
ATOM     18  C   UNL     1       4.518   5.791  18.677  0.00  0.00    +0.000 C 
ATOM     19  C   UNL     1       4.435   6.033  17.164  0.00  0.00    +0.000 C 
ATOM     20  H   UNL     1       2.644   3.037  20.572  0.00  0.00    +0.000 HD
ENDBRANCH   8  12
BRANCH   3  21
ATOM     21  C   UNL     1      -0.897  12.045  21.024  0.00  0.00    +0.000 A 
ATOM     22  C   UNL     1      -0.416  12.824  22.080  0.00  0.00    +0.000 A 
ATOM     23  C   UNL     1      -1.198  13.854  22.572  0.00  0.00    +0.000 A 
ATOM     24  N   UNL     1      -2.401  14.186  22.064  0.00  0.00    +0.000 NA
ATOM     25  C   UNL     1      -2.837  13.449  21.020  0.00  0.00    +0.000 A 
ATOM     26  C   UNL     1      -2.135  12.382  20.475  0.00  0.00    +0.000 A 
ENDBRANCH   3  21
TORSDOF 2
ENDMDL
MODEL 6
REMARK VINA RESULT:      -7.8      1.536      1.844
REMARK  Name = 
REMARK  4 active torsions:
REMARK  status: ('A' for Active; 'I' for Inactive)
REMARK    1  A    between atoms: C_1  and  C_2
REMARK    2  A    between atoms: C_3  and  C_4
REMARK    3  A    between atoms: C_14  and  C_15
REMARK    4  A    between atoms: C_21  and  C_22
REMARK                            x       y       z     vdW  Elec       q    Type
REMARK                         _______ _______ _______ _____ _____    ______ ____
ROOT
ATOM      1  C   UNL     1       0.694   9.153  22.680  0.00  0.00    +0.000 C 
ATOM      2  C   UNL     1       0.866   9.715  21.310  0.00  0.00    +0.000 A 
ATOM      3  C   UNL     1       0.586  10.999  20.843  0.00  0.00    +0.000 A 
ATOM      4  N   UNL     1       0.831  10.983  19.484  0.00  0.00    +0.000 N 
ATOM      5  C   UNL     1       1.302   9.758  19.074  0.00  0.00    +0.000 A 
ATOM      6  C   UNL     1       1.670   9.294  17.803  0.00  0.00    +0.000 A 
ATOM      7  C   UNL     1       2.136   7.975  17.707  0.00  0.00    +0.000 A 
ATOM      8  C   UNL     1       2.241   7.152  18.839  0.00  0.00    +0.000 A 
ATOM      9  C   UNL     1       1.841   7.638  20.087  0.00  0.00    +0.000 A 
ATOM     10  C   UNL     1       1.362   8.956  20.206  0.00  0.00    +0.000 A 
ATOM     11  H   UNL     1       0.706  11.774  18.871  0.00  0.00    +0.000 HD
ENDROOT
BRANCH   8  12
ATOM     12  C   UNL     1       2.753   5.747  18.694  0.00  0.00    +0.000 C 
ATOM     13  N   UNL     1       1.910   4.843  18.304  0.00  0.00    +0.000 NA
ATOM     14  N   UNL     1       2.308   3.560  18.186  0.00  0.00    +0.000 N 
ATOM     15  C   UNL     1       3.532   3.042  18.474  0.00  0.00    +0.000 C 
ATOM     16  O   UNL     1       3.755   1.837  18.349  0.00  0.00    +0.000 OA
ATOM     17  C   UNL     1       4.588   3.980  18.970  0.00  0.00    +0.000 C 
ATOM     18  C   UNL     1       4.222   5.460  19.003  0.00  0.00    +0.000 C 
ATOM     19  C   UNL     1       5.138   6.250  18.059  0.00  0.00    +0.000 C 
ATOM     20  H   UNL     1       1.599   2.897  17.889  0.00  0.00    +0.000 HD
ENDBRANCH   8  12
BRANCH   3  21
ATOM     21  C   UNL     1       0.098  12.192  21.549  0.00  0.00    +0.000 A 
ATOM     22  C   UNL     1       0.699  13.435  21.333  0.00  0.00    +0.000 A 
ATOM     23  C   UNL     1       0.269  14.530  22.064  0.00  0.00    +0.000 A 
ATOM     24  N   UNL     1      -0.735  14.481  22.959  0.00  0.00    +0.000 NA
ATOM     25  C   UNL     1      -1.331  13.282  23.132  0.00  0.00    +0.000 A 
ATOM     26  C   UNL     1      -0.954  12.124  22.464  0.00  0.00    +0.000 A 
ENDBRANCH   3  21
TORSDOF 2
ENDMDL
MODEL 7
REMARK VINA RESULT:      -7.6      3.603      8.734
REMARK  Name = 
REMARK  4 active torsions:
REMARK  status: ('A' for Active; 'I' for Inactive)
REMARK    1  A    between atoms: C_1  and  C_2
REMARK    2  A    between atoms: C_3  and  C_4
REMARK    3  A    between atoms: C_14  and  C_15
REMARK    4  A    between atoms: C_21  and  C_22
REMARK                            x       y       z     vdW  Elec       q    Type
REMARK                         _______ _______ _______ _____ _____    ______ ____
ROOT
ATOM      1  C   UNL     1       2.210   8.852  17.746  0.00  0.00    +0.000 C 
ATOM      2  C   UNL     1       1.917   8.311  19.104  0.00  0.00    +0.000 A 
ATOM      3  C   UNL     1       2.198   7.050  19.629  0.00  0.00    +0.000 A 
ATOM      4  N   UNL     1       1.639   7.019  20.892  0.00  0.00    +0.000 N 
ATOM      5  C   UNL     1       1.056   8.223  21.212  0.00  0.00    +0.000 A 
ATOM      6  C   UNL     1       0.377   8.635  22.367  0.00  0.00    +0.000 A 
ATOM      7  C   UNL     1      -0.097   9.955  22.399  0.00  0.00    +0.000 A 
ATOM      8  C   UNL     1       0.109  10.833  21.326  0.00  0.00    +0.000 A 
ATOM      9  C   UNL     1       0.768  10.381  20.178  0.00  0.00    +0.000 A 
ATOM     10  C   UNL     1       1.245   9.058  20.119  0.00  0.00    +0.000 A 
ATOM     11  H   UNL     1       1.673   6.224  21.513  0.00  0.00    +0.000 HD
ENDROOT
BRANCH   8  12
ATOM     12  C   UNL     1      -0.408  12.242  21.404  0.00  0.00    +0.000 C 
ATOM     13  N   UNL     1       0.422  13.161  21.788  0.00  0.00    +0.000 NA
ATOM     14  N   UNL     1       0.004  14.437  21.905  0.00  0.00    +0.000 N 
ATOM     15  C   UNL     1      -1.251  14.920  21.702  0.00  0.00    +0.000 C 
ATOM     16  O   UNL     1      -1.507  16.112  21.874  0.00  0.00    +0.000 OA
ATOM     17  C   UNL     1      -2.314  13.950  21.289  0.00  0.00    +0.000 C 
ATOM     18  C   UNL     1      -1.863  12.518  21.024  0.00  0.00    +0.000 C 
ATOM     19  C   UNL     1      -2.119  12.146  19.558  0.00  0.00    +0.000 C 
ATOM     20  H   UNL     1       0.696  15.108  22.222  0.00  0.00    +0.000 HD
ENDBRANCH   8  12
BRANCH   3  21
ATOM     21  C   UNL     1       2.906   5.903  19.044  0.00  0.00    +0.000 A 
ATOM     22  C   UNL     1       2.259   5.064  18.133  0.00  0.00    +0.000 A 
ATOM     23  C   UNL     1       2.923   3.948  17.652  0.00  0.00    +0.000 A 
ATOM     24  N   UNL     1       4.190   3.634  17.982  0.00  0.00    +0.000 NA
ATOM     25  C   UNL     1       4.816   4.473  18.835  0.00  0.00    +0.000 A 
ATOM     26  C   UNL     1       4.224   5.601  19.388  0.00  0.00    +0.000 A 
ENDBRANCH   3  21
TORSDOF 2
ENDMDL
MODEL 8
REMARK VINA RESULT:      -7.6      1.354      1.902
REMARK  Name = 
REMARK  4 active torsions:
REMARK  status: ('A' for Active; 'I' for Inactive)
REMARK    1  A    between atoms: C_1  and  C_2
REMARK    2  A    between atoms: C_3  and  C_4
REMARK    3  A    between atoms: C_14  and  C_15
REMARK    4  A    between atoms: C_21  and  C_22
REMARK                            x       y       z     vdW  Elec       q    Type
REMARK                         _______ _______ _______ _____ _____    ______ ____
ROOT
ATOM      1  C   UNL     1       0.434   9.202  22.786  0.00  0.00    +0.000 C 
ATOM      2  C   UNL     1       0.677   9.733  21.415  0.00  0.00    +0.000 A 
ATOM      3  C   UNL     1       0.399  10.998  20.898  0.00  0.00    +0.000 A 
ATOM      4  N   UNL     1       0.727  10.953  19.557  0.00  0.00    +0.000 N 
ATOM      5  C   UNL     1       1.247   9.729  19.209  0.00  0.00    +0.000 A 
ATOM      6  C   UNL     1       1.701   9.241  17.975  0.00  0.00    +0.000 A 
ATOM      7  C   UNL     1       2.198   7.931  17.943  0.00  0.00    +0.000 A 
ATOM      8  C   UNL     1       2.252   7.139  19.100  0.00  0.00    +0.000 A 
ATOM      9  C   UNL     1       1.766   7.648  20.309  0.00  0.00    +0.000 A 
ATOM     10  C   UNL     1       1.255   8.958  20.363  0.00  0.00    +0.000 A 
ATOM     11  H   UNL     1       0.623  11.726  18.917  0.00  0.00    +0.000 HD
ENDROOT
BRANCH   8  12
ATOM     12  C   UNL     1       2.799   5.743  19.024  0.00  0.00    +0.000 C 
ATOM     13  N   UNL     1       1.948   4.774  18.889  0.00  0.00    +0.000 NA
ATOM     14  N   UNL     1       2.382   3.499  18.846  0.00  0.00    +0.000 N 
ATOM     15  C   UNL     1       3.662   3.054  18.969  0.00  0.00    +0.000 C 
ATOM     16  O   UNL     1       3.920   1.851  18.941  0.00  0.00    +0.000 OA
ATOM     17  C   UNL     1       4.740   4.075  19.167  0.00  0.00    +0.000 C 
ATOM     18  C   UNL     1       4.312   5.536  19.100  0.00  0.00    +0.000 C 
ATOM     19  C   UNL     1       5.013   6.238  17.928  0.00  0.00    +0.000 C 
ATOM     20  H   UNL     1       1.667   2.785  18.752  0.00  0.00    +0.000 HD
ENDBRANCH   8  12
BRANCH   3  21
ATOM     21  C   UNL     1      -0.155  12.198  21.542  0.00  0.00    +0.000 A 
ATOM     22  C   UNL     1      -1.340  12.119  22.279  0.00  0.00    +0.000 A 
ATOM     23  C   UNL     1      -1.881  13.276  22.814  0.00  0.00    +0.000 A 
ATOM     24  N   UNL     1      -1.307  14.489  22.701  0.00  0.00    +0.000 NA
ATOM     25  C   UNL     1      -0.143  14.544  22.018  0.00  0.00    +0.000 A 
ATOM     26  C   UNL     1       0.462  13.444  21.426  0.00  0.00    +0.000 A 
ENDBRANCH   3  21
TORSDOF 2
ENDMDL
MODEL 9
REMARK VINA RESULT:      -7.6      1.825      2.348
REMARK  Name = 
REMARK  4 active torsions:
REMARK  status: ('A' for Active; 'I' for Inactive)
REMARK    1  A    between atoms: C_1  and  C_2
REMARK    2  A    between atoms: C_3  and  C_4
REMARK    3  A    between atoms: C_14  and  C_15
REMARK    4  A    between atoms: C_21  and  C_22
REMARK                            x       y       z     vdW  Elec       q    Type
REMARK                         _______ _______ _______ _____ _____    ______ ____
ROOT
ATOM      1  C   UNL     1       0.281   9.324  23.038  0.00  0.00    +0.000 C 
ATOM      2  C   UNL     1       0.176  10.066  21.750  0.00  0.00    +0.000 A 
ATOM      3  C   UNL     1      -0.444  11.287  21.484  0.00  0.00    +0.000 A 
ATOM      4  N   UNL     1      -0.340  11.489  20.121  0.00  0.00    +0.000 N 
ATOM      5  C   UNL     1       0.362  10.474  19.515  0.00  0.00    +0.000 A 
ATOM      6  C   UNL     1       0.698  10.266  18.170  0.00  0.00    +0.000 A 
ATOM      7  C   UNL     1       1.449   9.122  17.863  0.00  0.00    +0.000 A 
ATOM      8  C   UNL     1       1.859   8.225  18.860  0.00  0.00    +0.000 A 
ATOM      9  C   UNL     1       1.484   8.449  20.189  0.00  0.00    +0.000 A 
ATOM     10  C   UNL     1       0.723   9.586  20.520  0.00  0.00    +0.000 A 
ATOM     11  H   UNL     1      -0.710  12.291  19.633  0.00  0.00    +0.000 HD
ENDROOT
BRANCH   8  12
ATOM     12  C   UNL     1       2.669   7.016  18.490  0.00  0.00    +0.000 C 
ATOM     13  N   UNL     1       3.794   7.217  17.877  0.00  0.00    +0.000 NA
ATOM     14  N   UNL     1       4.548   6.167  17.495  0.00  0.00    +0.000 N 
ATOM     15  C   UNL     1       4.259   4.844  17.634  0.00  0.00    +0.000 C 
ATOM     16  O   UNL     1       5.027   3.980  17.211  0.00  0.00    +0.000 OA
ATOM     17  C   UNL     1       2.967   4.478  18.296  0.00  0.00    +0.000 C 
ATOM     18  C   UNL     1       2.139   5.630  18.855  0.00  0.00    +0.000 C 
ATOM     19  C   UNL     1       1.999   5.488  20.377  0.00  0.00    +0.000 C 
ATOM     20  H   UNL     1       5.411   6.387  17.009  0.00  0.00    +0.000 HD
ENDBRANCH   8  12
BRANCH   3  21
ATOM     21  C   UNL     1      -1.125  12.232  22.379  0.00  0.00    +0.000 A 
ATOM     22  C   UNL     1      -2.362  11.906  22.941  0.00  0.00    +0.000 A 
ATOM     23  C   UNL     1      -3.018  12.842  23.722  0.00  0.00    +0.000 A 
ATOM     24  N   UNL     1      -2.513  14.056  24.013  0.00  0.00    +0.000 NA
ATOM     25  C   UNL     1      -1.301  14.345  23.493  0.00  0.00    +0.000 A 
ATOM     26  C   UNL     1      -0.579  13.481  22.680  0.00  0.00    +0.000 A 
ENDBRANCH   3  21
TORSDOF 2
ENDMDL
