MODEL 1
REMARK VINA RESULT:      -5.6      0.000      0.000
REMARK  Name = 
REMARK  4 active torsions:
REMARK  status: ('A' for Active; 'I' for Inactive)
REMARK    1  A    between atoms: C_2  and  O_3
REMARK    2  A    between atoms: C_2  and  C_4
REMARK    3  A    between atoms: C_7  and  C_8
REMARK    4  A    between atoms: C_8  and  O_10
REMARK                            x       y       z     vdW  Elec       q    Type
REMARK                         _______ _______ _______ _____ _____    ______ ____
ROOT
ATOM      1  C   UNL     1       5.826   4.592  17.439  0.00  0.00    +0.000 A 
ATOM      2  C   UNL     1       4.835   4.095  16.586  0.00  0.00    +0.000 A 
ATOM      3  C   UNL     1       3.535   3.903  17.066  0.00  0.00    +0.000 A 
ATOM      4  C   UNL     1       3.207   4.226  18.391  0.00  0.00    +0.000 A 
ATOM      5  C   UNL     1       4.199   4.721  19.246  0.00  0.00    +0.000 A 
ATOM      6  C   UNL     1       5.499   4.912  18.765  0.00  0.00    +0.000 A 
ENDROOT
BRANCH   1   8
ATOM      7  O   UNL     1       7.490   5.668  16.133  0.00  0.00    +0.000 OA
ATOM      8  C   UNL     1       7.220   4.841  16.987  0.00  0.00    +0.000 C 
BRANCH   8   9
ATOM      9  O   UNL     1       8.156   4.107  17.622  0.00  0.00    +0.000 OA
ATOM     10  H   UNL     1       9.081   4.318  17.405  0.00  0.00    +0.000 HD
ENDBRANCH   8   9
ENDBRANCH   1   8
BRANCH   4  11
ATOM     11  C   UNL     1       1.811   3.986  18.838  0.00  0.00    +0.000 C 
ATOM     12  O   UNL     1       1.376   4.430  19.886  0.00  0.00    +0.000 OA
BRANCH  11  13
ATOM     13  O   UNL     1       1.088   3.206  18.008  0.00  0.00    +0.000 OA
ATOM     14  H   UNL     1       1.072   2.256  18.228  0.00  0.00    +0.000 HD
ENDBRANCH  11  13
ENDBRANCH   4  11
TORSDOF 4
ENDMDL
MODEL 2
REMARK VINA RESULT:      -5.5      0.074      4.987
REMARK  Name = 
REMARK  4 active torsions:
REMARK  status: ('A' for Active; 'I' for Inactive)
REMARK    1  A    between atoms: C_2  and  O_3
REMARK    2  A    between atoms: C_2  and  C_4
REMARK    3  A    between atoms: C_7  and  C_8
REMARK    4  A    between atoms: C_8  and  O_10
REMARK                            x       y       z     vdW  Elec       q    Type
REMARK                         _______ _______ _______ _____ _____    ______ ____
ROOT
ATOM      1  C   UNL     1       3.194   4.157  18.331  0.00  0.00    +0.000 A 
ATOM      2  C   UNL     1       3.593   3.826  17.032  0.00  0.00    +0.000 A 
ATOM      3  C   UNL     1       4.912   4.060  16.629  0.00  0.00    +0.000 A 
ATOM      4  C   UNL     1       5.848   4.603  17.523  0.00  0.00    +0.000 A 
ATOM      5  C   UNL     1       5.448   4.937  18.822  0.00  0.00    +0.000 A 
ATOM      6  C   UNL     1       4.128   4.703  19.224  0.00  0.00    +0.000 A 
ENDROOT
BRANCH   1   8
ATOM      7  O   UNL     1       1.402   4.401  19.869  0.00  0.00    +0.000 OA
ATOM      8  C   UNL     1       1.815   3.914  18.830  0.00  0.00    +0.000 C 
BRANCH   8   9
ATOM      9  O   UNL     1       1.054   3.145  18.026  0.00  0.00    +0.000 OA
ATOM     10  H   UNL     1       1.536   2.542  17.433  0.00  0.00    +0.000 HD
ENDBRANCH   8   9
ENDBRANCH   1   8
BRANCH   4  11
ATOM     11  C   UNL     1       7.228   4.836  17.025  0.00  0.00    +0.000 C 
ATOM     12  O   UNL     1       7.473   5.617  16.122  0.00  0.00    +0.000 OA
BRANCH  11  13
ATOM     13  O   UNL     1       8.171   4.082  17.627  0.00  0.00    +0.000 OA
ATOM     14  H   UNL     1       8.416   3.261  17.161  0.00  0.00    +0.000 HD
ENDBRANCH  11  13
ENDBRANCH   4  11
TORSDOF 4
ENDMDL
MODEL 3
REMARK VINA RESULT:      -5.5      0.826      5.147
REMARK  Name = 
REMARK  4 active torsions:
REMARK  status: ('A' for Active; 'I' for Inactive)
REMARK    1  A    between atoms: C_2  and  O_3
REMARK    2  A    between atoms: C_2  and  C_4
REMARK    3  A    between atoms: C_7  and  C_8
REMARK    4  A    between atoms: C_8  and  O_10
REMARK                            x       y       z     vdW  Elec       q    Type
REMARK                         _______ _______ _______ _____ _____    ______ ____
ROOT
ATOM      1  C   UNL     1       3.102   4.557  17.753  0.00  0.00    +0.000 A 
ATOM      2  C   UNL     1       3.819   5.671  18.202  0.00  0.00    +0.000 A 
ATOM      3  C   UNL     1       5.160   5.828  17.837  0.00  0.00    +0.000 A 
ATOM      4  C   UNL     1       5.790   4.891  17.004  0.00  0.00    +0.000 A 
ATOM      5  C   UNL     1       5.074   3.775  16.556  0.00  0.00    +0.000 A 
ATOM      6  C   UNL     1       3.732   3.618  16.923  0.00  0.00    +0.000 A 
ENDROOT
BRANCH   1   8
ATOM      7  O   UNL     1       0.823   4.153  17.227  0.00  0.00    +0.000 OA
ATOM      8  C   UNL     1       1.669   4.342  18.084  0.00  0.00    +0.000 C 
BRANCH   8   9
ATOM      9  O   UNL     1       1.392   4.336  19.404  0.00  0.00    +0.000 OA
ATOM     10  H   UNL     1       1.409   5.203  19.846  0.00  0.00    +0.000 HD
ENDBRANCH   8   9
ENDBRANCH   1   8
BRANCH   4  11
ATOM     11  C   UNL     1       7.219   5.114  16.666  0.00  0.00    +0.000 C 
ATOM     12  O   UNL     1       7.588   6.049  15.977  0.00  0.00    +0.000 OA
BRANCH  11  13
ATOM     13  O   UNL     1       8.058   4.174  17.148  0.00  0.00    +0.000 OA
ATOM     14  H   UNL     1       7.771   3.250  17.029  0.00  0.00    +0.000 HD
ENDBRANCH  11  13
ENDBRANCH   4  11
TORSDOF 4
ENDMDL
MODEL 4
REMARK VINA RESULT:      -5.5      0.143      5.181
REMARK  Name = 
REMARK  4 active torsions:
REMARK  status: ('A' for Active; 'I' for Inactive)
REMARK    1  A    between atoms: C_2  and  O_3
REMARK    2  A    between atoms: C_2  and  C_4
REMARK    3  A    between atoms: C_7  and  C_8
REMARK    4  A    between atoms: C_8  and  O_10
REMARK                            x       y       z     vdW  Elec       q    Type
REMARK                         _______ _______ _______ _____ _____    ______ ____
ROOT
ATOM      1  C   UNL     1       3.258   4.039  18.427  0.00  0.00    +0.000 A 
ATOM      2  C   UNL     1       4.248   4.542  19.278  0.00  0.00    +0.000 A 
ATOM      3  C   UNL     1       5.532   4.790  18.782  0.00  0.00    +0.000 A 
ATOM      4  C   UNL     1       5.833   4.560  17.431  0.00  0.00    +0.000 A 
ATOM      5  C   UNL     1       4.844   4.054  16.579  0.00  0.00    +0.000 A 
ATOM      6  C   UNL     1       3.560   3.806  17.078  0.00  0.00    +0.000 A 
ENDROOT
BRANCH   1   8
ATOM      7  O   UNL     1       1.449   4.175  19.958  0.00  0.00    +0.000 OA
ATOM      8  C   UNL     1       1.869   3.776  18.885  0.00  0.00    +0.000 C 
BRANCH   8   9
ATOM      9  O   UNL     1       1.106   3.096  18.005  0.00  0.00    +0.000 OA
ATOM     10  H   UNL     1       0.546   2.394  18.380  0.00  0.00    +0.000 HD
ENDBRANCH   8   9
ENDBRANCH   1   8
BRANCH   4  11
ATOM     11  C   UNL     1       7.220   4.834  16.973  0.00  0.00    +0.000 C 
ATOM     12  O   UNL     1       7.472   5.653  16.107  0.00  0.00    +0.000 OA
BRANCH  11  13
ATOM     13  O   UNL     1       8.162   4.071  17.566  0.00  0.00    +0.000 OA
ATOM     14  H   UNL     1       7.928   3.716  18.444  0.00  0.00    +0.000 HD
ENDBRANCH  11  13
ENDBRANCH   4  11
TORSDOF 4
ENDMDL
MODEL 5
REMARK VINA RESULT:      -5.5      1.498      2.161
REMARK  Name = 
REMARK  4 active torsions:
REMARK  status: ('A' for Active; 'I' for Inactive)
REMARK    1  A    between atoms: C_2  and  O_3
REMARK    2  A    between atoms: C_2  and  C_4
REMARK    3  A    between atoms: C_7  and  C_8
REMARK    4  A    between atoms: C_8  and  O_10
REMARK                            x       y       z     vdW  Elec       q    Type
REMARK                         _______ _______ _______ _____ _____    ______ ____
ROOT
ATOM      1  C   UNL     1       5.944   5.183  18.655  0.00  0.00    +0.000 A 
ATOM      2  C   UNL     1       4.815   5.281  19.474  0.00  0.00    +0.000 A 
ATOM      3  C   UNL     1       3.615   4.678  19.082  0.00  0.00    +0.000 A 
ATOM      4  C   UNL     1       3.539   3.953  17.883  0.00  0.00    +0.000 A 
ATOM      5  C   UNL     1       4.668   3.856  17.061  0.00  0.00    +0.000 A 
ATOM      6  C   UNL     1       5.867   4.462  17.455  0.00  0.00    +0.000 A 
ENDROOT
BRANCH   1   8
ATOM      7  O   UNL     1       7.851   6.548  18.287  0.00  0.00    +0.000 OA
ATOM      8  C   UNL     1       7.254   5.781  19.024  0.00  0.00    +0.000 C 
BRANCH   8   9
ATOM      9  O   UNL     1       7.705   5.435  20.247  0.00  0.00    +0.000 OA
ATOM     10  H   UNL     1       8.098   4.548  20.320  0.00  0.00    +0.000 HD
ENDBRANCH   8   9
ENDBRANCH   1   8
BRANCH   4  11
ATOM     11  C   UNL     1       2.231   3.347  17.522  0.00  0.00    +0.000 C 
ATOM     12  O   UNL     1       1.230   4.018  17.338  0.00  0.00    +0.000 OA
BRANCH  11  13
ATOM     13  O   UNL     1       2.241   2.000  17.457  0.00  0.00    +0.000 OA
ATOM     14  H   UNL     1       2.899   1.554  18.022  0.00  0.00    +0.000 HD
ENDBRANCH  11  13
ENDBRANCH   4  11
TORSDOF 4
ENDMDL
MODEL 6
REMARK VINA RESULT:      -5.5      0.733      1.552
REMARK  Name = 
REMARK  4 active torsions:
REMARK  status: ('A' for Active; 'I' for Inactive)
REMARK    1  A    between atoms: C_2  and  O_3
REMARK    2  A    between atoms: C_2  and  C_4
REMARK    3  A    between atoms: C_7  and  C_8
REMARK    4  A    between atoms: C_8  and  O_10
REMARK                            x       y       z     vdW  Elec       q    Type
REMARK                         _______ _______ _______ _____ _____    ______ ____
ROOT
ATOM      1  C   UNL     1       5.871   4.433  17.517  0.00  0.00    +0.000 A 
ATOM      2  C   UNL     1       5.520   4.280  18.863  0.00  0.00    +0.000 A 
ATOM      3  C   UNL     1       4.233   3.851  19.202  0.00  0.00    +0.000 A 
ATOM      4  C   UNL     1       3.294   3.548  18.204  0.00  0.00    +0.000 A 
ATOM      5  C   UNL     1       3.644   3.703  16.858  0.00  0.00    +0.000 A 
ATOM      6  C   UNL     1       4.932   4.134  16.520  0.00  0.00    +0.000 A 
ENDROOT
BRANCH   1   8
ATOM      7  O   UNL     1       7.409   5.842  16.385  0.00  0.00    +0.000 OA
ATOM      8  C   UNL     1       7.228   4.863  17.088  0.00  0.00    +0.000 C 
BRANCH   8   9
ATOM      9  O   UNL     1       8.236   4.107  17.570  0.00  0.00    +0.000 OA
ATOM     10  H   UNL     1       8.293   3.201  17.219  0.00  0.00    +0.000 HD
ENDBRANCH   8   9
ENDBRANCH   1   8
BRANCH   4  11
ATOM     11  C   UNL     1       1.943   3.108  18.635  0.00  0.00    +0.000 C 
ATOM     12  O   UNL     1       1.121   3.881  19.097  0.00  0.00    +0.000 OA
BRANCH  11  13
ATOM     13  O   UNL     1       1.723   1.783  18.511  0.00  0.00    +0.000 OA
ATOM     14  H   UNL     1       1.828   1.258  19.327  0.00  0.00    +0.000 HD
ENDBRANCH  11  13
ENDBRANCH   4  11
TORSDOF 4
ENDMDL
MODEL 7
REMARK VINA RESULT:      -5.5      0.231      1.314
REMARK  Name = 
REMARK  4 active torsions:
REMARK  status: ('A' for Active; 'I' for Inactive)
REMARK    1  A    between atoms: C_2  and  O_3
REMARK    2  A    between atoms: C_2  and  C_4
REMARK    3  A    between atoms: C_7  and  C_8
REMARK    4  A    between atoms: C_8  and  O_10
REMARK                            x       y       z     vdW  Elec       q    Type
REMARK                         _______ _______ _______ _____ _____    ______ ____
ROOT
ATOM      1  C   UNL     1       5.862   4.670  17.445  0.00  0.00    +0.000 A 
ATOM      2  C   UNL     1       4.971   3.983  16.614  0.00  0.00    +0.000 A 
ATOM      3  C   UNL     1       3.651   3.775  17.030  0.00  0.00    +0.000 A 
ATOM      4  C   UNL     1       3.204   4.269  18.264  0.00  0.00    +0.000 A 
ATOM      5  C   UNL     1       4.096   4.954  19.098  0.00  0.00    +0.000 A 
ATOM      6  C   UNL     1       5.416   5.161  18.681  0.00  0.00    +0.000 A 
ENDROOT
BRANCH   1   8
ATOM      7  O   UNL     1       8.187   4.201  17.355  0.00  0.00    +0.000 OA
ATOM      8  C   UNL     1       7.269   4.946  17.055  0.00  0.00    +0.000 C 
BRANCH   8   9
ATOM      9  O   UNL     1       7.439   6.060  16.314  0.00  0.00    +0.000 OA
ATOM     10  H   UNL     1       8.307   6.493  16.391  0.00  0.00    +0.000 HD
ENDBRANCH   8   9
ENDBRANCH   1   8
BRANCH   4  11
ATOM     11  C   UNL     1       1.794   4.002  18.648  0.00  0.00    +0.000 C 
ATOM     12  O   UNL     1       1.019   3.411  17.916  0.00  0.00    +0.000 OA
BRANCH  11  13
ATOM     13  O   UNL     1       1.440   4.503  19.849  0.00  0.00    +0.000 OA
ATOM     14  H   UNL     1       1.802   5.383  20.064  0.00  0.00    +0.000 HD
ENDBRANCH  11  13
ENDBRANCH   4  11
TORSDOF 4
ENDMDL
MODEL 8
REMARK VINA RESULT:      -5.5      1.991      2.595
REMARK  Name = 
REMARK  4 active torsions:
REMARK  status: ('A' for Active; 'I' for Inactive)
REMARK    1  A    between atoms: C_2  and  O_3
REMARK    2  A    between atoms: C_2  and  C_4
REMARK    3  A    between atoms: C_7  and  C_8
REMARK    4  A    between atoms: C_8  and  O_10
REMARK                            x       y       z     vdW  Elec       q    Type
REMARK                         _______ _______ _______ _____ _____    ______ ____
ROOT
ATOM      1  C   UNL     1       5.759   4.854  15.541  0.00  0.00    +0.000 A 
ATOM      2  C   UNL     1       5.324   6.117  15.955  0.00  0.00    +0.000 A 
ATOM      3  C   UNL     1       4.447   6.231  17.038  0.00  0.00    +0.000 A 
ATOM      4  C   UNL     1       4.015   5.091  17.732  0.00  0.00    +0.000 A 
ATOM      5  C   UNL     1       4.448   3.825  17.317  0.00  0.00    +0.000 A 
ATOM      6  C   UNL     1       5.325   3.713  16.232  0.00  0.00    +0.000 A 
ENDROOT
BRANCH   1   8
ATOM      7  O   UNL     1       7.653   5.412  14.224  0.00  0.00    +0.000 OA
ATOM      8  C   UNL     1       6.708   4.664  14.413  0.00  0.00    +0.000 C 
BRANCH   8   9
ATOM      9  O   UNL     1       6.459   3.584  13.644  0.00  0.00    +0.000 OA
ATOM     10  H   UNL     1       5.836   3.720  12.909  0.00  0.00    +0.000 HD
ENDBRANCH   8   9
ENDBRANCH   1   8
BRANCH   4  11
ATOM     11  C   UNL     1       3.075   5.283  18.865  0.00  0.00    +0.000 C 
ATOM     12  O   UNL     1       1.884   5.042  18.774  0.00  0.00    +0.000 OA
BRANCH  11  13
ATOM     13  O   UNL     1       3.644   5.783  19.982  0.00  0.00    +0.000 OA
ATOM     14  H   UNL     1       3.942   5.124  20.636  0.00  0.00    +0.000 HD
ENDBRANCH  11  13
ENDBRANCH   4  11
TORSDOF 4
ENDMDL
MODEL 9
REMARK VINA RESULT:      -5.4      0.969      5.053
REMARK  Name = 
REMARK  4 active torsions:
REMARK  status: ('A' for Active; 'I' for Inactive)
REMARK    1  A    between atoms: C_2  and  O_3
REMARK    2  A    between atoms: C_2  and  C_4
REMARK    3  A    between atoms: C_7  and  C_8
REMARK    4  A    between atoms: C_8  and  O_10
REMARK                            x       y       z     vdW  Elec       q    Type
REMARK                         _______ _______ _______ _____ _____    ______ ____
ROOT
ATOM      1  C   UNL     1       3.198   4.276  18.245  0.00  0.00    +0.000 A 
ATOM      2  C   UNL     1       3.847   4.903  19.314  0.00  0.00    +0.000 A 
ATOM      3  C   UNL     1       5.223   5.144  19.248  0.00  0.00    +0.000 A 
ATOM      4  C   UNL     1       5.959   4.785  18.109  0.00  0.00    +0.000 A 
ATOM      5  C   UNL     1       5.311   4.155  17.040  0.00  0.00    +0.000 A 
ATOM      6  C   UNL     1       3.934   3.913  17.107  0.00  0.00    +0.000 A 
ENDROOT
BRANCH   1   8
ATOM      7  O   UNL     1       1.044   4.189  17.252  0.00  0.00    +0.000 OA
ATOM      8  C   UNL     1       1.736   4.012  18.241  0.00  0.00    +0.000 C 
BRANCH   8   9
ATOM      9  O   UNL     1       1.248   3.529  19.402  0.00  0.00    +0.000 OA
ATOM     10  H   UNL     1       1.432   4.062  20.195  0.00  0.00    +0.000 HD
ENDBRANCH   8   9
ENDBRANCH   1   8
BRANCH   4  11
ATOM     11  C   UNL     1       7.418   5.059  18.111  0.00  0.00    +0.000 C 
ATOM     12  O   UNL     1       7.882   6.122  18.487  0.00  0.00    +0.000 OA
BRANCH  11  13
ATOM     13  O   UNL     1       8.175   4.054  17.625  0.00  0.00    +0.000 OA
ATOM     14  H   UNL     1       8.668   4.253  16.807  0.00  0.00    +0.000 HD
ENDBRANCH  11  13
ENDBRANCH   4  11
TORSDOF 4
ENDMDL
