MODEL 1
REMARK VINA RESULT:      -6.4      0.000      0.000
REMARK  Name = 
REMARK  7 active torsions:
REMARK  status: ('A' for Active; 'I' for Inactive)
REMARK    1  A    between atoms: C_1  and  C_2
REMARK    2  A    between atoms: C_2  and  C_3
REMARK    3  A    between atoms: C_2  and  C_4
REMARK    4  A    between atoms: C_2  and  C_5
REMARK    5  A    between atoms: C_9  and  C_11
REMARK    6  A    between atoms: C_17  and  C_19
REMARK    7  A    between atoms: C_19  and  C_20
REMARK                            x       y       z     vdW  Elec       q    Type
REMARK                         _______ _______ _______ _____ _____    ______ ____
ROOT
ATOM      1  C   UNL     1      -0.105  11.100  20.690  0.00  0.00    +0.000 C 
ATOM      2  C   UNL     1      -0.350   9.860  21.610  0.00  0.00    +0.000 C 
ATOM      3  C   UNL     1      -0.715  10.198  23.058  0.00  0.00    +0.000 C 
ATOM      4  C   UNL     1      -1.686  11.371  23.167  0.00  0.00    +0.000 C 
ATOM      5  C   UNL     1      -1.127  12.554  22.399  0.00  0.00    +0.000 C 
ATOM      6  N   UNL     1      -1.039  12.221  20.984  0.00  0.00    +0.000 N 
ATOM      7  C   UNL     1      -1.930  12.711  20.029  0.00  0.00    +0.000 C 
ATOM      8  O   UNL     1      -1.695  12.650  18.821  0.00  0.00    +0.000 OA
ENDROOT
BRANCH   1  13
ATOM      9  C   UNL     1       3.245  14.134  18.682  0.00  0.00    +0.000 A 
ATOM     10  C   UNL     1       2.619  13.219  17.860  0.00  0.00    +0.000 A 
ATOM     11  C   UNL     1       1.856  12.417  18.738  0.00  0.00    +0.000 A 
ATOM     12  N   UNL     1       1.027  11.382  18.397  0.00  0.00    +0.000 N 
ATOM     13  C   UNL     1       0.195  10.669  19.221  0.00  0.00    +0.000 C 
ATOM     14  O   UNL     1      -0.398   9.699  18.726  0.00  0.00    +0.000 OA
ATOM     15  N   UNL     1       2.049  12.838  19.991  0.00  0.00    +0.000 NA
ATOM     16  O   UNL     1       2.913  13.870  19.963  0.00  0.00    +0.000 OA
ATOM     17  H   UNL     1       1.075  11.033  17.452  0.00  0.00    +0.000 HD
BRANCH   9  19
ATOM     18  C   UNL     1       4.495  15.898  19.884  0.00  0.00    +0.000 C 
ATOM     19  C   UNL     1       4.193  15.271  18.519  0.00  0.00    +0.000 C 
ATOM     20  C   UNL     1       3.530  16.286  17.576  0.00  0.00    +0.000 C 
ATOM     21  C   UNL     1       5.518  14.780  17.894  0.00  0.00    +0.000 C 
ENDBRANCH   9  19
ENDBRANCH   1  13
BRANCH   7  22
ATOM     22  C   UNL     1      -3.272  13.239  20.555  0.00  0.00    +0.000 C 
BRANCH  22  23
ATOM     23  C   UNL     1      -4.471  12.287  20.412  0.00  0.00    +0.000 C 
ATOM     24  C   UNL     1      -5.057  12.343  18.994  0.00  0.00    +0.000 C 
ATOM     25  C   UNL     1      -6.370  11.587  18.904  0.00  0.00    +0.000 C 
ATOM     26  O   UNL     1      -7.308  12.096  19.848  0.00  0.00    +0.000 OA
ATOM     27  C   UNL     1      -6.859  11.919  21.190  0.00  0.00    +0.000 C 
ATOM     28  C   UNL     1      -5.562  12.680  21.429  0.00  0.00    +0.000 C 
ENDBRANCH  22  23
ENDBRANCH   7  22
TORSDOF 4
ENDMDL
MODEL 2
REMARK VINA RESULT:      -6.1      2.815      7.785
REMARK  Name = 
REMARK  7 active torsions:
REMARK  status: ('A' for Active; 'I' for Inactive)
REMARK    1  A    between atoms: C_1  and  C_2
REMARK    2  A    between atoms: C_2  and  C_3
REMARK    3  A    between atoms: C_2  and  C_4
REMARK    4  A    between atoms: C_2  and  C_5
REMARK    5  A    between atoms: C_9  and  C_11
REMARK    6  A    between atoms: C_17  and  C_19
REMARK    7  A    between atoms: C_19  and  C_20
REMARK                            x       y       z     vdW  Elec       q    Type
REMARK                         _______ _______ _______ _____ _____    ______ ____
ROOT
ATOM      1  C   UNL     1      -0.668  12.566  18.971  0.00  0.00    +0.000 C 
ATOM      2  C   UNL     1      -0.126  13.912  18.391  0.00  0.00    +0.000 C 
ATOM      3  C   UNL     1       1.244  14.337  18.929  0.00  0.00    +0.000 C 
ATOM      4  C   UNL     1       2.220  13.171  19.056  0.00  0.00    +0.000 C 
ATOM      5  C   UNL     1       1.573  12.067  19.872  0.00  0.00    +0.000 C 
ATOM      6  N   UNL     1       0.408  11.555  19.165  0.00  0.00    +0.000 N 
ATOM      7  C   UNL     1       0.398  10.329  18.498  0.00  0.00    +0.000 C 
ATOM      8  O   UNL     1      -0.648   9.785  18.142  0.00  0.00    +0.000 OA
ENDROOT
BRANCH   1  13
ATOM      9  C   UNL     1      -4.319  13.071  22.269  0.00  0.00    +0.000 A 
ATOM     10  C   UNL     1      -4.609  12.465  21.063  0.00  0.00    +0.000 A 
ATOM     11  C   UNL     1      -3.429  12.610  20.301  0.00  0.00    +0.000 A 
ATOM     12  N   UNL     1      -3.205  12.142  19.034  0.00  0.00    +0.000 N 
ATOM     13  C   UNL     1      -2.032  12.174  18.324  0.00  0.00    +0.000 C 
ATOM     14  O   UNL     1      -2.070  11.786  17.147  0.00  0.00    +0.000 OA
ATOM     15  N   UNL     1      -2.523  13.276  21.023  0.00  0.00    +0.000 NA
ATOM     16  O   UNL     1      -3.070  13.578  22.215  0.00  0.00    +0.000 OA
ATOM     17  H   UNL     1      -3.998  11.802  18.511  0.00  0.00    +0.000 HD
BRANCH   9  19
ATOM     18  C   UNL     1      -4.996  14.829  23.872  0.00  0.00    +0.000 C 
ATOM     19  C   UNL     1      -5.028  13.331  23.553  0.00  0.00    +0.000 C 
ATOM     20  C   UNL     1      -4.313  12.516  24.642  0.00  0.00    +0.000 C 
ATOM     21  C   UNL     1      -6.501  12.875  23.455  0.00  0.00    +0.000 C 
ENDBRANCH   9  19
ENDBRANCH   1  13
BRANCH   7  22
ATOM     22  C   UNL     1       1.768   9.738  18.137  0.00  0.00    +0.000 C 
BRANCH  22  23
ATOM     23  C   UNL     1       1.907   8.215  18.301  0.00  0.00    +0.000 C 
ATOM     24  C   UNL     1       1.899   7.815  19.782  0.00  0.00    +0.000 C 
ATOM     25  C   UNL     1       2.262   6.353  19.966  0.00  0.00    +0.000 C 
ATOM     26  O   UNL     1       3.533   6.074  19.384  0.00  0.00    +0.000 OA
ATOM     27  C   UNL     1       3.529   6.291  17.975  0.00  0.00    +0.000 C 
ATOM     28  C   UNL     1       3.227   7.749  17.654  0.00  0.00    +0.000 C 
ENDBRANCH  22  23
ENDBRANCH   7  22
TORSDOF 4
ENDMDL
MODEL 3
REMARK VINA RESULT:      -6.1      0.984      1.417
REMARK  Name = 
REMARK  7 active torsions:
REMARK  status: ('A' for Active; 'I' for Inactive)
REMARK    1  A    between atoms: C_1  and  C_2
REMARK    2  A    between atoms: C_2  and  C_3
REMARK    3  A    between atoms: C_2  and  C_4
REMARK    4  A    between atoms: C_2  and  C_5
REMARK    5  A    between atoms: C_9  and  C_11
REMARK    6  A    between atoms: C_17  and  C_19
REMARK    7  A    between atoms: C_19  and  C_20
REMARK                            x       y       z     vdW  Elec       q    Type
REMARK                         _______ _______ _______ _____ _____    ______ ____
ROOT
ATOM      1  C   UNL     1      -0.033  10.835  20.533  0.00  0.00    +0.000 C 
ATOM      2  C   UNL     1      -0.080   9.422  21.200  0.00  0.00    +0.000 C 
ATOM      3  C   UNL     1      -0.210   9.438  22.726  0.00  0.00    +0.000 C 
ATOM      4  C   UNL     1      -1.187  10.498  23.228  0.00  0.00    +0.000 C 
ATOM      5  C   UNL     1      -0.803  11.846  22.646  0.00  0.00    +0.000 C 
ATOM      6  N   UNL     1      -0.941  11.810  21.197  0.00  0.00    +0.000 N 
ATOM      7  C   UNL     1      -1.994  12.422  20.516  0.00  0.00    +0.000 C 
ATOM      8  O   UNL     1      -1.962  12.620  19.301  0.00  0.00    +0.000 OA
ENDROOT
BRANCH   1  13
ATOM      9  C   UNL     1       3.110  14.202  18.731  0.00  0.00    +0.000 A 
ATOM     10  C   UNL     1       2.334  13.491  17.838  0.00  0.00    +0.000 A 
ATOM     11  C   UNL     1       1.676  12.526  18.631  0.00  0.00    +0.000 A 
ATOM     12  N   UNL     1       0.764  11.596  18.208  0.00  0.00    +0.000 N 
ATOM     13  C   UNL     1       0.033  10.729  18.978  0.00  0.00    +0.000 C 
ATOM     14  O   UNL     1      -0.665   9.893  18.384  0.00  0.00    +0.000 OA
ATOM     15  N   UNL     1       2.066  12.665  19.901  0.00  0.00    +0.000 NA
ATOM     16  O   UNL     1       2.958  13.671  19.962  0.00  0.00    +0.000 OA
ATOM     17  H   UNL     1       0.660  11.458  17.214  0.00  0.00    +0.000 HD
BRANCH   9  19
ATOM     18  C   UNL     1       3.419  16.536  17.971  0.00  0.00    +0.000 C 
ATOM     19  C   UNL     1       4.070  15.339  18.672  0.00  0.00    +0.000 C 
ATOM     20  C   UNL     1       5.308  14.852  17.904  0.00  0.00    +0.000 C 
ATOM     21  C   UNL     1       4.486  15.765  20.098  0.00  0.00    +0.000 C 
ENDBRANCH   9  19
ENDBRANCH   1  13
BRANCH   7  22
ATOM     22  C   UNL     1      -3.246  12.744  21.344  0.00  0.00    +0.000 C 
BRANCH  22  23
ATOM     23  C   UNL     1      -4.484  13.186  20.545  0.00  0.00    +0.000 C 
ATOM     24  C   UNL     1      -4.731  14.693  20.697  0.00  0.00    +0.000 C 
ATOM     25  C   UNL     1      -6.068  15.101  20.106  0.00  0.00    +0.000 C 
ATOM     26  O   UNL     1      -7.129  14.361  20.706  0.00  0.00    +0.000 OA
ATOM     27  C   UNL     1      -7.010  12.963  20.452  0.00  0.00    +0.000 C 
ATOM     28  C   UNL     1      -5.720  12.414  21.048  0.00  0.00    +0.000 C 
ENDBRANCH  22  23
ENDBRANCH   7  22
TORSDOF 4
ENDMDL
MODEL 4
REMARK VINA RESULT:      -6.1      2.781      5.794
REMARK  Name = 
REMARK  7 active torsions:
REMARK  status: ('A' for Active; 'I' for Inactive)
REMARK    1  A    between atoms: C_1  and  C_2
REMARK    2  A    between atoms: C_2  and  C_3
REMARK    3  A    between atoms: C_2  and  C_4
REMARK    4  A    between atoms: C_2  and  C_5
REMARK    5  A    between atoms: C_9  and  C_11
REMARK    6  A    between atoms: C_17  and  C_19
REMARK    7  A    between atoms: C_19  and  C_20
REMARK                            x       y       z     vdW  Elec       q    Type
REMARK                         _______ _______ _______ _____ _____    ______ ____
ROOT
ATOM      1  C   UNL     1      -0.397  12.154  20.004  0.00  0.00    +0.000 C 
ATOM      2  C   UNL     1      -1.914  12.219  19.634  0.00  0.00    +0.000 C 
ATOM      3  C   UNL     1      -2.291  11.493  18.340  0.00  0.00    +0.000 C 
ATOM      4  C   UNL     1      -1.574  10.155  18.179  0.00  0.00    +0.000 C 
ATOM      5  C   UNL     1      -0.080  10.369  18.332  0.00  0.00    +0.000 C 
ATOM      6  N   UNL     1       0.211  10.834  19.681  0.00  0.00    +0.000 N 
ATOM      7  C   UNL     1       0.773  10.018  20.664  0.00  0.00    +0.000 C 
ATOM      8  O   UNL     1       1.262  10.478  21.697  0.00  0.00    +0.000 OA
ENDROOT
BRANCH   1  13
ATOM      9  C   UNL     1       3.822  14.721  19.735  0.00  0.00    +0.000 A 
ATOM     10  C   UNL     1       3.218  14.587  20.969  0.00  0.00    +0.000 A 
ATOM     11  C   UNL     1       1.986  13.954  20.693  0.00  0.00    +0.000 A 
ATOM     12  N   UNL     1       1.035  13.573  21.602  0.00  0.00    +0.000 N 
ATOM     13  C   UNL     1      -0.111  12.859  21.366  0.00  0.00    +0.000 C 
ATOM     14  O   UNL     1      -0.892  12.707  22.317  0.00  0.00    +0.000 OA
ATOM     15  N   UNL     1       1.884  13.753  19.377  0.00  0.00    +0.000 NA
ATOM     16  O   UNL     1       2.991  14.240  18.787  0.00  0.00    +0.000 OA
ATOM     17  H   UNL     1       1.125  13.914  22.547  0.00  0.00    +0.000 HD
BRANCH   9  19
ATOM     18  C   UNL     1       5.452  14.597  17.879  0.00  0.00    +0.000 C 
ATOM     19  C   UNL     1       5.096  15.280  19.203  0.00  0.00    +0.000 C 
ATOM     20  C   UNL     1       6.179  15.035  20.264  0.00  0.00    +0.000 C 
ATOM     21  C   UNL     1       4.953  16.799  18.957  0.00  0.00    +0.000 C 
ENDBRANCH   9  19
ENDBRANCH   1  13
BRANCH   7  22
ATOM     22  C   UNL     1       0.658   8.504  20.442  0.00  0.00    +0.000 C 
BRANCH  22  23
ATOM     23  C   UNL     1       1.954   7.787  20.026  0.00  0.00    +0.000 C 
ATOM     24  C   UNL     1       2.193   7.907  18.515  0.00  0.00    +0.000 C 
ATOM     25  C   UNL     1       3.336   7.018  18.060  0.00  0.00    +0.000 C 
ATOM     26  O   UNL     1       3.089   5.660  18.416  0.00  0.00    +0.000 OA
ATOM     27  C   UNL     1       3.013   5.489  19.830  0.00  0.00    +0.000 C 
ATOM     28  C   UNL     1       1.860   6.296  20.410  0.00  0.00    +0.000 C 
ENDBRANCH  22  23
ENDBRANCH   7  22
TORSDOF 4
ENDMDL
MODEL 5
REMARK VINA RESULT:      -6.0      2.877      7.669
REMARK  Name = 
REMARK  7 active torsions:
REMARK  status: ('A' for Active; 'I' for Inactive)
REMARK    1  A    between atoms: C_1  and  C_2
REMARK    2  A    between atoms: C_2  and  C_3
REMARK    3  A    between atoms: C_2  and  C_4
REMARK    4  A    between atoms: C_2  and  C_5
REMARK    5  A    between atoms: C_9  and  C_11
REMARK    6  A    between atoms: C_17  and  C_19
REMARK    7  A    between atoms: C_19  and  C_20
REMARK                            x       y       z     vdW  Elec       q    Type
REMARK                         _______ _______ _______ _____ _____    ______ ____
ROOT
ATOM      1  C   UNL     1      -0.510  12.653  18.955  0.00  0.00    +0.000 C 
ATOM      2  C   UNL     1       0.001  13.956  18.259  0.00  0.00    +0.000 C 
ATOM      3  C   UNL     1       1.410  14.393  18.671  0.00  0.00    +0.000 C 
ATOM      4  C   UNL     1       2.381  13.222  18.797  0.00  0.00    +0.000 C 
ATOM      5  C   UNL     1       1.785  12.176  19.720  0.00  0.00    +0.000 C 
ATOM      6  N   UNL     1       0.567  11.641  19.129  0.00  0.00    +0.000 N 
ATOM      7  C   UNL     1       0.497  10.378  18.539  0.00  0.00    +0.000 C 
ATOM      8  O   UNL     1      -0.577   9.829  18.291  0.00  0.00    +0.000 OA
ENDROOT
BRANCH   1  13
ATOM      9  C   UNL     1      -3.893  13.297  22.505  0.00  0.00    +0.000 A 
ATOM     10  C   UNL     1      -4.277  12.649  21.349  0.00  0.00    +0.000 A 
ATOM     11  C   UNL     1      -3.159  12.760  20.492  0.00  0.00    +0.000 A 
ATOM     12  N   UNL     1      -3.035  12.243  19.230  0.00  0.00    +0.000 N 
ATOM     13  C   UNL     1      -1.921  12.244  18.431  0.00  0.00    +0.000 C 
ATOM     14  O   UNL     1      -2.052  11.812  17.276  0.00  0.00    +0.000 OA
ATOM     15  N   UNL     1      -2.199  13.448  21.116  0.00  0.00    +0.000 NA
ATOM     16  O   UNL     1      -2.651  13.796  22.334  0.00  0.00    +0.000 OA
ATOM     17  H   UNL     1      -3.867  11.887  18.784  0.00  0.00    +0.000 HD
BRANCH   9  19
ATOM     18  C   UNL     1      -4.455  12.369  24.728  0.00  0.00    +0.000 C 
ATOM     19  C   UNL     1      -4.499  13.609  23.829  0.00  0.00    +0.000 C 
ATOM     20  C   UNL     1      -5.946  14.058  23.573  0.00  0.00    +0.000 C 
ATOM     21  C   UNL     1      -3.721  14.752  24.519  0.00  0.00    +0.000 C 
ENDBRANCH   9  19
ENDBRANCH   1  13
BRANCH   7  22
ATOM     22  C   UNL     1       1.832   9.749  18.116  0.00  0.00    +0.000 C 
BRANCH  22  23
ATOM     23  C   UNL     1       1.937   8.223  18.282  0.00  0.00    +0.000 C 
ATOM     24  C   UNL     1       1.943   7.827  19.764  0.00  0.00    +0.000 C 
ATOM     25  C   UNL     1       2.274   6.356  19.946  0.00  0.00    +0.000 C 
ATOM     26  O   UNL     1       3.528   6.046  19.344  0.00  0.00    +0.000 OA
ATOM     27  C   UNL     1       3.507   6.260  17.935  0.00  0.00    +0.000 C 
ATOM     28  C   UNL     1       3.235   7.724  17.615  0.00  0.00    +0.000 C 
ENDBRANCH  22  23
ENDBRANCH   7  22
TORSDOF 4
ENDMDL
MODEL 6
REMARK VINA RESULT:      -6.0      7.957     10.010
REMARK  Name = 
REMARK  7 active torsions:
REMARK  status: ('A' for Active; 'I' for Inactive)
REMARK    1  A    between atoms: C_1  and  C_2
REMARK    2  A    between atoms: C_2  and  C_3
REMARK    3  A    between atoms: C_2  and  C_4
REMARK    4  A    between atoms: C_2  and  C_5
REMARK    5  A    between atoms: C_9  and  C_11
REMARK    6  A    between atoms: C_17  and  C_19
REMARK    7  A    between atoms: C_19  and  C_20
REMARK                            x       y       z     vdW  Elec       q    Type
REMARK                         _______ _______ _______ _____ _____    ______ ____
ROOT
ATOM      1  C   UNL     1       4.628   4.156  18.544  0.00  0.00    +0.000 C 
ATOM      2  C   UNL     1       4.225   2.983  17.593  0.00  0.00    +0.000 C 
ATOM      3  C   UNL     1       2.733   2.637  17.598  0.00  0.00    +0.000 C 
ATOM      4  C   UNL     1       1.838   3.873  17.626  0.00  0.00    +0.000 C 
ATOM      5  C   UNL     1       2.250   4.761  18.786  0.00  0.00    +0.000 C 
ATOM      6  N   UNL     1       3.608   5.240  18.575  0.00  0.00    +0.000 N 
ATOM      7  C   UNL     1       3.903   6.544  18.175  0.00  0.00    +0.000 C 
ATOM      8  O   UNL     1       5.038   7.016  18.262  0.00  0.00    +0.000 OA
ENDROOT
BRANCH   1  13
ATOM      9  C   UNL     1       6.073   3.890  13.821  0.00  0.00    +0.000 A 
ATOM     10  C   UNL     1       7.042   4.044  14.792  0.00  0.00    +0.000 A 
ATOM     11  C   UNL     1       6.318   4.240  15.988  0.00  0.00    +0.000 A 
ATOM     12  N   UNL     1       6.835   4.408  17.245  0.00  0.00    +0.000 N 
ATOM     13  C   UNL     1       6.149   4.486  18.430  0.00  0.00    +0.000 C 
ATOM     14  O   UNL     1       6.805   4.744  19.450  0.00  0.00    +0.000 OA
ATOM     15  N   UNL     1       5.011   4.218  15.715  0.00  0.00    +0.000 NA
ATOM     16  O   UNL     1       4.858   4.027  14.391  0.00  0.00    +0.000 OA
ATOM     17  H   UNL     1       7.826   4.577  17.327  0.00  0.00    +0.000 HD
BRANCH   9  19
ATOM     18  C   UNL     1       7.027   4.595  11.651  0.00  0.00    +0.000 C 
ATOM     19  C   UNL     1       6.034   3.662  12.350  0.00  0.00    +0.000 C 
ATOM     20  C   UNL     1       4.595   3.932  11.885  0.00  0.00    +0.000 C 
ATOM     21  C   UNL     1       6.412   2.199  12.025  0.00  0.00    +0.000 C 
ENDBRANCH   9  19
ENDBRANCH   1  13
BRANCH   7  22
ATOM     22  C   UNL     1       2.760   7.333  17.522  0.00  0.00    +0.000 C 
BRANCH  22  23
ATOM     23  C   UNL     1       2.232   8.537  18.321  0.00  0.00    +0.000 C 
ATOM     24  C   UNL     1       1.793   8.116  19.730  0.00  0.00    +0.000 C 
ATOM     25  C   UNL     1       1.064   9.240  20.444  0.00  0.00    +0.000 C 
ATOM     26  O   UNL     1      -0.061   9.672  19.683  0.00  0.00    +0.000 OA
ATOM     27  C   UNL     1       0.329  10.213  18.422  0.00  0.00    +0.000 C 
ATOM     28  C   UNL     1       1.033   9.159  17.577  0.00  0.00    +0.000 C 
ENDBRANCH  22  23
ENDBRANCH   7  22
TORSDOF 4
ENDMDL
MODEL 7
REMARK VINA RESULT:      -6.0      3.839      6.106
REMARK  Name = 
REMARK  7 active torsions:
REMARK  status: ('A' for Active; 'I' for Inactive)
REMARK    1  A    between atoms: C_1  and  C_2
REMARK    2  A    between atoms: C_2  and  C_3
REMARK    3  A    between atoms: C_2  and  C_4
REMARK    4  A    between atoms: C_2  and  C_5
REMARK    5  A    between atoms: C_9  and  C_11
REMARK    6  A    between atoms: C_17  and  C_19
REMARK    7  A    between atoms: C_19  and  C_20
REMARK                            x       y       z     vdW  Elec       q    Type
REMARK                         _______ _______ _______ _____ _____    ______ ____
ROOT
ATOM      1  C   UNL     1       1.219  10.840  20.642  0.00  0.00    +0.000 C 
ATOM      2  C   UNL     1       1.797  12.204  21.142  0.00  0.00    +0.000 C 
ATOM      3  C   UNL     1       2.031  13.244  20.042  0.00  0.00    +0.000 C 
ATOM      4  C   UNL     1       0.906  13.280  19.011  0.00  0.00    +0.000 C 
ATOM      5  C   UNL     1       0.678  11.880  18.472  0.00  0.00    +0.000 C 
ATOM      6  N   UNL     1       0.224  11.010  19.548  0.00  0.00    +0.000 N 
ATOM      7  C   UNL     1      -1.100  10.591  19.683  0.00  0.00    +0.000 C 
ATOM      8  O   UNL     1      -1.421   9.656  20.417  0.00  0.00    +0.000 OA
ENDROOT
BRANCH   1  13
ATOM      9  C   UNL     1       2.319   6.204  19.316  0.00  0.00    +0.000 A 
ATOM     10  C   UNL     1       1.684   6.403  20.526  0.00  0.00    +0.000 A 
ATOM     11  C   UNL     1       1.651   7.806  20.682  0.00  0.00    +0.000 A 
ATOM     12  N   UNL     1       1.091   8.506  21.717  0.00  0.00    +0.000 N 
ATOM     13  C   UNL     1       0.950   9.865  21.829  0.00  0.00    +0.000 C 
ATOM     14  O   UNL     1       0.504  10.302  22.901  0.00  0.00    +0.000 OA
ATOM     15  N   UNL     1       2.248   8.376  19.631  0.00  0.00    +0.000 NA
ATOM     16  O   UNL     1       2.676   7.401  18.807  0.00  0.00    +0.000 OA
ATOM     17  H   UNL     1       0.814   7.990  22.538  0.00  0.00    +0.000 HD
BRANCH   9  19
ATOM     18  C   UNL     1       3.303   3.935  19.375  0.00  0.00    +0.000 C 
ATOM     19  C   UNL     1       2.729   5.040  18.482  0.00  0.00    +0.000 C 
ATOM     20  C   UNL     1       3.777   5.545  17.479  0.00  0.00    +0.000 C 
ATOM     21  C   UNL     1       1.513   4.476  17.713  0.00  0.00    +0.000 C 
ENDBRANCH   9  19
ENDBRANCH   1  13
BRANCH   7  22
ATOM     22  C   UNL     1      -2.158  11.424  18.945  0.00  0.00    +0.000 C 
BRANCH  22  23
ATOM     23  C   UNL     1      -2.955  10.686  17.856  0.00  0.00    +0.000 C 
ATOM     24  C   UNL     1      -2.026  10.143  16.763  0.00  0.00    +0.000 C 
ATOM     25  C   UNL     1      -2.812   9.616  15.576  0.00  0.00    +0.000 C 
ATOM     26  O   UNL     1      -3.662  10.630  15.046  0.00  0.00    +0.000 OA
ATOM     27  C   UNL     1      -4.640  11.050  15.994  0.00  0.00    +0.000 C 
ATOM     28  C   UNL     1      -3.975  11.654  17.224  0.00  0.00    +0.000 C 
ENDBRANCH  22  23
ENDBRANCH   7  22
TORSDOF 4
ENDMDL
MODEL 8
REMARK VINA RESULT:      -6.0      2.901      7.759
REMARK  Name = 
REMARK  7 active torsions:
REMARK  status: ('A' for Active; 'I' for Inactive)
REMARK    1  A    between atoms: C_1  and  C_2
REMARK    2  A    between atoms: C_2  and  C_3
REMARK    3  A    between atoms: C_2  and  C_4
REMARK    4  A    between atoms: C_2  and  C_5
REMARK    5  A    between atoms: C_9  and  C_11
REMARK    6  A    between atoms: C_17  and  C_19
REMARK    7  A    between atoms: C_19  and  C_20
REMARK                            x       y       z     vdW  Elec       q    Type
REMARK                         _______ _______ _______ _____ _____    ______ ____
ROOT
ATOM      1  C   UNL     1      -1.089  11.501  21.193  0.00  0.00    +0.000 C 
ATOM      2  C   UNL     1      -0.564  10.253  20.410  0.00  0.00    +0.000 C 
ATOM      3  C   UNL     1      -0.429  10.455  18.898  0.00  0.00    +0.000 C 
ATOM      4  C   UNL     1       0.143  11.821  18.530  0.00  0.00    +0.000 C 
ATOM      5  C   UNL     1      -0.677  12.904  19.207  0.00  0.00    +0.000 C 
ATOM      6  N   UNL     1      -0.552  12.779  20.653  0.00  0.00    +0.000 N 
ATOM      7  C   UNL     1       0.228  13.639  21.427  0.00  0.00    +0.000 C 
ATOM      8  O   UNL     1       0.117  13.700  22.652  0.00  0.00    +0.000 OA
ENDROOT
BRANCH   1  13
ATOM      9  C   UNL     1      -5.182  13.476  23.143  0.00  0.00    +0.000 A 
ATOM     10  C   UNL     1      -4.226  12.976  24.004  0.00  0.00    +0.000 A 
ATOM     11  C   UNL     1      -3.279  12.356  23.159  0.00  0.00    +0.000 A 
ATOM     12  N   UNL     1      -2.118  11.738  23.539  0.00  0.00    +0.000 N 
ATOM     13  C   UNL     1      -1.134  11.233  22.729  0.00  0.00    +0.000 C 
ATOM     14  O   UNL     1      -0.207  10.618  23.277  0.00  0.00    +0.000 OA
ATOM     15  N   UNL     1      -3.679  12.480  21.891  0.00  0.00    +0.000 NA
ATOM     16  O   UNL     1      -4.851  13.142  21.879  0.00  0.00    +0.000 OA
ATOM     17  H   UNL     1      -1.985  11.549  24.521  0.00  0.00    +0.000 HD
BRANCH   9  19
ATOM     18  C   UNL     1      -7.104  14.383  21.877  0.00  0.00    +0.000 C 
ATOM     19  C   UNL     1      -6.462  14.228  23.260  0.00  0.00    +0.000 C 
ATOM     20  C   UNL     1      -6.132  15.597  23.875  0.00  0.00    +0.000 C 
ATOM     21  C   UNL     1      -7.445  13.475  24.183  0.00  0.00    +0.000 C 
ENDBRANCH   9  19
ENDBRANCH   1  13
BRANCH   7  22
ATOM     22  C   UNL     1       1.310  14.434  20.684  0.00  0.00    +0.000 C 
BRANCH  22  23
ATOM     23  C   UNL     1       1.005  15.924  20.447  0.00  0.00    +0.000 C 
ATOM     24  C   UNL     1       0.891  16.234  18.949  0.00  0.00    +0.000 C 
ATOM     25  C   UNL     1       0.818  17.729  18.694  0.00  0.00    +0.000 C 
ATOM     26  O   UNL     1       1.951  18.389  19.252  0.00  0.00    +0.000 OA
ATOM     27  C   UNL     1       2.002  18.247  20.670  0.00  0.00    +0.000 C 
ATOM     28  C   UNL     1       2.131  16.781  21.061  0.00  0.00    +0.000 C 
ENDBRANCH  22  23
ENDBRANCH   7  22
TORSDOF 4
ENDMDL
MODEL 9
REMARK VINA RESULT:      -6.0      0.606      1.356
REMARK  Name = 
REMARK  7 active torsions:
REMARK  status: ('A' for Active; 'I' for Inactive)
REMARK    1  A    between atoms: C_1  and  C_2
REMARK    2  A    between atoms: C_2  and  C_3
REMARK    3  A    between atoms: C_2  and  C_4
REMARK    4  A    between atoms: C_2  and  C_5
REMARK    5  A    between atoms: C_9  and  C_11
REMARK    6  A    between atoms: C_17  and  C_19
REMARK    7  A    between atoms: C_19  and  C_20
REMARK                            x       y       z     vdW  Elec       q    Type
REMARK                         _______ _______ _______ _____ _____    ______ ____
ROOT
ATOM      1  C   UNL     1       0.021  11.005  20.597  0.00  0.00    +0.000 C 
ATOM      2  C   UNL     1      -0.074   9.699  21.450  0.00  0.00    +0.000 C 
ATOM      3  C   UNL     1      -0.407   9.921  22.928  0.00  0.00    +0.000 C 
ATOM      4  C   UNL     1      -1.471  10.993  23.142  0.00  0.00    +0.000 C 
ATOM      5  C   UNL     1      -1.052  12.263  22.426  0.00  0.00    +0.000 C 
ATOM      6  N   UNL     1      -0.994  12.019  20.992  0.00  0.00    +0.000 N 
ATOM      7  C   UNL     1      -1.964  12.480  20.101  0.00  0.00    +0.000 C 
ATOM      8  O   UNL     1      -1.776  12.508  18.884  0.00  0.00    +0.000 OA
ENDROOT
BRANCH   1  13
ATOM      9  C   UNL     1       3.241  14.264  18.731  0.00  0.00    +0.000 A 
ATOM     10  C   UNL     1       2.618  13.391  17.861  0.00  0.00    +0.000 A 
ATOM     11  C   UNL     1       1.899  12.510  18.698  0.00  0.00    +0.000 A 
ATOM     12  N   UNL     1       1.089  11.478  18.304  0.00  0.00    +0.000 N 
ATOM     13  C   UNL     1       0.297  10.687  19.095  0.00  0.00    +0.000 C 
ATOM     14  O   UNL     1      -0.283   9.737  18.547  0.00  0.00    +0.000 OA
ATOM     15  N   UNL     1       2.112  12.847  19.973  0.00  0.00    +0.000 NA
ATOM     16  O   UNL     1       2.947  13.902  19.998  0.00  0.00    +0.000 OA
ATOM     17  H   UNL     1       1.123  11.197  17.336  0.00  0.00    +0.000 HD
BRANCH   9  19
ATOM     18  C   UNL     1       3.483  16.551  17.820  0.00  0.00    +0.000 C 
ATOM     19  C   UNL     1       4.154  15.435  18.627  0.00  0.00    +0.000 C 
ATOM     20  C   UNL     1       5.440  14.951  17.941  0.00  0.00    +0.000 C 
ATOM     21  C   UNL     1       4.496  15.976  20.034  0.00  0.00    +0.000 C 
ENDBRANCH   9  19
ENDBRANCH   1  13
BRANCH   7  22
ATOM     22  C   UNL     1      -3.324  12.855  20.706  0.00  0.00    +0.000 C 
BRANCH  22  23
ATOM     23  C   UNL     1      -4.543  12.665  19.788  0.00  0.00    +0.000 C 
ATOM     24  C   UNL     1      -5.807  12.360  20.603  0.00  0.00    +0.000 C 
ATOM     25  C   UNL     1      -6.961  11.948  19.707  0.00  0.00    +0.000 C 
ATOM     26  O   UNL     1      -6.601  10.822  18.911  0.00  0.00    +0.000 OA
ATOM     27  C   UNL     1      -5.522  11.120  18.028  0.00  0.00    +0.000 C 
ATOM     28  C   UNL     1      -4.273  11.501  18.812  0.00  0.00    +0.000 C 
ENDBRANCH  22  23
ENDBRANCH   7  22
TORSDOF 4
ENDMDL
