MODEL 1
REMARK VINA RESULT:      -8.5      0.000      0.000
REMARK  Name = 
REMARK  2 active torsions:
REMARK  status: ('A' for Active; 'I' for Inactive)
REMARK    1  A    between atoms: C_5  and  C_6
REMARK    2  A    between atoms: C_9  and  C_10
REMARK                            x       y       z     vdW  Elec       q    Type
REMARK                         _______ _______ _______ _____ _____    ______ ____
ROOT
ATOM      1  C   UNL     1       2.256   6.712  19.647  0.00  0.00    +0.000 A 
ATOM      2  C   UNL     1       3.235   6.117  18.933  0.00  0.00    +0.000 A 
ATOM      3  N   UNL     1       3.564   4.795  19.191  0.00  0.00    +0.000 N 
ATOM      4  C   UNL     1       4.455   3.904  18.611  0.00  0.00    +0.000 A 
ATOM      5  C   UNL     1       4.303   2.755  19.385  0.00  0.00    +0.000 A 
ATOM      6  N   UNL     1       3.355   2.905  20.368  0.00  0.00    +0.000 NA
ATOM      7  C   UNL     1       2.933   4.137  20.213  0.00  0.00    +0.000 A 
ATOM      8  C   UNL     1       1.938   4.839  20.973  0.00  0.00    +0.000 A 
ATOM      9  N   UNL     1       1.604   6.073  20.700  0.00  0.00    +0.000 NA
ENDROOT
BRANCH   1  14
ATOM     10  N   UNL     1       0.770  12.051  18.565  0.00  0.00    +0.000 N 
ATOM     11  C   UNL     1       1.120  10.724  18.787  0.00  0.00    +0.000 A 
ATOM     12  C   UNL     1       1.841  10.014  17.839  0.00  0.00    +0.000 A 
ATOM     13  C   UNL     1       2.212   8.694  18.112  0.00  0.00    +0.000 A 
ATOM     14  C   UNL     1       1.867   8.108  19.328  0.00  0.00    +0.000 A 
ATOM     15  C   UNL     1       1.179   8.928  20.225  0.00  0.00    +0.000 A 
ATOM     16  N   UNL     1       0.787  10.204  19.977  0.00  0.00    +0.000 NA
ATOM     17  H   UNL     1       0.329  12.191  17.666  0.00  0.00    +0.000 HD
ATOM     18  H   UNL     1       0.176  12.341  19.340  0.00  0.00    +0.000 HD
ENDBRANCH   1  14
BRANCH   4  19
ATOM     19  C   UNL     1       5.363   4.174  17.493  0.00  0.00    +0.000 A 
ATOM     20  C   UNL     1       6.670   4.648  17.691  0.00  0.00    +0.000 A 
ATOM     21  C   UNL     1       7.545   4.826  16.616  0.00  0.00    +0.000 A 
ATOM     22  C   UNL     1       7.107   4.587  15.317  0.00  0.00    +0.000 A 
ATOM     23  C   UNL     1       5.795   4.177  15.101  0.00  0.00    +0.000 A 
ATOM     24 CL   UNL     1       5.235   3.922  13.493  0.00  0.00    +0.000 Cl
ATOM     25  C   UNL     1       4.928   3.968  16.175  0.00  0.00    +0.000 A 
ENDBRANCH   4  19
TORSDOF 2
ENDMDL
MODEL 2
REMARK VINA RESULT:      -8.4      3.229      6.720
REMARK  Name = 
REMARK  2 active torsions:
REMARK  status: ('A' for Active; 'I' for Inactive)
REMARK    1  A    between atoms: C_5  and  C_6
REMARK    2  A    between atoms: C_9  and  C_10
REMARK                            x       y       z     vdW  Elec       q    Type
REMARK                         _______ _______ _______ _____ _____    ______ ____
ROOT
ATOM      1  C   UNL     1       4.687   4.563  17.680  0.00  0.00    +0.000 A 
ATOM      2  C   UNL     1       3.882   5.566  18.089  0.00  0.00    +0.000 A 
ATOM      3  N   UNL     1       3.098   5.398  19.220  0.00  0.00    +0.000 N 
ATOM      4  C   UNL     1       2.235   6.233  19.915  0.00  0.00    +0.000 A 
ATOM      5  C   UNL     1       1.753   5.413  20.934  0.00  0.00    +0.000 A 
ATOM      6  N   UNL     1       2.302   4.154  20.900  0.00  0.00    +0.000 NA
ATOM      7  C   UNL     1       3.105   4.189  19.864  0.00  0.00    +0.000 A 
ATOM      8  C   UNL     1       3.941   3.141  19.351  0.00  0.00    +0.000 A 
ATOM      9  N   UNL     1       4.708   3.318  18.307  0.00  0.00    +0.000 NA
ENDROOT
BRANCH   1  14
ATOM     10  N   UNL     1       8.139   5.374  13.287  0.00  0.00    +0.000 N 
ATOM     11  C   UNL     1       7.251   5.182  14.339  0.00  0.00    +0.000 A 
ATOM     12  C   UNL     1       6.161   4.336  14.200  0.00  0.00    +0.000 A 
ATOM     13  C   UNL     1       5.311   4.133  15.290  0.00  0.00    +0.000 A 
ATOM     14  C   UNL     1       5.567   4.768  16.504  0.00  0.00    +0.000 A 
ATOM     15  C   UNL     1       6.716   5.561  16.545  0.00  0.00    +0.000 A 
ATOM     16  N   UNL     1       7.545   5.793  15.495  0.00  0.00    +0.000 NA
ATOM     17  H   UNL     1       7.671   5.606  12.421  0.00  0.00    +0.000 HD
ATOM     18  H   UNL     1       8.801   6.091  13.577  0.00  0.00    +0.000 HD
ENDBRANCH   1  14
BRANCH   4  19
ATOM     19  C   UNL     1       1.896   7.619  19.580  0.00  0.00    +0.000 A 
ATOM     20  C   UNL     1       2.152   8.164  18.312  0.00  0.00    +0.000 A 
ATOM     21  C   UNL     1       1.753   9.463  17.989  0.00  0.00    +0.000 A 
ATOM     22  C   UNL     1       1.139  10.261  18.951  0.00  0.00    +0.000 A 
ATOM     23  C   UNL     1       0.936   9.755  20.231  0.00  0.00    +0.000 A 
ATOM     24 CL   UNL     1       0.217  10.751  21.437  0.00  0.00    +0.000 Cl
ATOM     25  C   UNL     1       1.306   8.446  20.547  0.00  0.00    +0.000 A 
ENDBRANCH   4  19
TORSDOF 2
ENDMDL
MODEL 3
REMARK VINA RESULT:      -8.3      0.589      1.022
REMARK  Name = 
REMARK  2 active torsions:
REMARK  status: ('A' for Active; 'I' for Inactive)
REMARK    1  A    between atoms: C_5  and  C_6
REMARK    2  A    between atoms: C_9  and  C_10
REMARK                            x       y       z     vdW  Elec       q    Type
REMARK                         _______ _______ _______ _____ _____    ______ ____
ROOT
ATOM      1  C   UNL     1       2.210   6.550  19.855  0.00  0.00    +0.000 A 
ATOM      2  C   UNL     1       3.213   6.003  19.136  0.00  0.00    +0.000 A 
ATOM      3  N   UNL     1       3.568   4.681  19.352  0.00  0.00    +0.000 N 
ATOM      4  C   UNL     1       4.488   3.831  18.755  0.00  0.00    +0.000 A 
ATOM      5  C   UNL     1       4.351   2.652  19.485  0.00  0.00    +0.000 A 
ATOM      6  N   UNL     1       3.385   2.746  20.458  0.00  0.00    +0.000 NA
ATOM      7  C   UNL     1       2.938   3.972  20.340  0.00  0.00    +0.000 A 
ATOM      8  C   UNL     1       1.916   4.625  21.109  0.00  0.00    +0.000 A 
ATOM      9  N   UNL     1       1.557   5.859  20.874  0.00  0.00    +0.000 NA
ENDROOT
BRANCH   1  14
ATOM     10  N   UNL     1       0.624  11.840  18.678  0.00  0.00    +0.000 N 
ATOM     11  C   UNL     1       1.032  10.553  19.010  0.00  0.00    +0.000 A 
ATOM     12  C   UNL     1       0.742  10.018  20.257  0.00  0.00    +0.000 A 
ATOM     13  C   UNL     1       1.131   8.706  20.543  0.00  0.00    +0.000 A 
ATOM     14  C   UNL     1       1.794   7.947  19.580  0.00  0.00    +0.000 A 
ATOM     15  C   UNL     1       1.996   8.571  18.347  0.00  0.00    +0.000 A 
ATOM     16  N   UNL     1       1.648   9.850  18.050  0.00  0.00    +0.000 NA
ATOM     17  H   UNL     1       0.879  12.521  19.380  0.00  0.00    +0.000 HD
ATOM     18  H   UNL     1       1.016  12.055  17.764  0.00  0.00    +0.000 HD
ENDBRANCH   1  14
BRANCH   4  19
ATOM     19  C   UNL     1       5.406   4.161  17.661  0.00  0.00    +0.000 A 
ATOM     20  C   UNL     1       6.685   4.692  17.895  0.00  0.00    +0.000 A 
ATOM     21  C   UNL     1       7.572   4.928  16.842  0.00  0.00    +0.000 A 
ATOM     22  C   UNL     1       7.175   4.689  15.530  0.00  0.00    +0.000 A 
ATOM     23  C   UNL     1       5.888   4.223  15.279  0.00  0.00    +0.000 A 
ATOM     24 CL   UNL     1       5.375   3.967  13.656  0.00  0.00    +0.000 Cl
ATOM     25  C   UNL     1       5.009   3.956  16.331  0.00  0.00    +0.000 A 
ENDBRANCH   4  19
TORSDOF 2
ENDMDL
MODEL 4
REMARK VINA RESULT:      -7.8      2.809      6.372
REMARK  Name = 
REMARK  2 active torsions:
REMARK  status: ('A' for Active; 'I' for Inactive)
REMARK    1  A    between atoms: C_5  and  C_6
REMARK    2  A    between atoms: C_9  and  C_10
REMARK                            x       y       z     vdW  Elec       q    Type
REMARK                         _______ _______ _______ _____ _____    ______ ____
ROOT
ATOM      1  C   UNL     1       4.688   3.998  17.900  0.00  0.00    +0.000 A 
ATOM      2  C   UNL     1       3.850   4.900  18.453  0.00  0.00    +0.000 A 
ATOM      3  N   UNL     1       3.118   4.555  19.578  0.00  0.00    +0.000 N 
ATOM      4  C   UNL     1       2.240   5.253  20.395  0.00  0.00    +0.000 A 
ATOM      5  C   UNL     1       1.838   4.292  21.322  0.00  0.00    +0.000 A 
ATOM      6  N   UNL     1       2.447   3.078  21.117  0.00  0.00    +0.000 NA
ATOM      7  C   UNL     1       3.209   3.280  20.070  0.00  0.00    +0.000 A 
ATOM      8  C   UNL     1       4.077   2.348  19.407  0.00  0.00    +0.000 A 
ATOM      9  N   UNL     1       4.795   2.690  18.370  0.00  0.00    +0.000 NA
ENDROOT
BRANCH   1  14
ATOM     10  N   UNL     1       7.935   5.506  13.534  0.00  0.00    +0.000 N 
ATOM     11  C   UNL     1       7.097   5.147  14.584  0.00  0.00    +0.000 A 
ATOM     12  C   UNL     1       5.985   4.349  14.360  0.00  0.00    +0.000 A 
ATOM     13  C   UNL     1       5.186   3.973  15.443  0.00  0.00    +0.000 A 
ATOM     14  C   UNL     1       5.514   4.391  16.732  0.00  0.00    +0.000 A 
ATOM     15  C   UNL     1       6.678   5.154  16.846  0.00  0.00    +0.000 A 
ATOM     16  N   UNL     1       7.458   5.551  15.809  0.00  0.00    +0.000 NA
ATOM     17  H   UNL     1       7.430   5.886  12.745  0.00  0.00    +0.000 HD
ATOM     18  H   UNL     1       8.624   6.157  13.906  0.00  0.00    +0.000 HD
ENDBRANCH   1  14
BRANCH   4  19
ATOM     19  C   UNL     1       1.821   6.649  20.243  0.00  0.00    +0.000 A 
ATOM     20  C   UNL     1       1.083   7.318  21.232  0.00  0.00    +0.000 A 
ATOM     21  C   UNL     1       0.759   8.671  21.101  0.00  0.00    +0.000 A 
ATOM     22  C   UNL     1       1.120   9.364  19.949  0.00  0.00    +0.000 A 
ATOM     23  C   UNL     1       1.797   8.696  18.933  0.00  0.00    +0.000 A 
ATOM     24 CL   UNL     1       2.208   9.537  17.488  0.00  0.00    +0.000 Cl
ATOM     25  C   UNL     1       2.150   7.353  19.075  0.00  0.00    +0.000 A 
ENDBRANCH   4  19
TORSDOF 2
ENDMDL
MODEL 5
REMARK VINA RESULT:      -7.8      1.527      2.017
REMARK  Name = 
REMARK  2 active torsions:
REMARK  status: ('A' for Active; 'I' for Inactive)
REMARK    1  A    between atoms: C_5  and  C_6
REMARK    2  A    between atoms: C_9  and  C_10
REMARK                            x       y       z     vdW  Elec       q    Type
REMARK                         _______ _______ _______ _____ _____    ______ ____
ROOT
ATOM      1  C   UNL     1       2.066   6.341  20.160  0.00  0.00    +0.000 A 
ATOM      2  C   UNL     1       3.082   5.946  19.363  0.00  0.00    +0.000 A 
ATOM      3  N   UNL     1       3.429   4.605  19.310  0.00  0.00    +0.000 N 
ATOM      4  C   UNL     1       4.358   3.889  18.569  0.00  0.00    +0.000 A 
ATOM      5  C   UNL     1       4.203   2.586  19.040  0.00  0.00    +0.000 A 
ATOM      6  N   UNL     1       3.219   2.486  19.993  0.00  0.00    +0.000 NA
ATOM      7  C   UNL     1       2.777   3.713  20.120  0.00  0.00    +0.000 A 
ATOM      8  C   UNL     1       1.742   4.202  20.987  0.00  0.00    +0.000 A 
ATOM      9  N   UNL     1       1.391   5.461  21.003  0.00  0.00    +0.000 NA
ENDROOT
BRANCH   1  14
ATOM     10  N   UNL     1       0.494  11.763  20.064  0.00  0.00    +0.000 N 
ATOM     11  C   UNL     1       0.906  10.437  20.128  0.00  0.00    +0.000 A 
ATOM     12  C   UNL     1       0.796   9.718  21.309  0.00  0.00    +0.000 A 
ATOM     13  C   UNL     1       1.181   8.375  21.329  0.00  0.00    +0.000 A 
ATOM     14  C   UNL     1       1.660   7.768  20.169  0.00  0.00    +0.000 A 
ATOM     15  C   UNL     1       1.686   8.572  19.028  0.00  0.00    +0.000 A 
ATOM     16  N   UNL     1       1.340   9.884  18.987  0.00  0.00    +0.000 NA
ATOM     17  H   UNL     1       0.879  12.326  20.811  0.00  0.00    +0.000 HD
ATOM     18  H   UNL     1       0.746  12.113  19.142  0.00  0.00    +0.000 HD
ENDBRANCH   1  14
BRANCH   4  19
ATOM     19  C   UNL     1       5.298   4.430  17.583  0.00  0.00    +0.000 A 
ATOM     20  C   UNL     1       5.491   3.829  16.329  0.00  0.00    +0.000 A 
ATOM     21  C   UNL     1       6.336   4.403  15.375  0.00  0.00    +0.000 A 
ATOM     22  C   UNL     1       7.045   5.560  15.681  0.00  0.00    +0.000 A 
ATOM     23  C   UNL     1       6.911   6.131  16.943  0.00  0.00    +0.000 A 
ATOM     24 CL   UNL     1       7.820   7.538  17.342  0.00  0.00    +0.000 Cl
ATOM     25  C   UNL     1       6.045   5.578  17.887  0.00  0.00    +0.000 A 
ENDBRANCH   4  19
TORSDOF 2
ENDMDL
MODEL 6
REMARK VINA RESULT:      -7.7      1.438      1.694
REMARK  Name = 
REMARK  2 active torsions:
REMARK  status: ('A' for Active; 'I' for Inactive)
REMARK    1  A    between atoms: C_5  and  C_6
REMARK    2  A    between atoms: C_9  and  C_10
REMARK                            x       y       z     vdW  Elec       q    Type
REMARK                         _______ _______ _______ _____ _____    ______ ____
ROOT
ATOM      1  C   UNL     1       2.077   6.465  20.066  0.00  0.00    +0.000 A 
ATOM      2  C   UNL     1       3.099   6.035  19.296  0.00  0.00    +0.000 A 
ATOM      3  N   UNL     1       3.458   4.696  19.321  0.00  0.00    +0.000 N 
ATOM      4  C   UNL     1       4.397   3.948  18.624  0.00  0.00    +0.000 A 
ATOM      5  C   UNL     1       4.251   2.673  19.168  0.00  0.00    +0.000 A 
ATOM      6  N   UNL     1       3.265   2.617  20.122  0.00  0.00    +0.000 NA
ATOM      7  C   UNL     1       2.812   3.846  20.178  0.00  0.00    +0.000 A 
ATOM      8  C   UNL     1       1.769   4.373  21.012  0.00  0.00    +0.000 A 
ATOM      9  N   UNL     1       1.407   5.628  20.956  0.00  0.00    +0.000 NA
ENDROOT
BRANCH   1  14
ATOM     10  N   UNL     1       0.504  11.886  19.918  0.00  0.00    +0.000 N 
ATOM     11  C   UNL     1       0.866  10.543  19.913  0.00  0.00    +0.000 A 
ATOM     12  C   UNL     1       1.347   9.944  18.759  0.00  0.00    +0.000 A 
ATOM     13  C   UNL     1       1.741   8.604  18.800  0.00  0.00    +0.000 A 
ATOM     14  C   UNL     1       1.658   7.886  19.992  0.00  0.00    +0.000 A 
ATOM     15  C   UNL     1       1.201   8.601  21.102  0.00  0.00    +0.000 A 
ATOM     16  N   UNL     1       0.792   9.896  21.084  0.00  0.00    +0.000 NA
ATOM     17  H   UNL     1      -0.119  12.122  19.158  0.00  0.00    +0.000 HD
ATOM     18  H   UNL     1       0.102  12.088  20.830  0.00  0.00    +0.000 HD
ENDBRANCH   1  14
BRANCH   4  19
ATOM     19  C   UNL     1       5.335   4.440  17.612  0.00  0.00    +0.000 A 
ATOM     20  C   UNL     1       5.520   3.785  16.385  0.00  0.00    +0.000 A 
ATOM     21  C   UNL     1       6.363   4.312  15.403  0.00  0.00    +0.000 A 
ATOM     22  C   UNL     1       7.081   5.477  15.656  0.00  0.00    +0.000 A 
ATOM     23  C   UNL     1       6.955   6.104  16.893  0.00  0.00    +0.000 A 
ATOM     24 CL   UNL     1       7.873   7.521  17.227  0.00  0.00    +0.000 Cl
ATOM     25  C   UNL     1       6.089   5.596  17.864  0.00  0.00    +0.000 A 
ENDBRANCH   4  19
TORSDOF 2
ENDMDL
MODEL 7
REMARK VINA RESULT:      -7.4      3.821      6.001
REMARK  Name = 
REMARK  2 active torsions:
REMARK  status: ('A' for Active; 'I' for Inactive)
REMARK    1  A    between atoms: C_5  and  C_6
REMARK    2  A    between atoms: C_9  and  C_10
REMARK                            x       y       z     vdW  Elec       q    Type
REMARK                         _______ _______ _______ _____ _____    ______ ____
ROOT
ATOM      1  C   UNL     1       4.950   4.594  17.070  0.00  0.00    +0.000 A 
ATOM      2  C   UNL     1       5.016   4.224  15.774  0.00  0.00    +0.000 A 
ATOM      3  N   UNL     1       6.111   4.598  15.010  0.00  0.00    +0.000 N 
ATOM      4  C   UNL     1       6.496   4.336  13.703  0.00  0.00    +0.000 A 
ATOM      5  C   UNL     1       7.685   5.052  13.573  0.00  0.00    +0.000 A 
ATOM      6  N   UNL     1       8.039   5.698  14.733  0.00  0.00    +0.000 NA
ATOM      7  C   UNL     1       7.075   5.395  15.568  0.00  0.00    +0.000 A 
ATOM      8  C   UNL     1       6.923   5.802  16.936  0.00  0.00    +0.000 A 
ATOM      9  N   UNL     1       5.909   5.413  17.664  0.00  0.00    +0.000 NA
ENDROOT
BRANCH   1  14
ATOM     10  N   UNL     1       0.675   2.881  20.336  0.00  0.00    +0.000 N 
ATOM     11  C   UNL     1       1.705   3.283  19.493  0.00  0.00    +0.000 A 
ATOM     12  C   UNL     1       1.430   3.934  18.300  0.00  0.00    +0.000 A 
ATOM     13  C   UNL     1       2.490   4.362  17.497  0.00  0.00    +0.000 A 
ATOM     14  C   UNL     1       3.806   4.143  17.900  0.00  0.00    +0.000 A 
ATOM     15  C   UNL     1       3.967   3.518  19.138  0.00  0.00    +0.000 A 
ATOM     16  N   UNL     1       2.956   3.073  19.927  0.00  0.00    +0.000 NA
ATOM     17  H   UNL     1      -0.041   2.358  19.851  0.00  0.00    +0.000 HD
ATOM     18  H   UNL     1       1.096   2.352  21.097  0.00  0.00    +0.000 HD
ENDBRANCH   1  14
BRANCH   4  19
ATOM     19  C   UNL     1       5.762   3.540  12.715  0.00  0.00    +0.000 A 
ATOM     20  C   UNL     1       4.573   3.997  12.124  0.00  0.00    +0.000 A 
ATOM     21  C   UNL     1       3.930   3.256  11.129  0.00  0.00    +0.000 A 
ATOM     22  C   UNL     1       4.436   2.017  10.748  0.00  0.00    +0.000 A 
ATOM     23  C   UNL     1       5.578   1.523  11.371  0.00  0.00    +0.000 A 
ATOM     24 CL   UNL     1       6.184  -0.028  10.934  0.00  0.00    +0.000 Cl
ATOM     25  C   UNL     1       6.241   2.275  12.343  0.00  0.00    +0.000 A 
ENDBRANCH   4  19
TORSDOF 2
ENDMDL
MODEL 8
REMARK VINA RESULT:      -7.3      3.422      6.737
REMARK  Name = 
REMARK  2 active torsions:
REMARK  status: ('A' for Active; 'I' for Inactive)
REMARK    1  A    between atoms: C_5  and  C_6
REMARK    2  A    between atoms: C_9  and  C_10
REMARK                            x       y       z     vdW  Elec       q    Type
REMARK                         _______ _______ _______ _____ _____    ______ ____
ROOT
ATOM      1  C   UNL     1       4.345   3.825  17.572  0.00  0.00    +0.000 A 
ATOM      2  C   UNL     1       3.606   4.767  18.195  0.00  0.00    +0.000 A 
ATOM      3  N   UNL     1       2.723   4.393  19.196  0.00  0.00    +0.000 N 
ATOM      4  C   UNL     1       1.887   5.105  20.045  0.00  0.00    +0.000 A 
ATOM      5  C   UNL     1       1.252   4.103  20.777  0.00  0.00    +0.000 A 
ATOM      6  N   UNL     1       1.684   2.845  20.431  0.00  0.00    +0.000 NA
ATOM      7  C   UNL     1       2.567   3.064  19.488  0.00  0.00    +0.000 A 
ATOM      8  C   UNL     1       3.342   2.104  18.753  0.00  0.00    +0.000 A 
ATOM      9  N   UNL     1       4.202   2.465  17.838  0.00  0.00    +0.000 NA
ENDROOT
BRANCH   1  14
ATOM     10  N   UNL     1       8.002   5.391  13.564  0.00  0.00    +0.000 N 
ATOM     11  C   UNL     1       7.139   4.987  14.577  0.00  0.00    +0.000 A 
ATOM     12  C   UNL     1       7.420   5.276  15.904  0.00  0.00    +0.000 A 
ATOM     13  C   UNL     1       6.510   4.893  16.893  0.00  0.00    +0.000 A 
ATOM     14  C   UNL     1       5.332   4.236  16.543  0.00  0.00    +0.000 A 
ATOM     15  C   UNL     1       5.131   4.035  15.175  0.00  0.00    +0.000 A 
ATOM     16  N   UNL     1       6.007   4.377  14.197  0.00  0.00    +0.000 NA
ATOM     17  H   UNL     1       8.962   5.130  13.746  0.00  0.00    +0.000 HD
ATOM     18  H   UNL     1       7.650   5.000  12.693  0.00  0.00    +0.000 HD
ENDBRANCH   1  14
BRANCH   4  19
ATOM     19  C   UNL     1       1.705   6.558  20.081  0.00  0.00    +0.000 A 
ATOM     20  C   UNL     1       2.037   7.379  18.991  0.00  0.00    +0.000 A 
ATOM     21  C   UNL     1       1.786   8.753  19.018  0.00  0.00    +0.000 A 
ATOM     22  C   UNL     1       1.248   9.339  20.160  0.00  0.00    +0.000 A 
ATOM     23  C   UNL     1       0.972   8.547  21.271  0.00  0.00    +0.000 A 
ATOM     24 CL   UNL     1       0.347   9.273  22.701  0.00  0.00    +0.000 Cl
ATOM     25  C   UNL     1       1.193   7.169  21.235  0.00  0.00    +0.000 A 
ENDBRANCH   4  19
TORSDOF 2
ENDMDL
MODEL 9
REMARK VINA RESULT:      -7.2      3.742      6.126
REMARK  Name = 
REMARK  2 active torsions:
REMARK  status: ('A' for Active; 'I' for Inactive)
REMARK    1  A    between atoms: C_5  and  C_6
REMARK    2  A    between atoms: C_9  and  C_10
REMARK                            x       y       z     vdW  Elec       q    Type
REMARK                         _______ _______ _______ _____ _____    ______ ____
ROOT
ATOM      1  C   UNL     1       4.793   4.409  16.823  0.00  0.00    +0.000 A 
ATOM      2  C   UNL     1       4.955   4.057  15.531  0.00  0.00    +0.000 A 
ATOM      3  N   UNL     1       6.089   4.468  14.846  0.00  0.00    +0.000 N 
ATOM      4  C   UNL     1       6.567   4.232  13.565  0.00  0.00    +0.000 A 
ATOM      5  C   UNL     1       7.743   4.979  13.524  0.00  0.00    +0.000 A 
ATOM      6  N   UNL     1       8.002   5.619  14.712  0.00  0.00    +0.000 NA
ATOM      7  C   UNL     1       6.992   5.282  15.477  0.00  0.00    +0.000 A 
ATOM      8  C   UNL     1       6.738   5.667  16.836  0.00  0.00    +0.000 A 
ATOM      9  N   UNL     1       5.688   5.245  17.489  0.00  0.00    +0.000 NA
ENDROOT
BRANCH   1  14
ATOM     10  N   UNL     1       0.357   2.442  19.710  0.00  0.00    +0.000 N 
ATOM     11  C   UNL     1       1.418   2.949  18.969  0.00  0.00    +0.000 A 
ATOM     12  C   UNL     1       1.471   4.296  18.639  0.00  0.00    +0.000 A 
ATOM     13  C   UNL     1       2.573   4.780  17.929  0.00  0.00    +0.000 A 
ATOM     14  C   UNL     1       3.608   3.919  17.569  0.00  0.00    +0.000 A 
ATOM     15  C   UNL     1       3.471   2.595  17.991  0.00  0.00    +0.000 A 
ATOM     16  N   UNL     1       2.402   2.093  18.661  0.00  0.00    +0.000 NA
ATOM     17  H   UNL     1      -0.543   2.709  19.332  0.00  0.00    +0.000 HD
ATOM     18  H   UNL     1       0.477   1.432  19.757  0.00  0.00    +0.000 HD
ENDBRANCH   1  14
BRANCH   4  19
ATOM     19  C   UNL     1       5.922   3.430  12.522  0.00  0.00    +0.000 A 
ATOM     20  C   UNL     1       6.409   2.169  12.142  0.00  0.00    +0.000 A 
ATOM     21  C   UNL     1       5.736   1.389  11.199  0.00  0.00    +0.000 A 
ATOM     22  C   UNL     1       4.592   1.881  10.578  0.00  0.00    +0.000 A 
ATOM     23  C   UNL     1       4.133   3.155  10.899  0.00  0.00    +0.000 A 
ATOM     24 CL   UNL     1       2.744   3.787  10.102  0.00  0.00    +0.000 Cl
ATOM     25  C   UNL     1       4.786   3.925  11.864  0.00  0.00    +0.000 A 
ENDBRANCH   4  19
TORSDOF 2
ENDMDL
