MODEL 1
REMARK VINA RESULT:      -8.0      0.000      0.000
REMARK  Name = 
REMARK  8 active torsions:
REMARK  status: ('A' for Active; 'I' for Inactive)
REMARK    1  A    between atoms: C_1  and  O_2
REMARK    2  A    between atoms: O_2  and  C_3
REMARK    3  A    between atoms: C_9  and  C_10
REMARK    4  A    between atoms: C_10  and  C_12
REMARK    5  A    between atoms: C_15  and  N_16
REMARK    6  A    between atoms: C_17  and  C_18
REMARK    7  A    between atoms: N_19  and  C_20
REMARK    8  A    between atoms: N_19  and  C_21
REMARK                            x       y       z     vdW  Elec       q    Type
REMARK                         _______ _______ _______ _____ _____    ______ ____
ROOT
ATOM      1  C   UNL     1       3.004   5.525  19.412  0.00  0.00    +0.000 C 
ATOM      2  O   UNL     1       2.995   4.971  20.512  0.00  0.00    +0.000 OA
ENDROOT
BRANCH   1   9
ATOM      3  C   UNL     1       6.794   5.938  16.483  0.00  0.00    +0.000 A 
ATOM      4  C   UNL     1       6.719   4.969  15.479  0.00  0.00    +0.000 A 
ATOM      5  C   UNL     1       5.661   4.054  15.434  0.00  0.00    +0.000 A 
ATOM      6  C   UNL     1       4.693   4.162  16.430  0.00  0.00    +0.000 A 
ATOM      7  O   UNL     1       3.610   3.351  16.553  0.00  0.00    +0.000 OA
ATOM      8  C   UNL     1       2.932   3.766  17.652  0.00  0.00    +0.000 A 
ATOM      9  C   UNL     1       3.535   4.867  18.229  0.00  0.00    +0.000 A 
ATOM     10  C   UNL     1       4.710   5.113  17.444  0.00  0.00    +0.000 A 
ATOM     11  C   UNL     1       5.796   6.014  17.473  0.00  0.00    +0.000 A 
BRANCH   3  13
ATOM     12  C   UNL     1       7.648   7.821  17.665  0.00  0.00    +0.000 C 
ATOM     13  O   UNL     1       7.786   6.876  16.610  0.00  0.00    +0.000 OA
ENDBRANCH   3  13
ENDBRANCH   1   9
BRANCH   1  14
ATOM     14  C   UNL     1       2.417   6.886  19.301  0.00  0.00    +0.000 A 
ATOM     15  C   UNL     1       1.813   7.470  20.420  0.00  0.00    +0.000 A 
ATOM     16  C   UNL     1       1.296   8.769  20.334  0.00  0.00    +0.000 A 
ATOM     17  C   UNL     1       1.346   9.502  19.140  0.00  0.00    +0.000 A 
ATOM     18  C   UNL     1       1.832   8.847  18.004  0.00  0.00    +0.000 A 
ATOM     19  C   UNL     1       2.392   7.569  18.081  0.00  0.00    +0.000 A 
BRANCH  17  20
ATOM     20  N   UNL     1       0.817  10.801  19.155  0.00  0.00    +0.000 NA
ATOM     21  C   UNL     1      -0.429  11.133  18.943  0.00  0.00    +0.000 C 
ATOM     22  C   UNL     1      -1.538  10.131  18.653  0.00  0.00    +0.000 C 
ATOM     23  N   UNL     1      -0.800  12.475  19.001  0.00  0.00    +0.000 N 
ATOM     24  C   UNL     1       0.131  13.526  18.604  0.00  0.00    +0.000 C 
ATOM     25  C   UNL     1      -2.158  12.931  19.254  0.00  0.00    +0.000 C 
ENDBRANCH  17  20
ENDBRANCH   1  14
TORSDOF 4
ENDMDL
MODEL 2
REMARK VINA RESULT:      -7.9      3.990      8.547
REMARK  Name = 
REMARK  8 active torsions:
REMARK  status: ('A' for Active; 'I' for Inactive)
REMARK    1  A    between atoms: C_1  and  O_2
REMARK    2  A    between atoms: O_2  and  C_3
REMARK    3  A    between atoms: C_9  and  C_10
REMARK    4  A    between atoms: C_10  and  C_12
REMARK    5  A    between atoms: C_15  and  N_16
REMARK    6  A    between atoms: C_17  and  C_18
REMARK    7  A    between atoms: N_19  and  C_20
REMARK    8  A    between atoms: N_19  and  C_21
REMARK                            x       y       z     vdW  Elec       q    Type
REMARK                         _______ _______ _______ _____ _____    ______ ____
ROOT
ATOM      1  C   UNL     1       1.506  10.448  18.579  0.00  0.00    +0.000 C 
ATOM      2  O   UNL     1       2.318  11.219  18.064  0.00  0.00    +0.000 OA
ENDROOT
BRANCH   1   9
ATOM      3  C   UNL     1      -2.933  10.081  16.769  0.00  0.00    +0.000 A 
ATOM      4  C   UNL     1      -3.836  10.748  17.601  0.00  0.00    +0.000 A 
ATOM      5  C   UNL     1      -3.407  11.385  18.771  0.00  0.00    +0.000 A 
ATOM      6  C   UNL     1      -2.045  11.324  19.058  0.00  0.00    +0.000 A 
ATOM      7  O   UNL     1      -1.455  11.867  20.155  0.00  0.00    +0.000 OA
ATOM      8  C   UNL     1      -0.134  11.571  20.077  0.00  0.00    +0.000 A 
ATOM      9  C   UNL     1       0.159  10.875  18.921  0.00  0.00    +0.000 A 
ATOM     10  C   UNL     1      -1.101  10.685  18.261  0.00  0.00    +0.000 A 
ATOM     11  C   UNL     1      -1.564  10.040  17.094  0.00  0.00    +0.000 A 
BRANCH   3  13
ATOM     12  C   UNL     1      -3.182  10.189  14.403  0.00  0.00    +0.000 C 
ATOM     13  O   UNL     1      -3.255   9.431  15.606  0.00  0.00    +0.000 OA
ENDBRANCH   3  13
ENDBRANCH   1   9
BRANCH   1  14
ATOM     14  C   UNL     1       1.918   9.039  18.813  0.00  0.00    +0.000 A 
ATOM     15  C   UNL     1       2.651   8.363  17.832  0.00  0.00    +0.000 A 
ATOM     16  C   UNL     1       3.079   7.050  18.063  0.00  0.00    +0.000 A 
ATOM     17  C   UNL     1       2.770   6.376  19.253  0.00  0.00    +0.000 A 
ATOM     18  C   UNL     1       1.925   7.024  20.158  0.00  0.00    +0.000 A 
ATOM     19  C   UNL     1       1.526   8.350  19.963  0.00  0.00    +0.000 A 
BRANCH  17  20
ATOM     20  N   UNL     1       3.256   5.069  19.402  0.00  0.00    +0.000 NA
ATOM     21  C   UNL     1       2.755   3.990  18.861  0.00  0.00    +0.000 C 
ATOM     22  C   UNL     1       1.537   3.984  17.948  0.00  0.00    +0.000 C 
ATOM     23  N   UNL     1       3.361   2.757  19.100  0.00  0.00    +0.000 N 
ATOM     24  C   UNL     1       4.028   2.486  20.369  0.00  0.00    +0.000 C 
ATOM     25  C   UNL     1       3.218   1.601  18.230  0.00  0.00    +0.000 C 
ENDBRANCH  17  20
ENDBRANCH   1  14
TORSDOF 4
ENDMDL
MODEL 3
REMARK VINA RESULT:      -7.8      1.397      2.413
REMARK  Name = 
REMARK  8 active torsions:
REMARK  status: ('A' for Active; 'I' for Inactive)
REMARK    1  A    between atoms: C_1  and  O_2
REMARK    2  A    between atoms: O_2  and  C_3
REMARK    3  A    between atoms: C_9  and  C_10
REMARK    4  A    between atoms: C_10  and  C_12
REMARK    5  A    between atoms: C_15  and  N_16
REMARK    6  A    between atoms: C_17  and  C_18
REMARK    7  A    between atoms: N_19  and  C_20
REMARK    8  A    between atoms: N_19  and  C_21
REMARK                            x       y       z     vdW  Elec       q    Type
REMARK                         _______ _______ _______ _____ _____    ______ ____
ROOT
ATOM      1  C   UNL     1       2.897   5.362  18.672  0.00  0.00    +0.000 C 
ATOM      2  O   UNL     1       2.083   4.437  18.636  0.00  0.00    +0.000 OA
ENDROOT
BRANCH   1   9
ATOM      3  C   UNL     1       5.782   4.380  14.954  0.00  0.00    +0.000 A 
ATOM      4  C   UNL     1       7.102   4.273  15.399  0.00  0.00    +0.000 A 
ATOM      5  C   UNL     1       7.427   4.456  16.748  0.00  0.00    +0.000 A 
ATOM      6  C   UNL     1       6.376   4.743  17.616  0.00  0.00    +0.000 A 
ATOM      7  O   UNL     1       6.507   4.968  18.950  0.00  0.00    +0.000 OA
ATOM      8  C   UNL     1       5.265   5.232  19.427  0.00  0.00    +0.000 A 
ATOM      9  C   UNL     1       4.313   5.143  18.430  0.00  0.00    +0.000 A 
ATOM     10  C   UNL     1       5.044   4.849  17.230  0.00  0.00    +0.000 A 
ATOM     11  C   UNL     1       4.747   4.673  15.862  0.00  0.00    +0.000 A 
BRANCH   3  13
ATOM     12  C   UNL     1       6.236   3.507  12.784  0.00  0.00    +0.000 C 
ATOM     13  O   UNL     1       5.364   4.217  13.658  0.00  0.00    +0.000 OA
ENDBRANCH   3  13
ENDBRANCH   1   9
BRANCH   1  14
ATOM     14  C   UNL     1       2.394   6.737  18.934  0.00  0.00    +0.000 A 
ATOM     15  C   UNL     1       2.480   7.705  17.928  0.00  0.00    +0.000 A 
ATOM     16  C   UNL     1       1.971   8.990  18.152  0.00  0.00    +0.000 A 
ATOM     17  C   UNL     1       1.391   9.346  19.378  0.00  0.00    +0.000 A 
ATOM     18  C   UNL     1       1.439   8.404  20.409  0.00  0.00    +0.000 A 
ATOM     19  C   UNL     1       1.903   7.103  20.189  0.00  0.00    +0.000 A 
BRANCH  17  20
ATOM     20  N   UNL     1       0.893  10.651  19.504  0.00  0.00    +0.000 NA
ATOM     21  C   UNL     1      -0.329  11.042  19.258  0.00  0.00    +0.000 C 
ATOM     22  C   UNL     1      -1.442  10.111  18.795  0.00  0.00    +0.000 C 
ATOM     23  N   UNL     1      -0.672  12.381  19.440  0.00  0.00    +0.000 N 
ATOM     24  C   UNL     1       0.306  13.440  19.215  0.00  0.00    +0.000 C 
ATOM     25  C   UNL     1      -2.032  12.847  19.661  0.00  0.00    +0.000 C 
ENDBRANCH  17  20
ENDBRANCH   1  14
TORSDOF 4
ENDMDL
MODEL 4
REMARK VINA RESULT:      -7.8      2.137      4.013
REMARK  Name = 
REMARK  8 active torsions:
REMARK  status: ('A' for Active; 'I' for Inactive)
REMARK    1  A    between atoms: C_1  and  O_2
REMARK    2  A    between atoms: O_2  and  C_3
REMARK    3  A    between atoms: C_9  and  C_10
REMARK    4  A    between atoms: C_10  and  C_12
REMARK    5  A    between atoms: C_15  and  N_16
REMARK    6  A    between atoms: C_17  and  C_18
REMARK    7  A    between atoms: N_19  and  C_20
REMARK    8  A    between atoms: N_19  and  C_21
REMARK                            x       y       z     vdW  Elec       q    Type
REMARK                         _______ _______ _______ _____ _____    ______ ____
ROOT
ATOM      1  C   UNL     1       4.791   4.192  17.035  0.00  0.00    +0.000 C 
ATOM      2  O   UNL     1       4.544   3.008  17.271  0.00  0.00    +0.000 OA
ENDROOT
BRANCH   1   9
ATOM      3  C   UNL     1       5.819   3.459  12.397  0.00  0.00    +0.000 A 
ATOM      4  C   UNL     1       6.999   4.131  12.065  0.00  0.00    +0.000 A 
ATOM      5  C   UNL     1       7.692   4.887  13.017  0.00  0.00    +0.000 A 
ATOM      6  C   UNL     1       7.153   4.932  14.301  0.00  0.00    +0.000 A 
ATOM      7  O   UNL     1       7.679   5.628  15.342  0.00  0.00    +0.000 OA
ATOM      8  C   UNL     1       6.853   5.434  16.401  0.00  0.00    +0.000 A 
ATOM      9  C   UNL     1       5.813   4.584  16.078  0.00  0.00    +0.000 A 
ATOM     10  C   UNL     1       5.990   4.274  14.689  0.00  0.00    +0.000 A 
ATOM     11  C   UNL     1       5.305   3.529  13.705  0.00  0.00    +0.000 A 
BRANCH   3  13
ATOM     12  C   UNL     1       3.921   3.305  10.966  0.00  0.00    +0.000 C 
ATOM     13  O   UNL     1       5.072   2.694  11.539  0.00  0.00    +0.000 OA
ENDBRANCH   3  13
ENDBRANCH   1   9
BRANCH   1  14
ATOM     14  C   UNL     1       3.988   5.234  17.729  0.00  0.00    +0.000 A 
ATOM     15  C   UNL     1       3.140   4.865  18.779  0.00  0.00    +0.000 A 
ATOM     16  C   UNL     1       2.413   5.846  19.464  0.00  0.00    +0.000 A 
ATOM     17  C   UNL     1       2.491   7.200  19.109  0.00  0.00    +0.000 A 
ATOM     18  C   UNL     1       3.239   7.524  17.974  0.00  0.00    +0.000 A 
ATOM     19  C   UNL     1       4.006   6.565  17.306  0.00  0.00    +0.000 A 
BRANCH  17  20
ATOM     20  N   UNL     1       1.739   8.112  19.864  0.00  0.00    +0.000 NA
ATOM     21  C   UNL     1       1.094   9.152  19.405  0.00  0.00    +0.000 C 
ATOM     22  C   UNL     1       1.047   9.541  17.934  0.00  0.00    +0.000 C 
ATOM     23  N   UNL     1       0.381   9.962  20.288  0.00  0.00    +0.000 N 
ATOM     24  C   UNL     1       0.835  10.150  21.662  0.00  0.00    +0.000 C 
ATOM     25  C   UNL     1      -0.719  10.825  19.888  0.00  0.00    +0.000 C 
ENDBRANCH  17  20
ENDBRANCH   1  14
TORSDOF 4
ENDMDL
MODEL 5
REMARK VINA RESULT:      -7.8      2.216      4.163
REMARK  Name = 
REMARK  8 active torsions:
REMARK  status: ('A' for Active; 'I' for Inactive)
REMARK    1  A    between atoms: C_1  and  O_2
REMARK    2  A    between atoms: O_2  and  C_3
REMARK    3  A    between atoms: C_9  and  C_10
REMARK    4  A    between atoms: C_10  and  C_12
REMARK    5  A    between atoms: C_15  and  N_16
REMARK    6  A    between atoms: C_17  and  C_18
REMARK    7  A    between atoms: N_19  and  C_20
REMARK    8  A    between atoms: N_19  and  C_21
REMARK                            x       y       z     vdW  Elec       q    Type
REMARK                         _______ _______ _______ _____ _____    ______ ____
ROOT
ATOM      1  C   UNL     1       4.776   4.428  16.826  0.00  0.00    +0.000 C 
ATOM      2  O   UNL     1       4.563   3.284  17.232  0.00  0.00    +0.000 OA
ENDROOT
BRANCH   1   9
ATOM      3  C   UNL     1       5.700   3.386  12.224  0.00  0.00    +0.000 A 
ATOM      4  C   UNL     1       6.912   3.971  11.845  0.00  0.00    +0.000 A 
ATOM      5  C   UNL     1       7.658   4.737  12.746  0.00  0.00    +0.000 A 
ATOM      6  C   UNL     1       7.140   4.882  14.031  0.00  0.00    +0.000 A 
ATOM      7  O   UNL     1       7.717   5.604  15.027  0.00  0.00    +0.000 OA
ATOM      8  C   UNL     1       6.896   5.514  16.103  0.00  0.00    +0.000 A 
ATOM      9  C   UNL     1       5.805   4.708  15.838  0.00  0.00    +0.000 A 
ATOM     10  C   UNL     1       5.947   4.314  14.466  0.00  0.00    +0.000 A 
ATOM     11  C   UNL     1       5.208   3.557  13.532  0.00  0.00    +0.000 A 
BRANCH   3  13
ATOM     12  C   UNL     1       3.737   3.242  10.883  0.00  0.00    +0.000 C 
ATOM     13  O   UNL     1       4.901   2.620  11.417  0.00  0.00    +0.000 OA
ENDBRANCH   3  13
ENDBRANCH   1   9
BRANCH   1  14
ATOM     14  C   UNL     1       3.923   5.532  17.340  0.00  0.00    +0.000 A 
ATOM     15  C   UNL     1       4.360   6.855  17.216  0.00  0.00    +0.000 A 
ATOM     16  C   UNL     1       3.543   7.903  17.659  0.00  0.00    +0.000 A 
ATOM     17  C   UNL     1       2.296   7.660  18.254  0.00  0.00    +0.000 A 
ATOM     18  C   UNL     1       1.944   6.328  18.488  0.00  0.00    +0.000 A 
ATOM     19  C   UNL     1       2.726   5.272  18.012  0.00  0.00    +0.000 A 
BRANCH  17  20
ATOM     20  N   UNL     1       1.541   8.774  18.652  0.00  0.00    +0.000 NA
ATOM     21  C   UNL     1       1.114   9.028  19.861  0.00  0.00    +0.000 C 
ATOM     22  C   UNL     1       1.389   8.137  21.064  0.00  0.00    +0.000 C 
ATOM     23  N   UNL     1       0.378  10.188  20.098  0.00  0.00    +0.000 N 
ATOM     24  C   UNL     1      -0.498  10.741  19.071  0.00  0.00    +0.000 C 
ATOM     25  C   UNL     1       0.256  10.818  21.404  0.00  0.00    +0.000 C 
ENDBRANCH  17  20
ENDBRANCH   1  14
TORSDOF 4
ENDMDL
MODEL 6
REMARK VINA RESULT:      -7.6      1.552      1.959
REMARK  Name = 
REMARK  8 active torsions:
REMARK  status: ('A' for Active; 'I' for Inactive)
REMARK    1  A    between atoms: C_1  and  O_2
REMARK    2  A    between atoms: O_2  and  C_3
REMARK    3  A    between atoms: C_9  and  C_10
REMARK    4  A    between atoms: C_10  and  C_12
REMARK    5  A    between atoms: C_15  and  N_16
REMARK    6  A    between atoms: C_17  and  C_18
REMARK    7  A    between atoms: N_19  and  C_20
REMARK    8  A    between atoms: N_19  and  C_21
REMARK                            x       y       z     vdW  Elec       q    Type
REMARK                         _______ _______ _______ _____ _____    ______ ____
ROOT
ATOM      1  C   UNL     1       2.542   5.566  18.268  0.00  0.00    +0.000 C 
ATOM      2  O   UNL     1       1.728   4.874  17.654  0.00  0.00    +0.000 OA
ENDROOT
BRANCH   1   9
ATOM      3  C   UNL     1       7.080   7.026  17.644  0.00  0.00    +0.000 A 
ATOM      4  C   UNL     1       7.957   6.068  18.159  0.00  0.00    +0.000 A 
ATOM      5  C   UNL     1       7.478   4.898  18.758  0.00  0.00    +0.000 A 
ATOM      6  C   UNL     1       6.095   4.737  18.810  0.00  0.00    +0.000 A 
ATOM      7  O   UNL     1       5.455   3.676  19.369  0.00  0.00    +0.000 OA
ATOM      8  C   UNL     1       4.125   3.907  19.238  0.00  0.00    +0.000 A 
ATOM      9  C   UNL     1       3.883   5.088  18.562  0.00  0.00    +0.000 A 
ATOM     10  C   UNL     1       5.177   5.651  18.304  0.00  0.00    +0.000 A 
ATOM     11  C   UNL     1       5.688   6.828  17.717  0.00  0.00    +0.000 A 
BRANCH   3  13
ATOM     12  C   UNL     1       8.107   9.165  17.853  0.00  0.00    +0.000 C 
ATOM     13  O   UNL     1       7.451   8.199  17.039  0.00  0.00    +0.000 OA
ENDBRANCH   3  13
ENDBRANCH   1   9
BRANCH   1  14
ATOM     14  C   UNL     1       2.139   6.937  18.678  0.00  0.00    +0.000 A 
ATOM     15  C   UNL     1       2.131   7.965  17.729  0.00  0.00    +0.000 A 
ATOM     16  C   UNL     1       1.712   9.250  18.098  0.00  0.00    +0.000 A 
ATOM     17  C   UNL     1       1.318   9.545  19.411  0.00  0.00    +0.000 A 
ATOM     18  C   UNL     1       1.464   8.537  20.367  0.00  0.00    +0.000 A 
ATOM     19  C   UNL     1       1.837   7.238  20.008  0.00  0.00    +0.000 A 
BRANCH  17  20
ATOM     20  N   UNL     1       0.899  10.856  19.681  0.00  0.00    +0.000 NA
ATOM     21  C   UNL     1      -0.297  11.344  19.480  0.00  0.00    +0.000 C 
ATOM     22  C   UNL     1      -1.460  10.539  18.917  0.00  0.00    +0.000 C 
ATOM     23  N   UNL     1      -0.560  12.673  19.810  0.00  0.00    +0.000 N 
ATOM     24  C   UNL     1       0.481  13.689  19.704  0.00  0.00    +0.000 C 
ATOM     25  C   UNL     1      -1.891  13.193  20.082  0.00  0.00    +0.000 C 
ENDBRANCH  17  20
ENDBRANCH   1  14
TORSDOF 4
ENDMDL
MODEL 7
REMARK VINA RESULT:      -7.5      0.656      1.166
REMARK  Name = 
REMARK  8 active torsions:
REMARK  status: ('A' for Active; 'I' for Inactive)
REMARK    1  A    between atoms: C_1  and  O_2
REMARK    2  A    between atoms: O_2  and  C_3
REMARK    3  A    between atoms: C_9  and  C_10
REMARK    4  A    between atoms: C_10  and  C_12
REMARK    5  A    between atoms: C_15  and  N_16
REMARK    6  A    between atoms: C_17  and  C_18
REMARK    7  A    between atoms: N_19  and  C_20
REMARK    8  A    between atoms: N_19  and  C_21
REMARK                            x       y       z     vdW  Elec       q    Type
REMARK                         _______ _______ _______ _____ _____    ______ ____
ROOT
ATOM      1  C   UNL     1       2.538   5.097  19.405  0.00  0.00    +0.000 C 
ATOM      2  O   UNL     1       2.116   4.342  20.282  0.00  0.00    +0.000 OA
ENDROOT
BRANCH   1   9
ATOM      3  C   UNL     1       6.946   5.813  17.623  0.00  0.00    +0.000 A 
ATOM      4  C   UNL     1       7.131   5.013  16.492  0.00  0.00    +0.000 A 
ATOM      5  C   UNL     1       6.121   4.157  16.039  0.00  0.00    +0.000 A 
ATOM      6  C   UNL     1       4.931   4.147  16.764  0.00  0.00    +0.000 A 
ATOM      7  O   UNL     1       3.854   3.367  16.482  0.00  0.00    +0.000 OA
ATOM      8  C   UNL     1       2.919   3.633  17.428  0.00  0.00    +0.000 A 
ATOM      9  C   UNL     1       3.353   4.609  18.304  0.00  0.00    +0.000 A 
ATOM     10  C   UNL     1       4.688   4.929  17.888  0.00  0.00    +0.000 A 
ATOM     11  C   UNL     1       5.729   5.774  18.330  0.00  0.00    +0.000 A 
BRANCH   3  13
ATOM     12  C   UNL     1       7.835   8.023  17.664  0.00  0.00    +0.000 C 
ATOM     13  O   UNL     1       7.870   6.682  18.142  0.00  0.00    +0.000 OA
ENDBRANCH   3  13
ENDBRANCH   1   9
BRANCH   1  14
ATOM     14  C   UNL     1       2.162   6.534  19.467  0.00  0.00    +0.000 A 
ATOM     15  C   UNL     1       2.353   7.346  18.344  0.00  0.00    +0.000 A 
ATOM     16  C   UNL     1       1.962   8.690  18.381  0.00  0.00    +0.000 A 
ATOM     17  C   UNL     1       1.400   9.260  19.533  0.00  0.00    +0.000 A 
ATOM     18  C   UNL     1       1.344   8.465  20.681  0.00  0.00    +0.000 A 
ATOM     19  C   UNL     1       1.688   7.110  20.649  0.00  0.00    +0.000 A 
BRANCH  17  20
ATOM     20  N   UNL     1       1.024  10.609  19.470  0.00  0.00    +0.000 NA
ATOM     21  C   UNL     1      -0.158  11.071  19.158  0.00  0.00    +0.000 C 
ATOM     22  C   UNL     1      -1.353  10.190  18.818  0.00  0.00    +0.000 C 
ATOM     23  N   UNL     1      -0.376  12.448  19.148  0.00  0.00    +0.000 N 
ATOM     24  C   UNL     1       0.694  13.372  18.788  0.00  0.00    +0.000 C 
ATOM     25  C   UNL     1      -1.687  13.063  19.288  0.00  0.00    +0.000 C 
ENDBRANCH  17  20
ENDBRANCH   1  14
TORSDOF 4
ENDMDL
MODEL 8
REMARK VINA RESULT:      -7.3      3.854      8.701
REMARK  Name = 
REMARK  8 active torsions:
REMARK  status: ('A' for Active; 'I' for Inactive)
REMARK    1  A    between atoms: C_1  and  O_2
REMARK    2  A    between atoms: O_2  and  C_3
REMARK    3  A    between atoms: C_9  and  C_10
REMARK    4  A    between atoms: C_10  and  C_12
REMARK    5  A    between atoms: C_15  and  N_16
REMARK    6  A    between atoms: C_17  and  C_18
REMARK    7  A    between atoms: N_19  and  C_20
REMARK    8  A    between atoms: N_19  and  C_21
REMARK                            x       y       z     vdW  Elec       q    Type
REMARK                         _______ _______ _______ _____ _____    ______ ____
ROOT
ATOM      1  C   UNL     1       1.512  10.542  18.606  0.00  0.00    +0.000 C 
ATOM      2  O   UNL     1       2.344  11.226  18.007  0.00  0.00    +0.000 OA
ENDROOT
BRANCH   1   9
ATOM      3  C   UNL     1      -3.124  10.810  17.364  0.00  0.00    +0.000 A 
ATOM      4  C   UNL     1      -3.825  11.547  18.323  0.00  0.00    +0.000 A 
ATOM      5  C   UNL     1      -3.178  12.073  19.446  0.00  0.00    +0.000 A 
ATOM      6  C   UNL     1      -1.811  11.831  19.556  0.00  0.00    +0.000 A 
ATOM      7  O   UNL     1      -1.026  12.247  20.585  0.00  0.00    +0.000 OA
ATOM      8  C   UNL     1       0.226  11.793  20.332  0.00  0.00    +0.000 A 
ATOM      9  C   UNL     1       0.284  11.118  19.128  0.00  0.00    +0.000 A 
ATOM     10  C   UNL     1      -1.061  11.115  18.628  0.00  0.00    +0.000 A 
ATOM     11  C   UNL     1      -1.743  10.585  17.512  0.00  0.00    +0.000 A 
BRANCH   3  13
ATOM     12  C   UNL     1      -2.912  10.375  15.032  0.00  0.00    +0.000 C 
ATOM     13  O   UNL     1      -3.667  10.259  16.233  0.00  0.00    +0.000 OA
ENDBRANCH   3  13
ENDBRANCH   1   9
BRANCH   1  14
ATOM     14  C   UNL     1       1.770   9.086  18.756  0.00  0.00    +0.000 A 
ATOM     15  C   UNL     1       1.630   8.487  20.013  0.00  0.00    +0.000 A 
ATOM     16  C   UNL     1       1.830   7.108  20.153  0.00  0.00    +0.000 A 
ATOM     17  C   UNL     1       2.193   6.304  19.063  0.00  0.00    +0.000 A 
ATOM     18  C   UNL     1       2.457   6.946  17.851  0.00  0.00    +0.000 A 
ATOM     19  C   UNL     1       2.220   8.314  17.682  0.00  0.00    +0.000 A 
BRANCH  17  20
ATOM     20  N   UNL     1       2.355   4.930  19.298  0.00  0.00    +0.000 NA
ATOM     21  C   UNL     1       3.490   4.290  19.397  0.00  0.00    +0.000 C 
ATOM     22  C   UNL     1       4.855   4.956  19.284  0.00  0.00    +0.000 C 
ATOM     23  N   UNL     1       3.484   2.917  19.641  0.00  0.00    +0.000 N 
ATOM     24  C   UNL     1       2.411   2.072  19.129  0.00  0.00    +0.000 C 
ATOM     25  C   UNL     1       4.601   2.192  20.226  0.00  0.00    +0.000 C 
ENDBRANCH  17  20
ENDBRANCH   1  14
TORSDOF 4
ENDMDL
MODEL 9
REMARK VINA RESULT:      -7.3      1.805      2.489
REMARK  Name = 
REMARK  8 active torsions:
REMARK  status: ('A' for Active; 'I' for Inactive)
REMARK    1  A    between atoms: C_1  and  O_2
REMARK    2  A    between atoms: O_2  and  C_3
REMARK    3  A    between atoms: C_9  and  C_10
REMARK    4  A    between atoms: C_10  and  C_12
REMARK    5  A    between atoms: C_15  and  N_16
REMARK    6  A    between atoms: C_17  and  C_18
REMARK    7  A    between atoms: N_19  and  C_20
REMARK    8  A    between atoms: N_19  and  C_21
REMARK                            x       y       z     vdW  Elec       q    Type
REMARK                         _______ _______ _______ _____ _____    ______ ____
ROOT
ATOM      1  C   UNL     1       2.652   5.743  18.306  0.00  0.00    +0.000 C 
ATOM      2  O   UNL     1       1.838   4.925  17.872  0.00  0.00    +0.000 OA
ENDROOT
BRANCH   1   9
ATOM      3  C   UNL     1       6.510   5.045  15.523  0.00  0.00    +0.000 A 
ATOM      4  C   UNL     1       7.612   4.724  16.320  0.00  0.00    +0.000 A 
ATOM      5  C   UNL     1       7.501   4.655  17.713  0.00  0.00    +0.000 A 
ATOM      6  C   UNL     1       6.246   4.917  18.259  0.00  0.00    +0.000 A 
ATOM      7  O   UNL     1       5.959   4.913  19.587  0.00  0.00    +0.000 OA
ATOM      8  C   UNL     1       4.647   5.235  19.705  0.00  0.00    +0.000 A 
ATOM      9  C   UNL     1       4.058   5.409  18.468  0.00  0.00    +0.000 A 
ATOM     10  C   UNL     1       5.114   5.229  17.514  0.00  0.00    +0.000 A 
ATOM     11  C   UNL     1       5.258   5.304  16.112  0.00  0.00    +0.000 A 
BRANCH   3  13
ATOM     12  C   UNL     1       6.287   3.933  13.428  0.00  0.00    +0.000 C 
ATOM     13  O   UNL     1       6.517   5.135  14.155  0.00  0.00    +0.000 OA
ENDBRANCH   3  13
ENDBRANCH   1   9
BRANCH   1  14
ATOM     14  C   UNL     1       2.174   7.112  18.630  0.00  0.00    +0.000 A 
ATOM     15  C   UNL     1       1.850   7.435  19.952  0.00  0.00    +0.000 A 
ATOM     16  C   UNL     1       1.439   8.735  20.272  0.00  0.00    +0.000 A 
ATOM     17  C   UNL     1       1.319   9.729  19.290  0.00  0.00    +0.000 A 
ATOM     18  C   UNL     1       1.517   9.346  17.961  0.00  0.00    +0.000 A 
ATOM     19  C   UNL     1       1.970   8.066  17.629  0.00  0.00    +0.000 A 
BRANCH  17  20
ATOM     20  N   UNL     1       0.916  11.006  19.708  0.00  0.00    +0.000 NA
ATOM     21  C   UNL     1       1.390  12.146  19.281  0.00  0.00    +0.000 C 
ATOM     22  C   UNL     1       2.476  12.272  18.221  0.00  0.00    +0.000 C 
ATOM     23  N   UNL     1       0.877  13.337  19.793  0.00  0.00    +0.000 N 
ATOM     24  C   UNL     1       0.397  13.415  21.168  0.00  0.00    +0.000 C 
ATOM     25  C   UNL     1       0.956  14.617  19.104  0.00  0.00    +0.000 C 
ENDBRANCH  17  20
ENDBRANCH   1  14
TORSDOF 4
ENDMDL
