MODEL 1
REMARK VINA RESULT:      -5.4      0.000      0.000
REMARK  Name = 
REMARK  6 active torsions:
REMARK  status: ('A' for Active; 'I' for Inactive)
REMARK    1  A    between atoms: C_1  and  C_2
REMARK    2  A    between atoms: C_4  and  C_5
REMARK    3  A    between atoms: C_5  and  N_6
REMARK    4  A    between atoms: N_6  and  C_7
REMARK    5  A    between atoms: N_6  and  C_8
REMARK    6  A    between atoms: N_6  and  C_9
REMARK                            x       y       z     vdW  Elec       q    Type
REMARK                         _______ _______ _______ _____ _____    ______ ____
ROOT
ATOM      1  C   UNL     1       7.772   6.709  18.393  0.00  0.00    +0.000 C 
ATOM      2  C   UNL     1       7.613   5.201  18.354  0.00  0.00    +0.000 C 
ATOM      3  O   UNL     1       6.623   4.845  19.334  0.00  0.00    +0.000 OA
ATOM      4  C   UNL     1       5.411   4.400  18.702  0.00  0.00    +0.000 C 
ATOM      5  C   UNL     1       5.512   4.678  17.208  0.00  0.00    +0.000 C 
ATOM      6  C   UNL     1       6.988   4.752  17.069  0.00  0.00    +0.000 C 
ATOM      7  O   UNL     1       7.588   4.565  16.019  0.00  0.00    +0.000 OA
ENDROOT
BRANCH   4   8
ATOM      8  C   UNL     1       4.206   5.124  19.341  0.00  0.00    +0.000 C 
BRANCH   8   9
ATOM      9  N   UNL     1       2.994   4.208  19.677  0.00  0.00    +0.000 N 
ATOM     10  C   UNL     1       2.235   4.715  20.894  0.00  0.00    +0.000 C 
ATOM     11  C   UNL     1       2.024   4.083  18.499  0.00  0.00    +0.000 C 
ATOM     12  C   UNL     1       3.535   2.810  19.983  0.00  0.00    +0.000 C 
ENDBRANCH   8   9
ENDBRANCH   4   8
TORSDOF 2
ENDMDL
MODEL 2
REMARK VINA RESULT:      -5.4      0.723      1.363
REMARK  Name = 
REMARK  6 active torsions:
REMARK  status: ('A' for Active; 'I' for Inactive)
REMARK    1  A    between atoms: C_1  and  C_2
REMARK    2  A    between atoms: C_4  and  C_5
REMARK    3  A    between atoms: C_5  and  N_6
REMARK    4  A    between atoms: N_6  and  C_7
REMARK    5  A    between atoms: N_6  and  C_8
REMARK    6  A    between atoms: N_6  and  C_9
REMARK                            x       y       z     vdW  Elec       q    Type
REMARK                         _______ _______ _______ _____ _____    ______ ____
ROOT
ATOM      1  C   UNL     1       7.741   7.118  18.163  0.00  0.00    +0.000 C 
ATOM      2  C   UNL     1       7.688   5.729  18.770  0.00  0.00    +0.000 C 
ATOM      3  O   UNL     1       6.576   5.696  19.681  0.00  0.00    +0.000 OA
ATOM      4  C   UNL     1       5.515   4.872  19.168  0.00  0.00    +0.000 C 
ATOM      5  C   UNL     1       5.842   4.503  17.727  0.00  0.00    +0.000 C 
ATOM      6  C   UNL     1       7.313   4.701  17.747  0.00  0.00    +0.000 C 
ATOM      7  O   UNL     1       8.087   4.166  16.965  0.00  0.00    +0.000 OA
ENDROOT
BRANCH   4   8
ATOM      8  C   UNL     1       4.177   5.637  19.276  0.00  0.00    +0.000 C 
BRANCH   8   9
ATOM      9  N   UNL     1       2.929   4.741  19.518  0.00  0.00    +0.000 N 
ATOM     10  C   UNL     1       3.323   3.371  20.048  0.00  0.00    +0.000 C 
ATOM     11  C   UNL     1       1.938   5.387  20.489  0.00  0.00    +0.000 C 
ATOM     12  C   UNL     1       2.214   4.562  18.177  0.00  0.00    +0.000 C 
ENDBRANCH   8   9
ENDBRANCH   4   8
TORSDOF 2
ENDMDL
MODEL 3
REMARK VINA RESULT:      -5.4      1.079      1.751
REMARK  Name = 
REMARK  6 active torsions:
REMARK  status: ('A' for Active; 'I' for Inactive)
REMARK    1  A    between atoms: C_1  and  C_2
REMARK    2  A    between atoms: C_4  and  C_5
REMARK    3  A    between atoms: C_5  and  N_6
REMARK    4  A    between atoms: N_6  and  C_7
REMARK    5  A    between atoms: N_6  and  C_8
REMARK    6  A    between atoms: N_6  and  C_9
REMARK                            x       y       z     vdW  Elec       q    Type
REMARK                         _______ _______ _______ _____ _____    ______ ____
ROOT
ATOM      1  C   UNL     1       7.742   6.171  18.649  0.00  0.00    +0.000 C 
ATOM      2  C   UNL     1       7.481   4.931  17.815  0.00  0.00    +0.000 C 
ATOM      3  O   UNL     1       6.417   4.199  18.448  0.00  0.00    +0.000 OA
ATOM      4  C   UNL     1       5.213   4.263  17.664  0.00  0.00    +0.000 C 
ATOM      5  C   UNL     1       5.414   5.278  16.546  0.00  0.00    +0.000 C 
ATOM      6  C   UNL     1       6.897   5.284  16.481  0.00  0.00    +0.000 C 
ATOM      7  O   UNL     1       7.539   5.627  15.497  0.00  0.00    +0.000 OA
ENDROOT
BRANCH   4   8
ATOM      8  C   UNL     1       4.028   4.644  18.579  0.00  0.00    +0.000 C 
BRANCH   8   9
ATOM      9  N   UNL     1       2.881   3.594  18.635  0.00  0.00    +0.000 N 
ATOM     10  C   UNL     1       3.290   2.287  17.973  0.00  0.00    +0.000 C 
ATOM     11  C   UNL     1       2.432   3.309  20.070  0.00  0.00    +0.000 C 
ATOM     12  C   UNL     1       1.681   4.172  17.880  0.00  0.00    +0.000 C 
ENDBRANCH   8   9
ENDBRANCH   4   8
TORSDOF 2
ENDMDL
MODEL 4
REMARK VINA RESULT:      -5.3      1.003      1.358
REMARK  Name = 
REMARK  6 active torsions:
REMARK  status: ('A' for Active; 'I' for Inactive)
REMARK    1  A    between atoms: C_1  and  C_2
REMARK    2  A    between atoms: C_4  and  C_5
REMARK    3  A    between atoms: C_5  and  N_6
REMARK    4  A    between atoms: N_6  and  C_7
REMARK    5  A    between atoms: N_6  and  C_8
REMARK    6  A    between atoms: N_6  and  C_9
REMARK                            x       y       z     vdW  Elec       q    Type
REMARK                         _______ _______ _______ _____ _____    ______ ____
ROOT
ATOM      1  C   UNL     1       7.562   6.331  18.266  0.00  0.00    +0.000 C 
ATOM      2  C   UNL     1       7.433   4.879  17.845  0.00  0.00    +0.000 C 
ATOM      3  O   UNL     1       6.357   4.302  18.604  0.00  0.00    +0.000 OA
ATOM      4  C   UNL     1       5.220   4.035  17.763  0.00  0.00    +0.000 C 
ATOM      5  C   UNL     1       5.466   4.669  16.400  0.00  0.00    +0.000 C 
ATOM      6  C   UNL     1       6.947   4.763  16.433  0.00  0.00    +0.000 C 
ATOM      7  O   UNL     1       7.651   4.832  15.435  0.00  0.00    +0.000 OA
ENDROOT
BRANCH   4   8
ATOM      8  C   UNL     1       3.946   4.592  18.435  0.00  0.00    +0.000 C 
BRANCH   8   9
ATOM      9  N   UNL     1       2.823   3.542  18.679  0.00  0.00    +0.000 N 
ATOM     10  C   UNL     1       1.505   3.986  18.063  0.00  0.00    +0.000 C 
ATOM     11  C   UNL     1       3.194   2.164  18.127  0.00  0.00    +0.000 C 
ATOM     12  C   UNL     1       2.636   3.401  20.191  0.00  0.00    +0.000 C 
ENDBRANCH   8   9
ENDBRANCH   4   8
TORSDOF 2
ENDMDL
MODEL 5
REMARK VINA RESULT:      -5.3      0.501      1.312
REMARK  Name = 
REMARK  6 active torsions:
REMARK  status: ('A' for Active; 'I' for Inactive)
REMARK    1  A    between atoms: C_1  and  C_2
REMARK    2  A    between atoms: C_4  and  C_5
REMARK    3  A    between atoms: C_5  and  N_6
REMARK    4  A    between atoms: N_6  and  C_7
REMARK    5  A    between atoms: N_6  and  C_8
REMARK    6  A    between atoms: N_6  and  C_9
REMARK                            x       y       z     vdW  Elec       q    Type
REMARK                         _______ _______ _______ _____ _____    ______ ____
ROOT
ATOM      1  C   UNL     1       7.605   7.158  17.948  0.00  0.00    +0.000 C 
ATOM      2  C   UNL     1       7.649   5.726  18.446  0.00  0.00    +0.000 C 
ATOM      3  O   UNL     1       6.630   5.585  19.450  0.00  0.00    +0.000 OA
ATOM      4  C   UNL     1       5.548   4.765  18.973  0.00  0.00    +0.000 C 
ATOM      5  C   UNL     1       5.746   4.518  17.483  0.00  0.00    +0.000 C 
ATOM      6  C   UNL     1       7.207   4.766  17.383  0.00  0.00    +0.000 C 
ATOM      7  O   UNL     1       7.918   4.320  16.493  0.00  0.00    +0.000 OA
ENDROOT
BRANCH   4   8
ATOM      8  C   UNL     1       4.206   5.472  19.264  0.00  0.00    +0.000 C 
BRANCH   8   9
ATOM      9  N   UNL     1       2.994   4.517  19.466  0.00  0.00    +0.000 N 
ATOM     10  C   UNL     1       2.041   4.571  18.282  0.00  0.00    +0.000 C 
ATOM     11  C   UNL     1       3.434   3.069  19.689  0.00  0.00    +0.000 C 
ATOM     12  C   UNL     1       2.244   4.972  20.720  0.00  0.00    +0.000 C 
ENDBRANCH   8   9
ENDBRANCH   4   8
TORSDOF 2
ENDMDL
MODEL 6
REMARK VINA RESULT:      -5.0      2.666      5.359
REMARK  Name = 
REMARK  6 active torsions:
REMARK  status: ('A' for Active; 'I' for Inactive)
REMARK    1  A    between atoms: C_1  and  C_2
REMARK    2  A    between atoms: C_4  and  C_5
REMARK    3  A    between atoms: C_5  and  N_6
REMARK    4  A    between atoms: N_6  and  C_7
REMARK    5  A    between atoms: N_6  and  C_8
REMARK    6  A    between atoms: N_6  and  C_9
REMARK                            x       y       z     vdW  Elec       q    Type
REMARK                         _______ _______ _______ _____ _____    ______ ____
ROOT
ATOM      1  C   UNL     1       0.666   2.336  18.944  0.00  0.00    +0.000 C 
ATOM      2  C   UNL     1       1.949   2.205  19.743  0.00  0.00    +0.000 C 
ATOM      3  O   UNL     1       2.995   2.843  18.991  0.00  0.00    +0.000 OA
ATOM      4  C   UNL     1       3.416   4.062  19.628  0.00  0.00    +0.000 C 
ATOM      5  C   UNL     1       2.447   4.377  20.761  0.00  0.00    +0.000 C 
ATOM      6  C   UNL     1       1.894   3.020  20.999  0.00  0.00    +0.000 C 
ATOM      7  O   UNL     1       1.380   2.665  22.051  0.00  0.00    +0.000 OA
ENDROOT
BRANCH   4   8
ATOM      8  C   UNL     1       3.462   5.196  18.580  0.00  0.00    +0.000 C 
BRANCH   8   9
ATOM      9  N   UNL     1       4.849   5.410  17.909  0.00  0.00    +0.000 N 
ATOM     10  C   UNL     1       5.117   4.362  16.839  0.00  0.00    +0.000 C 
ATOM     11  C   UNL     1       4.979   6.803  17.288  0.00  0.00    +0.000 C 
ATOM     12  C   UNL     1       5.919   5.286  18.996  0.00  0.00    +0.000 C 
ENDBRANCH   8   9
ENDBRANCH   4   8
TORSDOF 2
ENDMDL
MODEL 7
REMARK VINA RESULT:      -5.0      2.780      5.178
REMARK  Name = 
REMARK  6 active torsions:
REMARK  status: ('A' for Active; 'I' for Inactive)
REMARK    1  A    between atoms: C_1  and  C_2
REMARK    2  A    between atoms: C_4  and  C_5
REMARK    3  A    between atoms: C_5  and  N_6
REMARK    4  A    between atoms: N_6  and  C_7
REMARK    5  A    between atoms: N_6  and  C_8
REMARK    6  A    between atoms: N_6  and  C_9
REMARK                            x       y       z     vdW  Elec       q    Type
REMARK                         _______ _______ _______ _____ _____    ______ ____
ROOT
ATOM      1  C   UNL     1       2.082   2.769  21.374  0.00  0.00    +0.000 C 
ATOM      2  C   UNL     1       1.610   3.620  20.211  0.00  0.00    +0.000 C 
ATOM      3  O   UNL     1       2.729   4.403  19.764  0.00  0.00    +0.000 OA
ATOM      4  C   UNL     1       3.194   3.950  18.480  0.00  0.00    +0.000 C 
ATOM      5  C   UNL     1       2.484   2.646  18.140  0.00  0.00    +0.000 C 
ATOM      6  C   UNL     1       1.291   2.778  19.014  0.00  0.00    +0.000 C 
ATOM      7  O   UNL     1       0.232   2.194  18.821  0.00  0.00    +0.000 OA
ENDROOT
BRANCH   4   8
ATOM      8  C   UNL     1       4.727   3.774  18.524  0.00  0.00    +0.000 C 
BRANCH   8   9
ATOM      9  N   UNL     1       5.517   4.657  17.515  0.00  0.00    +0.000 N 
ATOM     10  C   UNL     1       4.943   6.063  17.439  0.00  0.00    +0.000 C 
ATOM     11  C   UNL     1       7.004   4.742  17.866  0.00  0.00    +0.000 C 
ATOM     12  C   UNL     1       5.403   4.004  16.135  0.00  0.00    +0.000 C 
ENDBRANCH   8   9
ENDBRANCH   4   8
TORSDOF 2
ENDMDL
MODEL 8
REMARK VINA RESULT:      -4.9      2.669      5.371
REMARK  Name = 
REMARK  6 active torsions:
REMARK  status: ('A' for Active; 'I' for Inactive)
REMARK    1  A    between atoms: C_1  and  C_2
REMARK    2  A    between atoms: C_4  and  C_5
REMARK    3  A    between atoms: C_5  and  N_6
REMARK    4  A    between atoms: N_6  and  C_7
REMARK    5  A    between atoms: N_6  and  C_8
REMARK    6  A    between atoms: N_6  and  C_9
REMARK                            x       y       z     vdW  Elec       q    Type
REMARK                         _______ _______ _______ _____ _____    ______ ____
ROOT
ATOM      1  C   UNL     1       0.653   2.345  18.950  0.00  0.00    +0.000 C 
ATOM      2  C   UNL     1       1.939   2.200  19.741  0.00  0.00    +0.000 C 
ATOM      3  O   UNL     1       2.988   2.825  18.982  0.00  0.00    +0.000 OA
ATOM      4  C   UNL     1       3.427   4.039  19.615  0.00  0.00    +0.000 C 
ATOM      5  C   UNL     1       2.469   4.367  20.754  0.00  0.00    +0.000 C 
ATOM      6  C   UNL     1       1.902   3.016  20.997  0.00  0.00    +0.000 C 
ATOM      7  O   UNL     1       1.390   2.668  22.052  0.00  0.00    +0.000 OA
ENDROOT
BRANCH   4   8
ATOM      8  C   UNL     1       3.480   5.172  18.566  0.00  0.00    +0.000 C 
BRANCH   8   9
ATOM      9  N   UNL     1       4.886   5.429  17.951  0.00  0.00    +0.000 N 
ATOM     10  C   UNL     1       4.965   6.801  17.300  0.00  0.00    +0.000 C 
ATOM     11  C   UNL     1       6.000   5.305  18.994  0.00  0.00    +0.000 C 
ATOM     12  C   UNL     1       5.131   4.362  16.882  0.00  0.00    +0.000 C 
ENDBRANCH   8   9
ENDBRANCH   4   8
TORSDOF 2
ENDMDL
MODEL 9
REMARK VINA RESULT:      -4.9      1.656      2.016
REMARK  Name = 
REMARK  6 active torsions:
REMARK  status: ('A' for Active; 'I' for Inactive)
REMARK    1  A    between atoms: C_1  and  C_2
REMARK    2  A    between atoms: C_4  and  C_5
REMARK    3  A    between atoms: C_5  and  N_6
REMARK    4  A    between atoms: N_6  and  C_7
REMARK    5  A    between atoms: N_6  and  C_8
REMARK    6  A    between atoms: N_6  and  C_9
REMARK                            x       y       z     vdW  Elec       q    Type
REMARK                         _______ _______ _______ _____ _____    ______ ____
ROOT
ATOM      1  C   UNL     1       7.144   4.612  16.840  0.00  0.00    +0.000 C 
ATOM      2  C   UNL     1       5.766   4.586  16.208  0.00  0.00    +0.000 C 
ATOM      3  O   UNL     1       4.876   3.940  17.134  0.00  0.00    +0.000 OA
ATOM      4  C   UNL     1       3.953   4.884  17.704  0.00  0.00    +0.000 C 
ATOM      5  C   UNL     1       4.385   6.288  17.303  0.00  0.00    +0.000 C 
ATOM      6  C   UNL     1       5.191   5.966  16.098  0.00  0.00    +0.000 C 
ATOM      7  O   UNL     1       5.424   6.759  15.197  0.00  0.00    +0.000 OA
ENDROOT
BRANCH   4   8
ATOM      8  C   UNL     1       3.925   4.708  19.238  0.00  0.00    +0.000 C 
BRANCH   8   9
ATOM      9  N   UNL     1       2.626   4.058  19.799  0.00  0.00    +0.000 N 
ATOM     10  C   UNL     1       1.965   4.948  20.840  0.00  0.00    +0.000 C 
ATOM     11  C   UNL     1       1.616   3.746  18.692  0.00  0.00    +0.000 C 
ATOM     12  C   UNL     1       3.014   2.734  20.460  0.00  0.00    +0.000 C 
ENDBRANCH   8   9
ENDBRANCH   4   8
TORSDOF 2
ENDMDL
