MODEL 1
REMARK VINA RESULT:      -8.3      0.000      0.000
REMARK  Name = 
REMARK  9 active torsions:
REMARK  status: ('A' for Active; 'I' for Inactive)
REMARK    1  A    between atoms: C_1  and  O_2
REMARK    2  A    between atoms: O_2  and  C_3
REMARK    3  A    between atoms: C_6  and  C_7
REMARK    4  A    between atoms: C_9  and  C_10
REMARK    5  A    between atoms: C_15  and  O_16
REMARK    6  A    between atoms: N_17  and  C_18
REMARK    7  A    between atoms: C_21  and  S_22
REMARK    8  A    between atoms: S_22  and  N_23
REMARK    9  A    between atoms: C_29  and  O_30
REMARK                            x       y       z     vdW  Elec       q    Type
REMARK                         _______ _______ _______ _____ _____    ______ ____
ROOT
ATOM      1  C   UNL     1       1.265   7.961  20.680  0.00  0.00    +0.000 A 
ATOM      2  N   UNL     1       0.685   6.713  20.744  0.00  0.00    +0.000 NA
ATOM      3  C   UNL     1       1.568   5.902  20.170  0.00  0.00    +0.000 A 
ATOM      4  N   UNL     1       2.597   6.697  19.663  0.00  0.00    +0.000 N 
ATOM      5  N   UNL     1       2.484   7.956  20.134  0.00  0.00    +0.000 NA
ENDROOT
BRANCH   1   9
ATOM      6  C   UNL     1      -0.594  11.524  22.187  0.00  0.00    +0.000 A 
ATOM      7  C   UNL     1      -0.640  10.330  22.904  0.00  0.00    +0.000 A 
ATOM      8  C   UNL     1      -0.048   9.172  22.392  0.00  0.00    +0.000 A 
ATOM      9  C   UNL     1       0.613   9.182  21.153  0.00  0.00    +0.000 A 
ATOM     10  C   UNL     1       0.644  10.386  20.436  0.00  0.00    +0.000 A 
ATOM     11  C   UNL     1       0.042  11.547  20.945  0.00  0.00    +0.000 A 
BRANCH   6  13
ATOM     12  C   UNL     1      -2.519  12.377  23.292  0.00  0.00    +0.000 C 
ATOM     13  O   UNL     1      -1.196  12.578  22.816  0.00  0.00    +0.000 OA
ENDBRANCH   6  13
BRANCH  10  14
ATOM     14  O   UNL     1       1.267  10.512  19.221  0.00  0.00    +0.000 OA
ATOM     15  H   UNL     1       1.987   9.842  19.174  0.00  0.00    +0.000 HD
ENDBRANCH  10  14
ENDBRANCH   1   9
BRANCH   3  16
ATOM     16  C   UNL     1       1.527   4.416  20.166  0.00  0.00    +0.000 A 
ATOM     17  C   UNL     1       1.673   3.684  21.365  0.00  0.00    +0.000 A 
ATOM     18  C   UNL     1       1.736   2.289  21.382  0.00  0.00    +0.000 A 
ATOM     19  C   UNL     1       1.558   1.577  20.203  0.00  0.00    +0.000 A 
ATOM     20  C   UNL     1       1.325   2.266  19.014  0.00  0.00    +0.000 A 
ATOM     21  C   UNL     1       1.323   3.668  18.994  0.00  0.00    +0.000 A 
BRANCH  21  22
ATOM     22  O   UNL     1       1.137   4.305  17.797  0.00  0.00    +0.000 OA
ATOM     23  H   UNL     1       0.214   4.602  17.735  0.00  0.00    +0.000 HD
ENDBRANCH  21  22
ENDBRANCH   3  16
BRANCH   4  24
ATOM     24  C   UNL     1       3.692   6.378  18.821  0.00  0.00    +0.000 A 
ATOM     25  C   UNL     1       3.785   6.899  17.523  0.00  0.00    +0.000 A 
ATOM     26  C   UNL     1       4.793   6.448  16.669  0.00  0.00    +0.000 A 
ATOM     27  C   UNL     1       5.722   5.511  17.131  0.00  0.00    +0.000 A 
ATOM     28  C   UNL     1       5.668   5.030  18.440  0.00  0.00    +0.000 A 
ATOM     29  C   UNL     1       4.665   5.482  19.295  0.00  0.00    +0.000 A 
BRANCH  27  30
ATOM     30  S   UNL     1       6.955   4.902  16.028  0.00  0.00    +0.000 S 
ATOM     31  O   UNL     1       6.390   3.855  15.205  0.00  0.00    +0.000 OA
ATOM     32  O   UNL     1       7.687   6.013  15.471  0.00  0.00    +0.000 OA
BRANCH  30  33
ATOM     33  N   UNL     1       8.001   4.141  17.098  0.00  0.00    +0.000 NA
ATOM     34  H   UNL     1       8.848   4.697  17.219  0.00  0.00    +0.000 HD
ATOM     35  H   UNL     1       7.515   3.918  17.968  0.00  0.00    +0.000 HD
ENDBRANCH  30  33
ENDBRANCH  27  30
ENDBRANCH   4  24
TORSDOF 8
ENDMDL
MODEL 2
REMARK VINA RESULT:      -7.9      0.865      1.213
REMARK  Name = 
REMARK  9 active torsions:
REMARK  status: ('A' for Active; 'I' for Inactive)
REMARK    1  A    between atoms: C_1  and  O_2
REMARK    2  A    between atoms: O_2  and  C_3
REMARK    3  A    between atoms: C_6  and  C_7
REMARK    4  A    between atoms: C_9  and  C_10
REMARK    5  A    between atoms: C_15  and  O_16
REMARK    6  A    between atoms: N_17  and  C_18
REMARK    7  A    between atoms: C_21  and  S_22
REMARK    8  A    between atoms: S_22  and  N_23
REMARK    9  A    between atoms: C_29  and  O_30
REMARK                            x       y       z     vdW  Elec       q    Type
REMARK                         _______ _______ _______ _____ _____    ______ ____
ROOT
ATOM      1  C   UNL     1       1.225   7.883  20.761  0.00  0.00    +0.000 A 
ATOM      2  N   UNL     1       0.636   6.637  20.748  0.00  0.00    +0.000 NA
ATOM      3  C   UNL     1       1.522   5.852  20.143  0.00  0.00    +0.000 A 
ATOM      4  N   UNL     1       2.564   6.666  19.696  0.00  0.00    +0.000 N 
ATOM      5  N   UNL     1       2.452   7.899  20.233  0.00  0.00    +0.000 NA
ENDROOT
BRANCH   1   9
ATOM      6  C   UNL     1      -0.635  11.371  22.434  0.00  0.00    +0.000 A 
ATOM      7  C   UNL     1      -0.700  10.139  23.082  0.00  0.00    +0.000 A 
ATOM      8  C   UNL     1      -0.108   9.006  22.516  0.00  0.00    +0.000 A 
ATOM      9  C   UNL     1       0.573   9.080  21.290  0.00  0.00    +0.000 A 
ATOM     10  C   UNL     1       0.625  10.322  20.642  0.00  0.00    +0.000 A 
ATOM     11  C   UNL     1       0.023  11.458  21.205  0.00  0.00    +0.000 A 
BRANCH   6  13
ATOM     12  C   UNL     1      -2.617  12.238  23.419  0.00  0.00    +0.000 C 
ATOM     13  O   UNL     1      -1.239  12.393  23.111  0.00  0.00    +0.000 OA
ENDBRANCH   6  13
BRANCH  10  14
ATOM     14  O   UNL     1       1.269  10.510  19.447  0.00  0.00    +0.000 OA
ATOM     15  H   UNL     1       1.688  11.401  19.460  0.00  0.00    +0.000 HD
ENDBRANCH  10  14
ENDBRANCH   1   9
BRANCH   3  16
ATOM     16  C   UNL     1       1.472   4.369  20.057  0.00  0.00    +0.000 A 
ATOM     17  C   UNL     1       1.031   3.726  18.881  0.00  0.00    +0.000 A 
ATOM     18  C   UNL     1       0.881   2.339  18.801  0.00  0.00    +0.000 A 
ATOM     19  C   UNL     1       1.262   1.543  19.874  0.00  0.00    +0.000 A 
ATOM     20  C   UNL     1       1.784   2.140  21.021  0.00  0.00    +0.000 A 
ATOM     21  C   UNL     1       1.874   3.536  21.115  0.00  0.00    +0.000 A 
BRANCH  21  22
ATOM     22  O   UNL     1       2.349   4.083  22.276  0.00  0.00    +0.000 OA
ATOM     23  H   UNL     1       2.557   3.370  22.902  0.00  0.00    +0.000 HD
ENDBRANCH  21  22
ENDBRANCH   3  16
BRANCH   4  24
ATOM     24  C   UNL     1       3.669   6.386  18.853  0.00  0.00    +0.000 A 
ATOM     25  C   UNL     1       3.741   6.905  17.553  0.00  0.00    +0.000 A 
ATOM     26  C   UNL     1       4.764   6.489  16.700  0.00  0.00    +0.000 A 
ATOM     27  C   UNL     1       5.729   5.591  17.164  0.00  0.00    +0.000 A 
ATOM     28  C   UNL     1       5.696   5.114  18.475  0.00  0.00    +0.000 A 
ATOM     29  C   UNL     1       4.676   5.531  19.330  0.00  0.00    +0.000 A 
BRANCH  27  30
ATOM     30  S   UNL     1       6.984   5.025  16.062  0.00  0.00    +0.000 S 
ATOM     31  O   UNL     1       6.426   4.037  15.165  0.00  0.00    +0.000 OA
ATOM     32  O   UNL     1       7.748   6.154  15.591  0.00  0.00    +0.000 OA
BRANCH  30  33
ATOM     33  N   UNL     1       7.987   4.186  17.115  0.00  0.00    +0.000 NA
ATOM     34  H   UNL     1       8.216   3.269  16.728  0.00  0.00    +0.000 HD
ATOM     35  H   UNL     1       8.798   4.755  17.359  0.00  0.00    +0.000 HD
ENDBRANCH  30  33
ENDBRANCH  27  30
ENDBRANCH   4  24
TORSDOF 8
ENDMDL
MODEL 3
REMARK VINA RESULT:      -7.8      1.096      1.347
REMARK  Name = 
REMARK  9 active torsions:
REMARK  status: ('A' for Active; 'I' for Inactive)
REMARK    1  A    between atoms: C_1  and  O_2
REMARK    2  A    between atoms: O_2  and  C_3
REMARK    3  A    between atoms: C_6  and  C_7
REMARK    4  A    between atoms: C_9  and  C_10
REMARK    5  A    between atoms: C_15  and  O_16
REMARK    6  A    between atoms: N_17  and  C_18
REMARK    7  A    between atoms: C_21  and  S_22
REMARK    8  A    between atoms: S_22  and  N_23
REMARK    9  A    between atoms: C_29  and  O_30
REMARK                            x       y       z     vdW  Elec       q    Type
REMARK                         _______ _______ _______ _____ _____    ______ ____
ROOT
ATOM      1  C   UNL     1       1.258   8.140  20.303  0.00  0.00    +0.000 A 
ATOM      2  N   UNL     1       0.775   6.884  20.600  0.00  0.00    +0.000 NA
ATOM      3  C   UNL     1       1.699   6.050  20.132  0.00  0.00    +0.000 A 
ATOM      4  N   UNL     1       2.649   6.816  19.455  0.00  0.00    +0.000 N 
ATOM      5  N   UNL     1       2.457   8.127  19.713  0.00  0.00    +0.000 NA
ENDROOT
BRANCH   1   9
ATOM      6  C   UNL     1      -0.978  11.720  21.083  0.00  0.00    +0.000 A 
ATOM      7  C   UNL     1      -0.872  11.204  19.792  0.00  0.00    +0.000 A 
ATOM      8  C   UNL     1      -0.124  10.049  19.549  0.00  0.00    +0.000 A 
ATOM      9  C   UNL     1       0.531   9.375  20.594  0.00  0.00    +0.000 A 
ATOM     10  C   UNL     1       0.426   9.909  21.885  0.00  0.00    +0.000 A 
ATOM     11  C   UNL     1      -0.318  11.074  22.129  0.00  0.00    +0.000 A 
BRANCH   6  13
ATOM     12  C   UNL     1      -2.968  12.849  20.435  0.00  0.00    +0.000 C 
ATOM     13  O   UNL     1      -1.756  12.840  21.176  0.00  0.00    +0.000 OA
ENDBRANCH   6  13
BRANCH  10  14
ATOM     14  O   UNL     1       1.017   9.330  22.979  0.00  0.00    +0.000 OA
ATOM     15  H   UNL     1       0.316   8.891  23.512  0.00  0.00    +0.000 HD
ENDBRANCH  10  14
ENDBRANCH   1   9
BRANCH   3  16
ATOM     16  C   UNL     1       1.770   4.586  20.378  0.00  0.00    +0.000 A 
ATOM     17  C   UNL     1       2.102   4.080  21.654  0.00  0.00    +0.000 A 
ATOM     18  C   UNL     1       2.272   2.715  21.893  0.00  0.00    +0.000 A 
ATOM     19  C   UNL     1       2.018   1.802  20.878  0.00  0.00    +0.000 A 
ATOM     20  C   UNL     1       1.604   2.261  19.628  0.00  0.00    +0.000 A 
ATOM     21  C   UNL     1       1.495   3.637  19.379  0.00  0.00    +0.000 A 
BRANCH  21  22
ATOM     22  O   UNL     1       1.129   4.046  18.125  0.00  0.00    +0.000 OA
ATOM     23  H   UNL     1       1.924   4.294  17.626  0.00  0.00    +0.000 HD
ENDBRANCH  21  22
ENDBRANCH   3  16
BRANCH   4  24
ATOM     24  C   UNL     1       3.738   6.435  18.631  0.00  0.00    +0.000 A 
ATOM     25  C   UNL     1       3.878   6.944  17.332  0.00  0.00    +0.000 A 
ATOM     26  C   UNL     1       4.873   6.435  16.496  0.00  0.00    +0.000 A 
ATOM     27  C   UNL     1       5.744   5.453  16.976  0.00  0.00    +0.000 A 
ATOM     28  C   UNL     1       5.645   4.982  18.286  0.00  0.00    +0.000 A 
ATOM     29  C   UNL     1       4.654   5.492  19.124  0.00  0.00    +0.000 A 
BRANCH  27  30
ATOM     30  S   UNL     1       6.960   4.774  15.895  0.00  0.00    +0.000 S 
ATOM     31  O   UNL     1       6.384   3.671  15.156  0.00  0.00    +0.000 OA
ATOM     32  O   UNL     1       7.676   5.846  15.250  0.00  0.00    +0.000 OA
BRANCH  30  33
ATOM     33  N   UNL     1       8.028   4.090  16.995  0.00  0.00    +0.000 NA
ATOM     34  H   UNL     1       8.970   4.064  16.602  0.00  0.00    +0.000 HD
ATOM     35  H   UNL     1       7.960   4.566  17.896  0.00  0.00    +0.000 HD
ENDBRANCH  30  33
ENDBRANCH  27  30
ENDBRANCH   4  24
TORSDOF 8
ENDMDL
MODEL 4
REMARK VINA RESULT:      -7.7      3.328      8.440
REMARK  Name = 
REMARK  9 active torsions:
REMARK  status: ('A' for Active; 'I' for Inactive)
REMARK    1  A    between atoms: C_1  and  O_2
REMARK    2  A    between atoms: O_2  and  C_3
REMARK    3  A    between atoms: C_6  and  C_7
REMARK    4  A    between atoms: C_9  and  C_10
REMARK    5  A    between atoms: C_15  and  O_16
REMARK    6  A    between atoms: N_17  and  C_18
REMARK    7  A    between atoms: C_21  and  S_22
REMARK    8  A    between atoms: S_22  and  N_23
REMARK    9  A    between atoms: C_29  and  O_30
REMARK                            x       y       z     vdW  Elec       q    Type
REMARK                         _______ _______ _______ _____ _____    ______ ____
ROOT
ATOM      1  C   UNL     1       4.579   4.720  16.319  0.00  0.00    +0.000 A 
ATOM      2  N   UNL     1       4.348   3.769  17.289  0.00  0.00    +0.000 NA
ATOM      3  C   UNL     1       3.569   4.379  18.179  0.00  0.00    +0.000 A 
ATOM      4  N   UNL     1       3.455   5.714  17.788  0.00  0.00    +0.000 N 
ATOM      5  N   UNL     1       3.946   5.875  16.541  0.00  0.00    +0.000 NA
ENDROOT
BRANCH   1   9
ATOM      6  C   UNL     1       7.005   4.092  12.835  0.00  0.00    +0.000 A 
ATOM      7  C   UNL     1       5.755   3.488  12.960  0.00  0.00    +0.000 A 
ATOM      8  C   UNL     1       4.984   3.684  14.109  0.00  0.00    +0.000 A 
ATOM      9  C   UNL     1       5.441   4.498  15.159  0.00  0.00    +0.000 A 
ATOM     10  C   UNL     1       6.703   5.092  15.027  0.00  0.00    +0.000 A 
ATOM     11  C   UNL     1       7.482   4.888  13.877  0.00  0.00    +0.000 A 
BRANCH   6  13
ATOM     12  C   UNL     1       7.494   2.520  11.119  0.00  0.00    +0.000 C 
ATOM     13  O   UNL     1       7.638   3.828  11.652  0.00  0.00    +0.000 OA
ENDBRANCH   6  13
BRANCH  10  14
ATOM     14  O   UNL     1       7.244   5.910  15.985  0.00  0.00    +0.000 OA
ATOM     15  H   UNL     1       6.976   6.836  15.786  0.00  0.00    +0.000 HD
ENDBRANCH  10  14
ENDBRANCH   1   9
BRANCH   3  16
ATOM     16  C   UNL     1       2.859   3.737  19.315  0.00  0.00    +0.000 A 
ATOM     17  C   UNL     1       1.459   3.854  19.454  0.00  0.00    +0.000 A 
ATOM     18  C   UNL     1       0.774   3.346  20.561  0.00  0.00    +0.000 A 
ATOM     19  C   UNL     1       1.464   2.615  21.519  0.00  0.00    +0.000 A 
ATOM     20  C   UNL     1       2.834   2.405  21.369  0.00  0.00    +0.000 A 
ATOM     21  C   UNL     1       3.524   2.971  20.287  0.00  0.00    +0.000 A 
BRANCH  21  22
ATOM     22  O   UNL     1       4.876   2.778  20.203  0.00  0.00    +0.000 OA
ATOM     23  H   UNL     1       5.248   3.406  19.563  0.00  0.00    +0.000 HD
ENDBRANCH  21  22
ENDBRANCH   3  16
BRANCH   4  24
ATOM     24  C   UNL     1       2.895   6.835  18.451  0.00  0.00    +0.000 A 
ATOM     25  C   UNL     1       2.516   6.767  19.798  0.00  0.00    +0.000 A 
ATOM     26  C   UNL     1       1.832   7.836  20.378  0.00  0.00    +0.000 A 
ATOM     27  C   UNL     1       1.566   8.979  19.619  0.00  0.00    +0.000 A 
ATOM     28  C   UNL     1       1.989   9.076  18.292  0.00  0.00    +0.000 A 
ATOM     29  C   UNL     1       2.677   8.010  17.713  0.00  0.00    +0.000 A 
BRANCH  27  30
ATOM     30  S   UNL     1       0.649  10.301  20.340  0.00  0.00    +0.000 S 
ATOM     31  O   UNL     1      -0.751  10.155  20.004  0.00  0.00    +0.000 OA
ATOM     32  O   UNL     1       1.101  10.512  21.693  0.00  0.00    +0.000 OA
BRANCH  30  33
ATOM     33  N   UNL     1       1.208  11.609  19.448  0.00  0.00    +0.000 NA
ATOM     34  H   UNL     1       0.836  12.480  19.830  0.00  0.00    +0.000 HD
ATOM     35  H   UNL     1       2.227  11.580  19.380  0.00  0.00    +0.000 HD
ENDBRANCH  30  33
ENDBRANCH  27  30
ENDBRANCH   4  24
TORSDOF 8
ENDMDL
MODEL 5
REMARK VINA RESULT:      -7.7      0.548      1.036
REMARK  Name = 
REMARK  9 active torsions:
REMARK  status: ('A' for Active; 'I' for Inactive)
REMARK    1  A    between atoms: C_1  and  O_2
REMARK    2  A    between atoms: O_2  and  C_3
REMARK    3  A    between atoms: C_6  and  C_7
REMARK    4  A    between atoms: C_9  and  C_10
REMARK    5  A    between atoms: C_15  and  O_16
REMARK    6  A    between atoms: N_17  and  C_18
REMARK    7  A    between atoms: C_21  and  S_22
REMARK    8  A    between atoms: S_22  and  N_23
REMARK    9  A    between atoms: C_29  and  O_30
REMARK                            x       y       z     vdW  Elec       q    Type
REMARK                         _______ _______ _______ _____ _____    ______ ____
ROOT
ATOM      1  C   UNL     1       1.126   7.964  20.866  0.00  0.00    +0.000 A 
ATOM      2  N   UNL     1       0.609   6.694  20.995  0.00  0.00    +0.000 NA
ATOM      3  C   UNL     1       1.490   5.908  20.383  0.00  0.00    +0.000 A 
ATOM      4  N   UNL     1       2.448   6.735  19.794  0.00  0.00    +0.000 N 
ATOM      5  N   UNL     1       2.307   8.000  20.243  0.00  0.00    +0.000 NA
ENDROOT
BRANCH   1   9
ATOM      6  C   UNL     1      -0.809  11.468  22.417  0.00  0.00    +0.000 A 
ATOM      7  C   UNL     1      -0.886  10.247  23.085  0.00  0.00    +0.000 A 
ATOM      8  C   UNL     1      -0.269   9.109  22.559  0.00  0.00    +0.000 A 
ATOM      9  C   UNL     1       0.450   9.166  21.353  0.00  0.00    +0.000 A 
ATOM     10  C   UNL     1       0.513  10.396  20.685  0.00  0.00    +0.000 A 
ATOM     11  C   UNL     1      -0.114  11.537  21.208  0.00  0.00    +0.000 A 
BRANCH   6  13
ATOM     12  C   UNL     1      -2.801  12.296  23.416  0.00  0.00    +0.000 C 
ATOM     13  O   UNL     1      -1.442  12.497  23.056  0.00  0.00    +0.000 OA
ENDBRANCH   6  13
BRANCH  10  14
ATOM     14  O   UNL     1       1.193  10.568  19.506  0.00  0.00    +0.000 OA
ATOM     15  H   UNL     1       1.951  11.172  19.674  0.00  0.00    +0.000 HD
ENDBRANCH  10  14
ENDBRANCH   1   9
BRANCH   3  16
ATOM     16  C   UNL     1       1.518   4.422  20.415  0.00  0.00    +0.000 A 
ATOM     17  C   UNL     1       1.739   3.727  21.624  0.00  0.00    +0.000 A 
ATOM     18  C   UNL     1       1.867   2.337  21.671  0.00  0.00    +0.000 A 
ATOM     19  C   UNL     1       1.680   1.589  20.515  0.00  0.00    +0.000 A 
ATOM     20  C   UNL     1       1.373   2.238  19.320  0.00  0.00    +0.000 A 
ATOM     21  C   UNL     1       1.307   3.637  19.269  0.00  0.00    +0.000 A 
BRANCH  21  22
ATOM     22  O   UNL     1       1.049   4.235  18.065  0.00  0.00    +0.000 OA
ATOM     23  H   UNL     1       0.246   3.846  17.681  0.00  0.00    +0.000 HD
ENDBRANCH  21  22
ENDBRANCH   3  16
BRANCH   4  24
ATOM     24  C   UNL     1       3.500   6.444  18.889  0.00  0.00    +0.000 A 
ATOM     25  C   UNL     1       4.498   5.515  19.211  0.00  0.00    +0.000 A 
ATOM     26  C   UNL     1       5.598   5.364  18.366  0.00  0.00    +0.000 A 
ATOM     27  C   UNL     1       5.674   6.112  17.188  0.00  0.00    +0.000 A 
ATOM     28  C   UNL     1       4.656   6.999  16.834  0.00  0.00    +0.000 A 
ATOM     29  C   UNL     1       3.554   7.149  17.675  0.00  0.00    +0.000 A 
BRANCH  27  30
ATOM     30  S   UNL     1       7.095   5.959  16.156  0.00  0.00    +0.000 S 
ATOM     31  O   UNL     1       6.678   5.656  14.804  0.00  0.00    +0.000 OA
ATOM     32  O   UNL     1       8.020   7.023  16.459  0.00  0.00    +0.000 OA
BRANCH  30  33
ATOM     33  N   UNL     1       7.785   4.552  16.759  0.00  0.00    +0.000 NA
ATOM     34  H   UNL     1       7.742   4.547  17.779  0.00  0.00    +0.000 HD
ATOM     35  H   UNL     1       7.363   3.735  16.316  0.00  0.00    +0.000 HD
ENDBRANCH  30  33
ENDBRANCH  27  30
ENDBRANCH   4  24
TORSDOF 8
ENDMDL
MODEL 6
REMARK VINA RESULT:      -7.7      4.555     10.656
REMARK  Name = 
REMARK  9 active torsions:
REMARK  status: ('A' for Active; 'I' for Inactive)
REMARK    1  A    between atoms: C_1  and  O_2
REMARK    2  A    between atoms: O_2  and  C_3
REMARK    3  A    between atoms: C_6  and  C_7
REMARK    4  A    between atoms: C_9  and  C_10
REMARK    5  A    between atoms: C_15  and  O_16
REMARK    6  A    between atoms: N_17  and  C_18
REMARK    7  A    between atoms: C_21  and  S_22
REMARK    8  A    between atoms: S_22  and  N_23
REMARK    9  A    between atoms: C_29  and  O_30
REMARK                            x       y       z     vdW  Elec       q    Type
REMARK                         _______ _______ _______ _____ _____    ______ ____
ROOT
ATOM      1  C   UNL     1       0.851  10.405  19.957  0.00  0.00    +0.000 A 
ATOM      2  N   UNL     1       1.188  11.626  19.414  0.00  0.00    +0.000 NA
ATOM      3  C   UNL     1       0.362  12.491  19.994  0.00  0.00    +0.000 A 
ATOM      4  N   UNL     1      -0.532  11.756  20.774  0.00  0.00    +0.000 N 
ATOM      5  N   UNL     1      -0.113  10.478  20.878  0.00  0.00    +0.000 NA
ENDROOT
BRANCH   1   9
ATOM      6  C   UNL     1       2.588   6.638  18.853  0.00  0.00    +0.000 A 
ATOM      7  C   UNL     1       2.098   6.856  20.140  0.00  0.00    +0.000 A 
ATOM      8  C   UNL     1       1.554   8.094  20.492  0.00  0.00    +0.000 A 
ATOM      9  C   UNL     1       1.478   9.144  19.562  0.00  0.00    +0.000 A 
ATOM     10  C   UNL     1       1.982   8.917  18.274  0.00  0.00    +0.000 A 
ATOM     11  C   UNL     1       2.537   7.677  17.922  0.00  0.00    +0.000 A 
BRANCH   6  13
ATOM     12  C   UNL     1       4.286   5.034  19.297  0.00  0.00    +0.000 C 
ATOM     13  O   UNL     1       3.072   5.377  18.644  0.00  0.00    +0.000 OA
ENDBRANCH   6  13
BRANCH  10  14
ATOM     14  O   UNL     1       1.952   9.868  17.286  0.00  0.00    +0.000 OA
ATOM     15  H   UNL     1       1.058  10.281  17.284  0.00  0.00    +0.000 HD
ENDBRANCH  10  14
ENDBRANCH   1   9
BRANCH   3  16
ATOM     16  C   UNL     1       0.443  13.973  19.918  0.00  0.00    +0.000 A 
ATOM     17  C   UNL     1      -0.132  14.677  18.838  0.00  0.00    +0.000 A 
ATOM     18  C   UNL     1       0.010  16.059  18.688  0.00  0.00    +0.000 A 
ATOM     19  C   UNL     1       0.655  16.794  19.673  0.00  0.00    +0.000 A 
ATOM     20  C   UNL     1       1.159  16.143  20.798  0.00  0.00    +0.000 A 
ATOM     21  C   UNL     1       1.066  14.748  20.911  0.00  0.00    +0.000 A 
BRANCH  21  22
ATOM     22  O   UNL     1       1.615  14.144  22.010  0.00  0.00    +0.000 OA
ATOM     23  H   UNL     1       2.570  14.040  21.873  0.00  0.00    +0.000 HD
ENDBRANCH  21  22
ENDBRANCH   3  16
BRANCH   4  24
ATOM     24  C   UNL     1      -1.710  12.147  21.460  0.00  0.00    +0.000 A 
ATOM     25  C   UNL     1      -1.822  12.004  22.850  0.00  0.00    +0.000 A 
ATOM     26  C   UNL     1      -3.044  12.256  23.473  0.00  0.00    +0.000 A 
ATOM     27  C   UNL     1      -4.133  12.686  22.710  0.00  0.00    +0.000 A 
ATOM     28  C   UNL     1      -4.014  12.885  21.334  0.00  0.00    +0.000 A 
ATOM     29  C   UNL     1      -2.792  12.637  20.710  0.00  0.00    +0.000 A 
BRANCH  27  30
ATOM     30  S   UNL     1      -5.690  12.945  23.496  0.00  0.00    +0.000 S 
ATOM     31  O   UNL     1      -5.831  14.345  23.836  0.00  0.00    +0.000 OA
ATOM     32  O   UNL     1      -6.710  12.217  22.783  0.00  0.00    +0.000 OA
BRANCH  30  33
ATOM     33  N   UNL     1      -5.461  12.134  24.948  0.00  0.00    +0.000 NA
ATOM     34  H   UNL     1      -5.895  11.211  24.908  0.00  0.00    +0.000 HD
ATOM     35  H   UNL     1      -4.471  12.124  25.194  0.00  0.00    +0.000 HD
ENDBRANCH  30  33
ENDBRANCH  27  30
ENDBRANCH   4  24
TORSDOF 8
ENDMDL
MODEL 7
REMARK VINA RESULT:      -7.6      4.478     10.415
REMARK  Name = 
REMARK  9 active torsions:
REMARK  status: ('A' for Active; 'I' for Inactive)
REMARK    1  A    between atoms: C_1  and  O_2
REMARK    2  A    between atoms: O_2  and  C_3
REMARK    3  A    between atoms: C_6  and  C_7
REMARK    4  A    between atoms: C_9  and  C_10
REMARK    5  A    between atoms: C_15  and  O_16
REMARK    6  A    between atoms: N_17  and  C_18
REMARK    7  A    between atoms: C_21  and  S_22
REMARK    8  A    between atoms: S_22  and  N_23
REMARK    9  A    between atoms: C_29  and  O_30
REMARK                            x       y       z     vdW  Elec       q    Type
REMARK                         _______ _______ _______ _____ _____    ______ ____
ROOT
ATOM      1  C   UNL     1       0.953   9.978  20.018  0.00  0.00    +0.000 A 
ATOM      2  N   UNL     1       1.316  11.144  19.379  0.00  0.00    +0.000 NA
ATOM      3  C   UNL     1       0.533  12.077  19.912  0.00  0.00    +0.000 A 
ATOM      4  N   UNL     1      -0.365  11.432  20.765  0.00  0.00    +0.000 N 
ATOM      5  N   UNL     1       0.015  10.151  20.953  0.00  0.00    +0.000 NA
ENDROOT
BRANCH   1   9
ATOM      6  C   UNL     1       2.532   6.083  19.148  0.00  0.00    +0.000 A 
ATOM      7  C   UNL     1       2.009   6.384  20.404  0.00  0.00    +0.000 A 
ATOM      8  C   UNL     1       1.516   7.662  20.681  0.00  0.00    +0.000 A 
ATOM      9  C   UNL     1       1.528   8.671  19.703  0.00  0.00    +0.000 A 
ATOM     10  C   UNL     1       2.065   8.361  18.447  0.00  0.00    +0.000 A 
ATOM     11  C   UNL     1       2.568   7.080  18.171  0.00  0.00    +0.000 A 
BRANCH   6  13
ATOM     12  C   UNL     1       4.361   4.567  19.037  0.00  0.00    +0.000 C 
ATOM     13  O   UNL     1       2.958   4.791  19.013  0.00  0.00    +0.000 OA
ENDBRANCH   6  13
BRANCH  10  14
ATOM     14  O   UNL     1       2.120   9.265  17.418  0.00  0.00    +0.000 OA
ATOM     15  H   UNL     1       1.928  10.159  17.783  0.00  0.00    +0.000 HD
ENDBRANCH  10  14
ENDBRANCH   1   9
BRANCH   3  16
ATOM     16  C   UNL     1       0.661  13.546  19.725  0.00  0.00    +0.000 A 
ATOM     17  C   UNL     1       1.543  14.305  20.525  0.00  0.00    +0.000 A 
ATOM     18  C   UNL     1       1.615  15.697  20.441  0.00  0.00    +0.000 A 
ATOM     19  C   UNL     1       0.870  16.367  19.480  0.00  0.00    +0.000 A 
ATOM     20  C   UNL     1       0.053  15.641  18.614  0.00  0.00    +0.000 A 
ATOM     21  C   UNL     1      -0.060  14.250  18.746  0.00  0.00    +0.000 A 
BRANCH  21  22
ATOM     22  O   UNL     1      -0.909  13.582  17.905  0.00  0.00    +0.000 OA
ATOM     23  H   UNL     1      -0.658  13.767  16.986  0.00  0.00    +0.000 HD
ENDBRANCH  21  22
ENDBRANCH   3  16
BRANCH   4  24
ATOM     24  C   UNL     1      -1.511  11.913  21.447  0.00  0.00    +0.000 A 
ATOM     25  C   UNL     1      -1.593  11.873  22.845  0.00  0.00    +0.000 A 
ATOM     26  C   UNL     1      -2.790  12.212  23.476  0.00  0.00    +0.000 A 
ATOM     27  C   UNL     1      -3.883  12.626  22.708  0.00  0.00    +0.000 A 
ATOM     28  C   UNL     1      -3.791  12.721  21.319  0.00  0.00    +0.000 A 
ATOM     29  C   UNL     1      -2.594  12.386  20.688  0.00  0.00    +0.000 A 
BRANCH  27  30
ATOM     30  S   UNL     1      -5.410  12.995  23.508  0.00  0.00    +0.000 S 
ATOM     31  O   UNL     1      -5.424  14.388  23.899  0.00  0.00    +0.000 OA
ATOM     32  O   UNL     1      -6.492  12.389  22.772  0.00  0.00    +0.000 OA
BRANCH  30  33
ATOM     33  N   UNL     1      -5.256  12.114  24.928  0.00  0.00    +0.000 NA
ATOM     34  H   UNL     1      -6.176  11.832  25.270  0.00  0.00    +0.000 HD
ATOM     35  H   UNL     1      -4.601  11.342  24.795  0.00  0.00    +0.000 HD
ENDBRANCH  30  33
ENDBRANCH  27  30
ENDBRANCH   4  24
TORSDOF 8
ENDMDL
MODEL 8
REMARK VINA RESULT:      -7.6      4.554     10.627
REMARK  Name = 
REMARK  9 active torsions:
REMARK  status: ('A' for Active; 'I' for Inactive)
REMARK    1  A    between atoms: C_1  and  O_2
REMARK    2  A    between atoms: O_2  and  C_3
REMARK    3  A    between atoms: C_6  and  C_7
REMARK    4  A    between atoms: C_9  and  C_10
REMARK    5  A    between atoms: C_15  and  O_16
REMARK    6  A    between atoms: N_17  and  C_18
REMARK    7  A    between atoms: C_21  and  S_22
REMARK    8  A    between atoms: S_22  and  N_23
REMARK    9  A    between atoms: C_29  and  O_30
REMARK                            x       y       z     vdW  Elec       q    Type
REMARK                         _______ _______ _______ _____ _____    ______ ____
ROOT
ATOM      1  C   UNL     1       0.915  10.307  19.752  0.00  0.00    +0.000 A 
ATOM      2  N   UNL     1       1.285  11.530  19.238  0.00  0.00    +0.000 NA
ATOM      3  C   UNL     1       0.498  12.407  19.855  0.00  0.00    +0.000 A 
ATOM      4  N   UNL     1      -0.410  11.680  20.629  0.00  0.00    +0.000 N 
ATOM      5  N   UNL     1      -0.033  10.386  20.690  0.00  0.00    +0.000 NA
ENDROOT
BRANCH   1   9
ATOM      6  C   UNL     1       2.697   6.647  18.390  0.00  0.00    +0.000 A 
ATOM      7  C   UNL     1       2.401   7.679  17.501  0.00  0.00    +0.000 A 
ATOM      8  C   UNL     1       1.801   8.857  17.954  0.00  0.00    +0.000 A 
ATOM      9  C   UNL     1       1.491   9.037  19.312  0.00  0.00    +0.000 A 
ATOM     10  C   UNL     1       1.784   7.990  20.196  0.00  0.00    +0.000 A 
ATOM     11  C   UNL     1       2.378   6.802  19.740  0.00  0.00    +0.000 A 
BRANCH   6  13
ATOM     12  C   UNL     1       2.573   4.343  17.817  0.00  0.00    +0.000 C 
ATOM     13  O   UNL     1       3.298   5.565  17.812  0.00  0.00    +0.000 OA
ENDBRANCH   6  13
BRANCH  10  14
ATOM     14  O   UNL     1       1.532   8.060  21.542  0.00  0.00    +0.000 OA
ATOM     15  H   UNL     1       1.237   8.975  21.752  0.00  0.00    +0.000 HD
ENDBRANCH  10  14
ENDBRANCH   1   9
BRANCH   3  16
ATOM     16  C   UNL     1       0.628  13.887  19.820  0.00  0.00    +0.000 A 
ATOM     17  C   UNL     1      -0.183  14.666  18.967  0.00  0.00    +0.000 A 
ATOM     18  C   UNL     1      -0.018  16.047  18.839  0.00  0.00    +0.000 A 
ATOM     19  C   UNL     1       0.905  16.707  19.640  0.00  0.00    +0.000 A 
ATOM     20  C   UNL     1       1.663  15.979  20.557  0.00  0.00    +0.000 A 
ATOM     21  C   UNL     1       1.535  14.585  20.635  0.00  0.00    +0.000 A 
BRANCH  21  22
ATOM     22  O   UNL     1       2.331  13.905  21.516  0.00  0.00    +0.000 OA
ATOM     23  H   UNL     1       1.814  13.684  22.308  0.00  0.00    +0.000 HD
ENDBRANCH  21  22
ENDBRANCH   3  16
BRANCH   4  24
ATOM     24  C   UNL     1      -1.562  12.091  21.344  0.00  0.00    +0.000 A 
ATOM     25  C   UNL     1      -1.637  11.961  22.738  0.00  0.00    +0.000 A 
ATOM     26  C   UNL     1      -2.838  12.234  23.393  0.00  0.00    +0.000 A 
ATOM     27  C   UNL     1      -3.943  12.670  22.657  0.00  0.00    +0.000 A 
ATOM     28  C   UNL     1      -3.860  12.855  21.276  0.00  0.00    +0.000 A 
ATOM     29  C   UNL     1      -2.660  12.587  20.621  0.00  0.00    +0.000 A 
BRANCH  27  30
ATOM     30  S   UNL     1      -5.474  12.955  23.484  0.00  0.00    +0.000 S 
ATOM     31  O   UNL     1      -5.578  14.355  23.837  0.00  0.00    +0.000 OA
ATOM     32  O   UNL     1      -6.526  12.252  22.793  0.00  0.00    +0.000 OA
BRANCH  30  33
ATOM     33  N   UNL     1      -5.224  12.129  24.924  0.00  0.00    +0.000 NA
ATOM     34  H   UNL     1      -5.748  11.252  24.923  0.00  0.00    +0.000 HD
ATOM     35  H   UNL     1      -4.225  12.023  25.102  0.00  0.00    +0.000 HD
ENDBRANCH  30  33
ENDBRANCH  27  30
ENDBRANCH   4  24
TORSDOF 8
ENDMDL
MODEL 9
REMARK VINA RESULT:      -7.6      4.491     10.498
REMARK  Name = 
REMARK  9 active torsions:
REMARK  status: ('A' for Active; 'I' for Inactive)
REMARK    1  A    between atoms: C_1  and  O_2
REMARK    2  A    between atoms: O_2  and  C_3
REMARK    3  A    between atoms: C_6  and  C_7
REMARK    4  A    between atoms: C_9  and  C_10
REMARK    5  A    between atoms: C_15  and  O_16
REMARK    6  A    between atoms: N_17  and  C_18
REMARK    7  A    between atoms: C_21  and  S_22
REMARK    8  A    between atoms: S_22  and  N_23
REMARK    9  A    between atoms: C_29  and  O_30
REMARK                            x       y       z     vdW  Elec       q    Type
REMARK                         _______ _______ _______ _____ _____    ______ ____
ROOT
ATOM      1  C   UNL     1       1.038  10.129  19.729  0.00  0.00    +0.000 A 
ATOM      2  N   UNL     1       1.381  11.338  19.164  0.00  0.00    +0.000 NA
ATOM      3  C   UNL     1       0.621  12.230  19.791  0.00  0.00    +0.000 A 
ATOM      4  N   UNL     1      -0.248  11.525  20.626  0.00  0.00    +0.000 N 
ATOM      5  N   UNL     1       0.134  10.234  20.707  0.00  0.00    +0.000 NA
ENDROOT
BRANCH   1   9
ATOM      6  C   UNL     1       2.771   6.434  18.399  0.00  0.00    +0.000 A 
ATOM      7  C   UNL     1       2.528   7.478  17.508  0.00  0.00    +0.000 A 
ATOM      8  C   UNL     1       1.944   8.668  17.950  0.00  0.00    +0.000 A 
ATOM      9  C   UNL     1       1.596   8.848  19.299  0.00  0.00    +0.000 A 
ATOM     10  C   UNL     1       1.836   7.789  20.185  0.00  0.00    +0.000 A 
ATOM     11  C   UNL     1       2.414   6.589  19.740  0.00  0.00    +0.000 A 
BRANCH   6  13
ATOM     12  C   UNL     1       4.490   5.573  17.001  0.00  0.00    +0.000 C 
ATOM     13  O   UNL     1       3.363   5.340  17.833  0.00  0.00    +0.000 OA
ENDBRANCH   6  13
BRANCH  10  14
ATOM     14  O   UNL     1       1.544   7.858  21.523  0.00  0.00    +0.000 OA
ATOM     15  H   UNL     1       1.945   8.680  21.883  0.00  0.00    +0.000 HD
ENDBRANCH  10  14
ENDBRANCH   1   9
BRANCH   3  16
ATOM     16  C   UNL     1       0.747  13.709  19.709  0.00  0.00    +0.000 A 
ATOM     17  C   UNL     1       1.642  14.408  20.547  0.00  0.00    +0.000 A 
ATOM     18  C   UNL     1       1.714  15.803  20.561  0.00  0.00    +0.000 A 
ATOM     19  C   UNL     1       0.954  16.540  19.662  0.00  0.00    +0.000 A 
ATOM     20  C   UNL     1       0.123  15.877  18.760  0.00  0.00    +0.000 A 
ATOM     21  C   UNL     1       0.011  14.480  18.793  0.00  0.00    +0.000 A 
BRANCH  21  22
ATOM     22  O   UNL     1      -0.851  13.873  17.921  0.00  0.00    +0.000 OA
ATOM     23  H   UNL     1      -0.847  12.916  18.083  0.00  0.00    +0.000 HD
ENDBRANCH  21  22
ENDBRANCH   3  16
BRANCH   4  24
ATOM     24  C   UNL     1      -1.367  11.955  21.383  0.00  0.00    +0.000 A 
ATOM     25  C   UNL     1      -1.432  11.746  22.767  0.00  0.00    +0.000 A 
ATOM     26  C   UNL     1      -2.609  12.044  23.455  0.00  0.00    +0.000 A 
ATOM     27  C   UNL     1      -3.696  12.585  22.763  0.00  0.00    +0.000 A 
ATOM     28  C   UNL     1      -3.620  12.847  21.394  0.00  0.00    +0.000 A 
ATOM     29  C   UNL     1      -2.443  12.554  20.706  0.00  0.00    +0.000 A 
BRANCH  27  30
ATOM     30  S   UNL     1      -5.199  12.903  23.629  0.00  0.00    +0.000 S 
ATOM     31  O   UNL     1      -5.264  14.305  23.982  0.00  0.00    +0.000 OA
ATOM     32  O   UNL     1      -6.283  12.222  22.966  0.00  0.00    +0.000 OA
BRANCH  30  33
ATOM     33  N   UNL     1      -4.930  12.073  25.063  0.00  0.00    +0.000 NA
ATOM     34  H   UNL     1      -3.957  12.177  25.354  0.00  0.00    +0.000 HD
ATOM     35  H   UNL     1      -5.613  12.356  25.768  0.00  0.00    +0.000 HD
ENDBRANCH  30  33
ENDBRANCH  27  30
ENDBRANCH   4  24
TORSDOF 8
ENDMDL
