MODEL 1
REMARK VINA RESULT:      -8.7      0.000      0.000
REMARK  Name = 
REMARK  5 active torsions:
REMARK  status: ('A' for Active; 'I' for Inactive)
REMARK    1  A    between atoms: C_1  and  C_2
REMARK    2  A    between atoms: C_7  and  C_8
REMARK    3  A    between atoms: C_8  and  N_10
REMARK    4  A    between atoms: C_17  and  C_18
REMARK    5  A    between atoms: C_17  and  C_19
REMARK                            x       y       z     vdW  Elec       q    Type
REMARK                         _______ _______ _______ _____ _____    ______ ____
ROOT
ATOM      1  C   UNL     1       5.135   7.136  16.439  0.00  0.00    +0.000 C 
ATOM      2  C   UNL     1       4.456   5.978  17.116  0.00  0.00    +0.000 A 
ATOM      3  C   UNL     1       3.245   6.132  17.827  0.00  0.00    +0.000 A 
ATOM      4  C   UNL     1       2.638   4.980  18.315  0.00  0.00    +0.000 A 
ATOM      5  C   UNL     1       3.033   3.747  17.805  0.00  0.00    +0.000 A 
ATOM      6  C   UNL     1       4.305   3.566  17.296  0.00  0.00    +0.000 A 
ATOM      7  C   UNL     1       5.075   4.706  17.089  0.00  0.00    +0.000 A 
ATOM      8  S   UNL     1       2.188   2.485  18.642  0.00  0.00    +0.000 S 
ATOM      9  O   UNL     1       0.815   2.482  18.178  0.00  0.00    +0.000 OA
ATOM     10  O   UNL     1       3.004   1.275  18.632  0.00  0.00    +0.000 OA
ATOM     11  C   UNL     1       2.370   3.347  20.221  0.00  0.00    +0.000 C 
ATOM     12  C   UNL     1       3.848   3.437  20.701  0.00  0.00    +0.000 C 
ATOM     13  C   UNL     1       1.630   2.513  21.252  0.00  0.00    +0.000 C 
ATOM     14  C   UNL     1       2.019   4.772  19.688  0.00  0.00    +0.000 C 
ATOM     15  O   UNL     1       1.524   5.679  20.343  0.00  0.00    +0.000 OA
ENDROOT
BRANCH   7  16
ATOM     16  C   UNL     1       6.568   4.595  17.172  0.00  0.00    +0.000 C 
ATOM     17  O   UNL     1       7.232   4.729  16.146  0.00  0.00    +0.000 OA
BRANCH  16  18
ATOM     18  N   UNL     1       7.095   4.497  18.436  0.00  0.00    +0.000 NA
ATOM     19  C   UNL     1       7.688   5.530  18.930  0.00  0.00    +0.000 C 
ATOM     20  N   UNL     1       7.897   6.734  18.350  0.00  0.00    +0.000 N 
ATOM     21  N   UNL     1       8.243   5.464  20.159  0.00  0.00    +0.000 N 
ATOM     22  H   UNL     1       7.301   6.880  17.530  0.00  0.00    +0.000 HD
ATOM     23  H   UNL     1       7.901   7.542  18.952  0.00  0.00    +0.000 HD
ATOM     24  H   UNL     1       7.936   4.668  20.703  0.00  0.00    +0.000 HD
ATOM     25  H   UNL     1       8.324   6.318  20.691  0.00  0.00    +0.000 HD
ENDBRANCH  16  18
ENDBRANCH   7  16
TORSDOF 2
ENDMDL
MODEL 2
REMARK VINA RESULT:      -8.6      2.406      3.382
REMARK  Name = 
REMARK  5 active torsions:
REMARK  status: ('A' for Active; 'I' for Inactive)
REMARK    1  A    between atoms: C_1  and  C_2
REMARK    2  A    between atoms: C_7  and  C_8
REMARK    3  A    between atoms: C_8  and  N_10
REMARK    4  A    between atoms: C_17  and  C_18
REMARK    5  A    between atoms: C_17  and  C_19
REMARK                            x       y       z     vdW  Elec       q    Type
REMARK                         _______ _______ _______ _____ _____    ______ ____
ROOT
ATOM      1  C   UNL     1       7.444   6.264  17.617  0.00  0.00    +0.000 C 
ATOM      2  C   UNL     1       6.120   5.657  17.988  0.00  0.00    +0.000 A 
ATOM      3  C   UNL     1       5.975   4.801  19.104  0.00  0.00    +0.000 A 
ATOM      4  C   UNL     1       4.688   4.389  19.431  0.00  0.00    +0.000 A 
ATOM      5  C   UNL     1       3.606   5.082  18.897  0.00  0.00    +0.000 A 
ATOM      6  C   UNL     1       3.716   5.749  17.691  0.00  0.00    +0.000 A 
ATOM      7  C   UNL     1       4.995   5.903  17.166  0.00  0.00    +0.000 A 
ATOM      8  S   UNL     1       2.133   4.312  19.392  0.00  0.00    +0.000 S 
ATOM      9  O   UNL     1       1.917   4.617  20.792  0.00  0.00    +0.000 OA
ATOM     10  O   UNL     1       1.104   4.557  18.386  0.00  0.00    +0.000 OA
ATOM     11  C   UNL     1       2.858   2.672  19.157  0.00  0.00    +0.000 C 
ATOM     12  C   UNL     1       3.177   2.353  17.667  0.00  0.00    +0.000 C 
ATOM     13  C   UNL     1       1.804   1.672  19.597  0.00  0.00    +0.000 C 
ATOM     14  C   UNL     1       4.236   2.990  19.818  0.00  0.00    +0.000 C 
ATOM     15  O   UNL     1       4.967   2.180  20.373  0.00  0.00    +0.000 OA
ENDROOT
BRANCH   7  16
ATOM     16  C   UNL     1       5.159   6.002  15.679  0.00  0.00    +0.000 C 
ATOM     17  O   UNL     1       5.312   7.110  15.169  0.00  0.00    +0.000 OA
BRANCH  16  18
ATOM     18  N   UNL     1       5.274   4.810  15.006  0.00  0.00    +0.000 NA
ATOM     19  C   UNL     1       6.372   4.573  14.373  0.00  0.00    +0.000 C 
ATOM     20  N   UNL     1       7.458   5.371  14.250  0.00  0.00    +0.000 N 
ATOM     21  N   UNL     1       6.514   3.425  13.677  0.00  0.00    +0.000 N 
ATOM     22  H   UNL     1       7.467   6.127  14.940  0.00  0.00    +0.000 HD
ATOM     23  H   UNL     1       8.358   4.919  14.185  0.00  0.00    +0.000 HD
ATOM     24  H   UNL     1       5.824   2.721  13.907  0.00  0.00    +0.000 HD
ATOM     25  H   UNL     1       7.445   3.060  13.545  0.00  0.00    +0.000 HD
ENDBRANCH  16  18
ENDBRANCH   7  16
TORSDOF 2
ENDMDL
MODEL 3
REMARK VINA RESULT:      -8.5      2.933      5.381
REMARK  Name = 
REMARK  5 active torsions:
REMARK  status: ('A' for Active; 'I' for Inactive)
REMARK    1  A    between atoms: C_1  and  C_2
REMARK    2  A    between atoms: C_7  and  C_8
REMARK    3  A    between atoms: C_8  and  N_10
REMARK    4  A    between atoms: C_17  and  C_18
REMARK    5  A    between atoms: C_17  and  C_19
REMARK                            x       y       z     vdW  Elec       q    Type
REMARK                         _______ _______ _______ _____ _____    ______ ____
ROOT
ATOM      1  C   UNL     1       1.850   6.635  19.682  0.00  0.00    +0.000 C 
ATOM      2  C   UNL     1       3.151   6.284  19.015  0.00  0.00    +0.000 A 
ATOM      3  C   UNL     1       3.622   6.981  17.879  0.00  0.00    +0.000 A 
ATOM      4  C   UNL     1       4.890   6.658  17.411  0.00  0.00    +0.000 A 
ATOM      5  C   UNL     1       5.753   5.952  18.243  0.00  0.00    +0.000 A 
ATOM      6  C   UNL     1       5.261   5.110  19.224  0.00  0.00    +0.000 A 
ATOM      7  C   UNL     1       3.900   5.187  19.502  0.00  0.00    +0.000 A 
ATOM      8  S   UNL     1       7.220   5.608  17.387  0.00  0.00    +0.000 S 
ATOM      9  O   UNL     1       7.978   6.839  17.283  0.00  0.00    +0.000 OA
ATOM     10  O   UNL     1       7.813   4.386  17.923  0.00  0.00    +0.000 OA
ATOM     11  C   UNL     1       6.304   5.243  15.870  0.00  0.00    +0.000 C 
ATOM     12  C   UNL     1       5.417   3.970  15.984  0.00  0.00    +0.000 C 
ATOM     13  C   UNL     1       7.343   4.953  14.802  0.00  0.00    +0.000 C 
ATOM     14  C   UNL     1       5.316   6.448  15.966  0.00  0.00    +0.000 C 
ATOM     15  O   UNL     1       4.773   7.004  15.021  0.00  0.00    +0.000 OA
ENDROOT
BRANCH   7  16
ATOM     16  C   UNL     1       3.198   3.967  20.017  0.00  0.00    +0.000 C 
ATOM     17  O   UNL     1       2.668   4.009  21.126  0.00  0.00    +0.000 OA
BRANCH  16  18
ATOM     18  N   UNL     1       3.073   2.925  19.131  0.00  0.00    +0.000 NA
ATOM     19  C   UNL     1       3.898   1.939  19.231  0.00  0.00    +0.000 C 
ATOM     20  N   UNL     1       4.926   1.791  20.098  0.00  0.00    +0.000 N 
ATOM     21  N   UNL     1       3.825   0.910  18.361  0.00  0.00    +0.000 N 
ATOM     22  H   UNL     1       4.861   2.432  20.894  0.00  0.00    +0.000 HD
ATOM     23  H   UNL     1       5.146   0.853  20.396  0.00  0.00    +0.000 HD
ATOM     24  H   UNL     1       2.959   0.879  17.837  0.00  0.00    +0.000 HD
ATOM     25  H   UNL     1       4.154   0.006  18.665  0.00  0.00    +0.000 HD
ENDBRANCH  16  18
ENDBRANCH   7  16
TORSDOF 2
ENDMDL
MODEL 4
REMARK VINA RESULT:      -8.2      3.175      5.703
REMARK  Name = 
REMARK  5 active torsions:
REMARK  status: ('A' for Active; 'I' for Inactive)
REMARK    1  A    between atoms: C_1  and  C_2
REMARK    2  A    between atoms: C_7  and  C_8
REMARK    3  A    between atoms: C_8  and  N_10
REMARK    4  A    between atoms: C_17  and  C_18
REMARK    5  A    between atoms: C_17  and  C_19
REMARK                            x       y       z     vdW  Elec       q    Type
REMARK                         _______ _______ _______ _____ _____    ______ ____
ROOT
ATOM      1  C   UNL     1       1.844   6.716  19.805  0.00  0.00    +0.000 C 
ATOM      2  C   UNL     1       3.127   6.323  19.127  0.00  0.00    +0.000 A 
ATOM      3  C   UNL     1       3.605   6.997  17.981  0.00  0.00    +0.000 A 
ATOM      4  C   UNL     1       4.859   6.634  17.502  0.00  0.00    +0.000 A 
ATOM      5  C   UNL     1       5.711   5.911  18.331  0.00  0.00    +0.000 A 
ATOM      6  C   UNL     1       5.206   5.092  19.324  0.00  0.00    +0.000 A 
ATOM      7  C   UNL     1       3.851   5.210  19.616  0.00  0.00    +0.000 A 
ATOM      8  S   UNL     1       7.158   5.519  17.462  0.00  0.00    +0.000 S 
ATOM      9  O   UNL     1       7.949   6.727  17.340  0.00  0.00    +0.000 OA
ATOM     10  O   UNL     1       7.722   4.285  18.003  0.00  0.00    +0.000 OA
ATOM     11  C   UNL     1       6.216   5.168  15.959  0.00  0.00    +0.000 C 
ATOM     12  C   UNL     1       5.295   3.920  16.093  0.00  0.00    +0.000 C 
ATOM     13  C   UNL     1       7.235   4.839  14.882  0.00  0.00    +0.000 C 
ATOM     14  C   UNL     1       5.263   6.400  16.054  0.00  0.00    +0.000 C 
ATOM     15  O   UNL     1       4.726   6.964  15.110  0.00  0.00    +0.000 OA
ENDROOT
BRANCH   7  16
ATOM     16  C   UNL     1       3.120   4.014  20.150  0.00  0.00    +0.000 C 
ATOM     17  O   UNL     1       2.889   3.948  21.356  0.00  0.00    +0.000 OA
BRANCH  16  18
ATOM     18  N   UNL     1       2.627   3.142  19.211  0.00  0.00    +0.000 NA
ATOM     19  C   UNL     1       1.383   2.810  19.282  0.00  0.00    +0.000 C 
ATOM     20  N   UNL     1       0.465   3.192  20.199  0.00  0.00    +0.000 N 
ATOM     21  N   UNL     1       0.868   1.934  18.394  0.00  0.00    +0.000 N 
ATOM     22  H   UNL     1       0.764   4.014  20.732  0.00  0.00    +0.000 HD
ATOM     23  H   UNL     1      -0.490   3.282  19.887  0.00  0.00    +0.000 HD
ATOM     24  H   UNL     1       1.453   1.786  17.580  0.00  0.00    +0.000 HD
ATOM     25  H   UNL     1      -0.118   1.991  18.186  0.00  0.00    +0.000 HD
ENDBRANCH  16  18
ENDBRANCH   7  16
TORSDOF 2
ENDMDL
MODEL 5
REMARK VINA RESULT:      -8.1      1.959      2.324
REMARK  Name = 
REMARK  5 active torsions:
REMARK  status: ('A' for Active; 'I' for Inactive)
REMARK    1  A    between atoms: C_1  and  C_2
REMARK    2  A    between atoms: C_7  and  C_8
REMARK    3  A    between atoms: C_8  and  N_10
REMARK    4  A    between atoms: C_17  and  C_18
REMARK    5  A    between atoms: C_17  and  C_19
REMARK                            x       y       z     vdW  Elec       q    Type
REMARK                         _______ _______ _______ _____ _____    ______ ____
ROOT
ATOM      1  C   UNL     1       4.752   7.033  16.526  0.00  0.00    +0.000 C 
ATOM      2  C   UNL     1       4.031   5.926  17.245  0.00  0.00    +0.000 A 
ATOM      3  C   UNL     1       3.104   6.186  18.279  0.00  0.00    +0.000 A 
ATOM      4  C   UNL     1       2.404   5.102  18.798  0.00  0.00    +0.000 A 
ATOM      5  C   UNL     1       2.378   3.913  18.076  0.00  0.00    +0.000 A 
ATOM      6  C   UNL     1       3.409   3.584  17.215  0.00  0.00    +0.000 A 
ATOM      7  C   UNL     1       4.330   4.583  16.918  0.00  0.00    +0.000 A 
ATOM      8  S   UNL     1       1.519   2.711  18.983  0.00  0.00    +0.000 S 
ATOM      9  O   UNL     1       0.107   3.031  18.925  0.00  0.00    +0.000 OA
ATOM     10  O   UNL     1       2.021   1.389  18.623  0.00  0.00    +0.000 OA
ATOM     11  C   UNL     1       2.279   3.268  20.527  0.00  0.00    +0.000 C 
ATOM     12  C   UNL     1       3.813   3.010  20.580  0.00  0.00    +0.000 C 
ATOM     13  C   UNL     1       1.661   2.431  21.634  0.00  0.00    +0.000 C 
ATOM     14  C   UNL     1       2.124   4.798  20.261  0.00  0.00    +0.000 C 
ATOM     15  O   UNL     1       2.021   5.666  21.117  0.00  0.00    +0.000 OA
ENDROOT
BRANCH   7  16
ATOM     16  C   UNL     1       5.734   4.190  16.567  0.00  0.00    +0.000 C 
ATOM     17  O   UNL     1       6.605   4.257  17.433  0.00  0.00    +0.000 OA
BRANCH  16  18
ATOM     18  N   UNL     1       5.911   3.634  15.324  0.00  0.00    +0.000 NA
ATOM     19  C   UNL     1       6.686   4.241  14.491  0.00  0.00    +0.000 C 
ATOM     20  N   UNL     1       7.353   5.406  14.662  0.00  0.00    +0.000 N 
ATOM     21  N   UNL     1       6.863   3.741  13.250  0.00  0.00    +0.000 N 
ATOM     22  H   UNL     1       7.416   5.678  15.647  0.00  0.00    +0.000 HD
ATOM     23  H   UNL     1       8.241   5.502  14.194  0.00  0.00    +0.000 HD
ATOM     24  H   UNL     1       6.556   2.782  13.148  0.00  0.00    +0.000 HD
ATOM     25  H   UNL     1       7.728   3.948  12.772  0.00  0.00    +0.000 HD
ENDBRANCH  16  18
ENDBRANCH   7  16
TORSDOF 2
ENDMDL
MODEL 6
REMARK VINA RESULT:      -8.0      3.173      5.657
REMARK  Name = 
REMARK  5 active torsions:
REMARK  status: ('A' for Active; 'I' for Inactive)
REMARK    1  A    between atoms: C_1  and  C_2
REMARK    2  A    between atoms: C_7  and  C_8
REMARK    3  A    between atoms: C_8  and  N_10
REMARK    4  A    between atoms: C_17  and  C_18
REMARK    5  A    between atoms: C_17  and  C_19
REMARK                            x       y       z     vdW  Elec       q    Type
REMARK                         _______ _______ _______ _____ _____    ______ ____
ROOT
ATOM      1  C   UNL     1       1.873   5.780  19.620  0.00  0.00    +0.000 C 
ATOM      2  C   UNL     1       3.198   5.605  18.931  0.00  0.00    +0.000 A 
ATOM      3  C   UNL     1       3.654   6.508  17.945  0.00  0.00    +0.000 A 
ATOM      4  C   UNL     1       4.942   6.325  17.455  0.00  0.00    +0.000 A 
ATOM      5  C   UNL     1       5.823   5.521  18.171  0.00  0.00    +0.000 A 
ATOM      6  C   UNL     1       5.355   4.502  18.980  0.00  0.00    +0.000 A 
ATOM      7  C   UNL     1       3.989   4.472  19.237  0.00  0.00    +0.000 A 
ATOM      8  S   UNL     1       7.317   5.393  17.301  0.00  0.00    +0.000 S 
ATOM      9  O   UNL     1       8.020   6.654  17.429  0.00  0.00    +0.000 OA
ATOM     10  O   UNL     1       7.956   4.122  17.630  0.00  0.00    +0.000 OA
ATOM     11  C   UNL     1       6.440   5.261  15.724  0.00  0.00    +0.000 C 
ATOM     12  C   UNL     1       5.610   3.951  15.596  0.00  0.00    +0.000 C 
ATOM     13  C   UNL     1       7.507   5.205  14.645  0.00  0.00    +0.000 C 
ATOM     14  C   UNL     1       5.398   6.388  16.005  0.00  0.00    +0.000 C 
ATOM     15  O   UNL     1       4.844   7.078  15.160  0.00  0.00    +0.000 OA
ENDROOT
BRANCH   7  16
ATOM     16  C   UNL     1       3.334   3.152  19.517  0.00  0.00    +0.000 C 
ATOM     17  O   UNL     1       3.258   2.323  18.612  0.00  0.00    +0.000 OA
BRANCH  16  18
ATOM     18  N   UNL     1       2.998   2.913  20.826  0.00  0.00    +0.000 NA
ATOM     19  C   UNL     1       1.762   2.672  21.103  0.00  0.00    +0.000 C 
ATOM     20  N   UNL     1       0.704   2.648  20.261  0.00  0.00    +0.000 N 
ATOM     21  N   UNL     1       1.387   2.459  22.382  0.00  0.00    +0.000 N 
ATOM     22  H   UNL     1       0.988   2.580  19.279  0.00  0.00    +0.000 HD
ATOM     23  H   UNL     1      -0.042   2.003  20.474  0.00  0.00    +0.000 HD
ATOM     24  H   UNL     1       2.160   2.266  23.007  0.00  0.00    +0.000 HD
ATOM     25  H   UNL     1       0.571   1.891  22.551  0.00  0.00    +0.000 HD
ENDBRANCH  16  18
ENDBRANCH   7  16
TORSDOF 2
ENDMDL
MODEL 7
REMARK VINA RESULT:      -7.8      3.298      5.622
REMARK  Name = 
REMARK  5 active torsions:
REMARK  status: ('A' for Active; 'I' for Inactive)
REMARK    1  A    between atoms: C_1  and  C_2
REMARK    2  A    between atoms: C_7  and  C_8
REMARK    3  A    between atoms: C_8  and  N_10
REMARK    4  A    between atoms: C_17  and  C_18
REMARK    5  A    between atoms: C_17  and  C_19
REMARK                            x       y       z     vdW  Elec       q    Type
REMARK                         _______ _______ _______ _____ _____    ______ ____
ROOT
ATOM      1  C   UNL     1       2.218   5.706  20.053  0.00  0.00    +0.000 C 
ATOM      2  C   UNL     1       3.445   5.581  19.194  0.00  0.00    +0.000 A 
ATOM      3  C   UNL     1       3.696   6.458  18.114  0.00  0.00    +0.000 A 
ATOM      4  C   UNL     1       4.915   6.332  17.458  0.00  0.00    +0.000 A 
ATOM      5  C   UNL     1       5.942   5.628  18.079  0.00  0.00    +0.000 A 
ATOM      6  C   UNL     1       5.663   4.625  18.989  0.00  0.00    +0.000 A 
ATOM      7  C   UNL     1       4.350   4.520  19.436  0.00  0.00    +0.000 A 
ATOM      8  S   UNL     1       7.308   5.550  17.015  0.00  0.00    +0.000 S 
ATOM      9  O   UNL     1       7.930   6.860  16.989  0.00  0.00    +0.000 OA
ATOM     10  O   UNL     1       8.076   4.343  17.308  0.00  0.00    +0.000 OA
ATOM     11  C   UNL     1       6.237   5.277  15.584  0.00  0.00    +0.000 C 
ATOM     12  C   UNL     1       5.493   3.911  15.631  0.00  0.00    +0.000 C 
ATOM     13  C   UNL     1       7.148   5.233  14.370  0.00  0.00    +0.000 C 
ATOM     14  C   UNL     1       5.164   6.347  15.958  0.00  0.00    +0.000 C 
ATOM     15  O   UNL     1       4.452   6.953  15.168  0.00  0.00    +0.000 OA
ENDROOT
BRANCH   7  16
ATOM     16  C   UNL     1       3.836   3.177  19.862  0.00  0.00    +0.000 C 
ATOM     17  O   UNL     1       4.608   2.392  20.409  0.00  0.00    +0.000 OA
BRANCH  16  18
ATOM     18  N   UNL     1       2.482   2.984  19.740  0.00  0.00    +0.000 NA
ATOM     19  C   UNL     1       2.060   2.210  18.799  0.00  0.00    +0.000 C 
ATOM     20  N   UNL     1       2.786   1.557  17.862  0.00  0.00    +0.000 N 
ATOM     21  N   UNL     1       0.736   2.017  18.630  0.00  0.00    +0.000 N 
ATOM     22  H   UNL     1       3.779   1.505  18.105  0.00  0.00    +0.000 HD
ATOM     23  H   UNL     1       2.436   0.666  17.546  0.00  0.00    +0.000 HD
ATOM     24  H   UNL     1       0.175   2.313  19.420  0.00  0.00    +0.000 HD
ATOM     25  H   UNL     1       0.430   1.151  18.211  0.00  0.00    +0.000 HD
ENDBRANCH  16  18
ENDBRANCH   7  16
TORSDOF 2
ENDMDL
MODEL 8
REMARK VINA RESULT:      -7.7      0.870      1.044
REMARK  Name = 
REMARK  5 active torsions:
REMARK  status: ('A' for Active; 'I' for Inactive)
REMARK    1  A    between atoms: C_1  and  C_2
REMARK    2  A    between atoms: C_7  and  C_8
REMARK    3  A    between atoms: C_8  and  N_10
REMARK    4  A    between atoms: C_17  and  C_18
REMARK    5  A    between atoms: C_17  and  C_19
REMARK                            x       y       z     vdW  Elec       q    Type
REMARK                         _______ _______ _______ _____ _____    ______ ____
ROOT
ATOM      1  C   UNL     1       4.005   8.116  17.027  0.00  0.00    +0.000 C 
ATOM      2  C   UNL     1       3.619   6.742  17.500  0.00  0.00    +0.000 A 
ATOM      3  C   UNL     1       2.506   6.527  18.344  0.00  0.00    +0.000 A 
ATOM      4  C   UNL     1       2.163   5.210  18.627  0.00  0.00    +0.000 A 
ATOM      5  C   UNL     1       2.678   4.195  17.825  0.00  0.00    +0.000 A 
ATOM      6  C   UNL     1       3.883   4.356  17.166  0.00  0.00    +0.000 A 
ATOM      7  C   UNL     1       4.424   5.637  17.137  0.00  0.00    +0.000 A 
ATOM      8  S   UNL     1       2.168   2.660  18.447  0.00  0.00    +0.000 S 
ATOM      9  O   UNL     1       0.763   2.493  18.131  0.00  0.00    +0.000 OA
ATOM     10  O   UNL     1       3.158   1.647  18.094  0.00  0.00    +0.000 OA
ATOM     11  C   UNL     1       2.420   3.213  20.150  0.00  0.00    +0.000 C 
ATOM     12  C   UNL     1       3.916   3.479  20.490  0.00  0.00    +0.000 C 
ATOM     13  C   UNL     1       1.971   2.070  21.043  0.00  0.00    +0.000 C 
ATOM     14  C   UNL     1       1.777   4.625  19.977  0.00  0.00    +0.000 C 
ATOM     15  O   UNL     1       1.236   5.278  20.858  0.00  0.00    +0.000 OA
ENDROOT
BRANCH   7  16
ATOM     16  C   UNL     1       5.913   5.791  17.046  0.00  0.00    +0.000 C 
ATOM     17  O   UNL     1       6.438   5.852  15.936  0.00  0.00    +0.000 OA
BRANCH  16  18
ATOM     18  N   UNL     1       6.570   6.003  18.234  0.00  0.00    +0.000 NA
ATOM     19  C   UNL     1       7.588   5.260  18.507  0.00  0.00    +0.000 C 
ATOM     20  N   UNL     1       8.105   4.245  17.778  0.00  0.00    +0.000 N 
ATOM     21  N   UNL     1       8.243   5.419  19.676  0.00  0.00    +0.000 N 
ATOM     22  H   UNL     1       7.778   4.255  16.808  0.00  0.00    +0.000 HD
ATOM     23  H   UNL     1       9.102   4.101  17.829  0.00  0.00    +0.000 HD
ATOM     24  H   UNL     1       8.025   6.287  20.151  0.00  0.00    +0.000 HD
ATOM     25  H   UNL     1       9.218   5.164  19.714  0.00  0.00    +0.000 HD
ENDBRANCH  16  18
ENDBRANCH   7  16
TORSDOF 2
ENDMDL
MODEL 9
REMARK VINA RESULT:      -7.6      1.898      2.389
REMARK  Name = 
REMARK  5 active torsions:
REMARK  status: ('A' for Active; 'I' for Inactive)
REMARK    1  A    between atoms: C_1  and  C_2
REMARK    2  A    between atoms: C_7  and  C_8
REMARK    3  A    between atoms: C_8  and  N_10
REMARK    4  A    between atoms: C_17  and  C_18
REMARK    5  A    between atoms: C_17  and  C_19
REMARK                            x       y       z     vdW  Elec       q    Type
REMARK                         _______ _______ _______ _____ _____    ______ ____
ROOT
ATOM      1  C   UNL     1       5.565   7.698  17.065  0.00  0.00    +0.000 C 
ATOM      2  C   UNL     1       4.764   6.479  17.430  0.00  0.00    +0.000 A 
ATOM      3  C   UNL     1       3.700   6.533  18.358  0.00  0.00    +0.000 A 
ATOM      4  C   UNL     1       2.948   5.377  18.537  0.00  0.00    +0.000 A 
ATOM      5  C   UNL     1       3.035   4.366  17.585  0.00  0.00    +0.000 A 
ATOM      6  C   UNL     1       4.179   4.206  16.825  0.00  0.00    +0.000 A 
ATOM      7  C   UNL     1       5.121   5.228  16.873  0.00  0.00    +0.000 A 
ATOM      8  S   UNL     1       2.072   3.017  18.094  0.00  0.00    +0.000 S 
ATOM      9  O   UNL     1       0.678   3.367  17.910  0.00  0.00    +0.000 OA
ATOM     10  O   UNL     1       2.635   1.790  17.537  0.00  0.00    +0.000 OA
ATOM     11  C   UNL     1       2.605   3.224  19.810  0.00  0.00    +0.000 C 
ATOM     12  C   UNL     1       4.120   2.934  20.018  0.00  0.00    +0.000 C 
ATOM     13  C   UNL     1       1.850   2.186  20.621  0.00  0.00    +0.000 C 
ATOM     14  C   UNL     1       2.471   4.779  19.852  0.00  0.00    +0.000 C 
ATOM     15  O   UNL     1       2.241   5.451  20.848  0.00  0.00    +0.000 OA
ENDROOT
BRANCH   7  16
ATOM     16  C   UNL     1       6.564   4.892  16.645  0.00  0.00    +0.000 C 
ATOM     17  O   UNL     1       7.109   4.076  17.386  0.00  0.00    +0.000 OA
BRANCH  16  18
ATOM     18  N   UNL     1       7.134   5.421  15.513  0.00  0.00    +0.000 NA
ATOM     19  C   UNL     1       7.010   4.769  14.407  0.00  0.00    +0.000 C 
ATOM     20  N   UNL     1       6.400   3.579  14.200  0.00  0.00    +0.000 N 
ATOM     21  N   UNL     1       7.579   5.242  13.279  0.00  0.00    +0.000 N 
ATOM     22  H   UNL     1       5.779   3.319  14.971  0.00  0.00    +0.000 HD
ATOM     23  H   UNL     1       5.956   3.438  13.305  0.00  0.00    +0.000 HD
ATOM     24  H   UNL     1       7.862   6.212  13.341  0.00  0.00    +0.000 HD
ATOM     25  H   UNL     1       7.163   4.991  12.394  0.00  0.00    +0.000 HD
ENDBRANCH  16  18
ENDBRANCH   7  16
TORSDOF 2
ENDMDL
