MODEL 1
REMARK VINA RESULT:      -8.3      0.000      0.000
REMARK  Name = 
REMARK  9 active torsions:
REMARK  status: ('A' for Active; 'I' for Inactive)
REMARK    1  A    between atoms: C_2  and  C_5
REMARK    2  A    between atoms: C_10  and  S_11
REMARK    3  A    between atoms: S_11  and  C_12
REMARK    4  A    between atoms: N_20  and  C_21
REMARK    5  A    between atoms: C_21  and  C_22
REMARK    6  A    between atoms: C_22  and  C_23
REMARK    7  A    between atoms: C_23  and  C_24
REMARK    8  A    between atoms: C_24  and  C_25
REMARK    9  A    between atoms: C_25  and  C_26
REMARK                            x       y       z     vdW  Elec       q    Type
REMARK                         _______ _______ _______ _____ _____    ______ ____
ROOT
ATOM      1  C   UNL     1       4.486   5.465  16.448  0.00  0.00    +0.000 A 
ATOM      2  C   UNL     1       4.651   4.276  15.749  0.00  0.00    +0.000 A 
ATOM      3  C   UNL     1       5.628   4.261  14.744  0.00  0.00    +0.000 A 
ATOM      4  C   UNL     1       5.480   3.507  13.574  0.00  0.00    +0.000 A 
ATOM      5  C   UNL     1       6.335   3.743  12.496  0.00  0.00    +0.000 A 
ATOM      6  C   UNL     1       7.420   4.619  12.623  0.00  0.00    +0.000 A 
ATOM      7  C   UNL     1       7.645   5.308  13.820  0.00  0.00    +0.000 A 
ATOM      8  C   UNL     1       6.728   5.167  14.864  0.00  0.00    +0.000 A 
ATOM      9  N   UNL     1       6.665   6.074  15.885  0.00  0.00    +0.000 N 
ATOM     10  C   UNL     1       5.385   6.496  16.133  0.00  0.00    +0.000 A 
ENDROOT
BRANCH   1  11
ATOM     11  S   UNL     1       3.613   5.657  17.960  0.00  0.00    +0.000 S 
BRANCH  11  17
ATOM     12  C   UNL     1       2.565   3.318  19.242  0.00  0.00    +0.000 A 
ATOM     13  C   UNL     1       2.817   2.207  20.073  0.00  0.00    +0.000 A 
ATOM     14  C   UNL     1       4.097   1.913  20.528  0.00  0.00    +0.000 A 
ATOM     15  C   UNL     1       5.162   2.715  20.149  0.00  0.00    +0.000 A 
ATOM     16  C   UNL     1       4.940   3.799  19.301  0.00  0.00    +0.000 A 
ATOM     17  C   UNL     1       3.650   4.122  18.846  0.00  0.00    +0.000 A 
BRANCH  12  19
ATOM     18  F   UNL     1       0.410   4.235  19.811  0.00  0.00    +0.000 F 
ATOM     19  C   UNL     1       1.136   3.589  18.857  0.00  0.00    +0.000 C 
ATOM     20  F   UNL     1       0.436   2.446  18.597  0.00  0.00    +0.000 F 
ATOM     21  F   UNL     1       1.014   4.349  17.730  0.00  0.00    +0.000 F 
ENDBRANCH  12  19
ENDBRANCH  11  17
ENDBRANCH   1  11
BRANCH   9  22
ATOM     22  C   UNL     1       7.293   5.805  17.221  0.00  0.00    +0.000 C 
BRANCH  22  23
ATOM     23  C   UNL     1       7.443   6.873  18.275  0.00  0.00    +0.000 C 
BRANCH  23  24
ATOM     24  C   UNL     1       8.203   8.000  17.528  0.00  0.00    +0.000 C 
BRANCH  24  25
ATOM     25  C   UNL     1       8.087   9.418  18.062  0.00  0.00    +0.000 C 
BRANCH  25  26
ATOM     26  C   UNL     1       9.240   9.775  18.993  0.00  0.00    +0.000 C 
BRANCH  26  27
ATOM     27  C   UNL     1       9.271  11.260  19.404  0.00  0.00    +0.000 C 
ATOM     28  C   UNL     1      10.524  11.542  20.254  0.00  0.00    +0.000 C 
ATOM     29  C   UNL     1      11.816  11.532  19.431  0.00  0.00    +0.000 C 
ATOM     30  C   UNL     1      11.736  12.454  18.220  0.00  0.00    +0.000 C 
ATOM     31  C   UNL     1      10.493  12.197  17.375  0.00  0.00    +0.000 C 
ATOM     32  C   UNL     1       9.226  12.246  18.224  0.00  0.00    +0.000 C 
ENDBRANCH  26  27
ENDBRANCH  25  26
ENDBRANCH  24  25
ENDBRANCH  23  24
ENDBRANCH  22  23
ENDBRANCH   9  22
TORSDOF 9
ENDMDL
MODEL 2
REMARK VINA RESULT:      -8.3      1.704      2.477
REMARK  Name = 
REMARK  9 active torsions:
REMARK  status: ('A' for Active; 'I' for Inactive)
REMARK    1  A    between atoms: C_2  and  C_5
REMARK    2  A    between atoms: C_10  and  S_11
REMARK    3  A    between atoms: S_11  and  C_12
REMARK    4  A    between atoms: N_20  and  C_21
REMARK    5  A    between atoms: C_21  and  C_22
REMARK    6  A    between atoms: C_22  and  C_23
REMARK    7  A    between atoms: C_23  and  C_24
REMARK    8  A    between atoms: C_24  and  C_25
REMARK    9  A    between atoms: C_25  and  C_26
REMARK                            x       y       z     vdW  Elec       q    Type
REMARK                         _______ _______ _______ _____ _____    ______ ____
ROOT
ATOM      1  C   UNL     1       4.793   5.240  17.109  0.00  0.00    +0.000 A 
ATOM      2  C   UNL     1       4.905   4.085  16.345  0.00  0.00    +0.000 A 
ATOM      3  C   UNL     1       5.750   4.142  15.228  0.00  0.00    +0.000 A 
ATOM      4  C   UNL     1       5.480   3.430  14.055  0.00  0.00    +0.000 A 
ATOM      5  C   UNL     1       6.188   3.736  12.891  0.00  0.00    +0.000 A 
ATOM      6  C   UNL     1       7.255   4.642  12.921  0.00  0.00    +0.000 A 
ATOM      7  C   UNL     1       7.605   5.292  14.109  0.00  0.00    +0.000 A 
ATOM      8  C   UNL     1       6.830   5.080  15.251  0.00  0.00    +0.000 A 
ATOM      9  N   UNL     1       6.867   5.944  16.310  0.00  0.00    +0.000 N 
ATOM     10  C   UNL     1       5.617   6.312  16.730  0.00  0.00    +0.000 A 
ENDROOT
BRANCH   1  11
ATOM     11  S   UNL     1       4.110   5.344  18.723  0.00  0.00    +0.000 S 
BRANCH  11  17
ATOM     12  C   UNL     1       3.070   2.765  19.418  0.00  0.00    +0.000 A 
ATOM     13  C   UNL     1       1.988   1.863  19.344  0.00  0.00    +0.000 A 
ATOM     14  C   UNL     1       0.778   2.223  18.766  0.00  0.00    +0.000 A 
ATOM     15  C   UNL     1       0.611   3.502  18.259  0.00  0.00    +0.000 A 
ATOM     16  C   UNL     1       1.656   4.420  18.352  0.00  0.00    +0.000 A 
ATOM     17  C   UNL     1       2.893   4.069  18.917  0.00  0.00    +0.000 A 
BRANCH  12  19
ATOM     18  F   UNL     1       4.303   1.989  21.337  0.00  0.00    +0.000 F 
ATOM     19  C   UNL     1       4.360   2.259  20.004  0.00  0.00    +0.000 C 
ATOM     20  F   UNL     1       5.384   3.152  19.870  0.00  0.00    +0.000 F 
ATOM     21  F   UNL     1       4.806   1.110  19.419  0.00  0.00    +0.000 F 
ENDBRANCH  12  19
ENDBRANCH  11  17
ENDBRANCH   1  11
BRANCH   9  22
ATOM     22  C   UNL     1       7.664   5.645  17.545  0.00  0.00    +0.000 C 
BRANCH  22  23
ATOM     23  C   UNL     1       7.772   6.617  18.693  0.00  0.00    +0.000 C 
BRANCH  23  24
ATOM     24  C   UNL     1       8.185   7.940  17.998  0.00  0.00    +0.000 C 
BRANCH  24  25
ATOM     25  C   UNL     1       8.664   9.089  18.869  0.00  0.00    +0.000 C 
BRANCH  25  26
ATOM     26  C   UNL     1       8.865  10.369  18.067  0.00  0.00    +0.000 C 
BRANCH  26  27
ATOM     27  C   UNL     1      10.180  11.105  18.389  0.00  0.00    +0.000 C 
ATOM     28  C   UNL     1      10.302  12.368  17.516  0.00  0.00    +0.000 C 
ATOM     29  C   UNL     1       9.337  13.480  17.939  0.00  0.00    +0.000 C 
ATOM     30  C   UNL     1       9.449  13.808  19.424  0.00  0.00    +0.000 C 
ATOM     31  C   UNL     1       9.345  12.567  20.302  0.00  0.00    +0.000 C 
ATOM     32  C   UNL     1      10.343  11.496  19.869  0.00  0.00    +0.000 C 
ENDBRANCH  26  27
ENDBRANCH  25  26
ENDBRANCH  24  25
ENDBRANCH  23  24
ENDBRANCH  22  23
ENDBRANCH   9  22
TORSDOF 9
ENDMDL
MODEL 3
REMARK VINA RESULT:      -8.1      0.644      1.451
REMARK  Name = 
REMARK  9 active torsions:
REMARK  status: ('A' for Active; 'I' for Inactive)
REMARK    1  A    between atoms: C_2  and  C_5
REMARK    2  A    between atoms: C_10  and  S_11
REMARK    3  A    between atoms: S_11  and  C_12
REMARK    4  A    between atoms: N_20  and  C_21
REMARK    5  A    between atoms: C_21  and  C_22
REMARK    6  A    between atoms: C_22  and  C_23
REMARK    7  A    between atoms: C_23  and  C_24
REMARK    8  A    between atoms: C_24  and  C_25
REMARK    9  A    between atoms: C_25  and  C_26
REMARK                            x       y       z     vdW  Elec       q    Type
REMARK                         _______ _______ _______ _____ _____    ______ ____
ROOT
ATOM      1  C   UNL     1       4.547   5.455  16.472  0.00  0.00    +0.000 A 
ATOM      2  C   UNL     1       4.680   4.274  15.752  0.00  0.00    +0.000 A 
ATOM      3  C   UNL     1       5.651   4.252  14.741  0.00  0.00    +0.000 A 
ATOM      4  C   UNL     1       5.478   3.522  13.561  0.00  0.00    +0.000 A 
ATOM      5  C   UNL     1       6.334   3.755  12.482  0.00  0.00    +0.000 A 
ATOM      6  C   UNL     1       7.441   4.601  12.617  0.00  0.00    +0.000 A 
ATOM      7  C   UNL     1       7.688   5.265  13.824  0.00  0.00    +0.000 A 
ATOM      8  C   UNL     1       6.774   5.129  14.871  0.00  0.00    +0.000 A 
ATOM      9  N   UNL     1       6.738   6.020  15.907  0.00  0.00    +0.000 N 
ATOM     10  C   UNL     1       5.470   6.469  16.169  0.00  0.00    +0.000 A 
ENDROOT
BRANCH   1  11
ATOM     11  S   UNL     1       3.688   5.643  17.992  0.00  0.00    +0.000 S 
BRANCH  11  17
ATOM     12  C   UNL     1       2.575   3.317  19.243  0.00  0.00    +0.000 A 
ATOM     13  C   UNL     1       2.799   2.181  20.048  0.00  0.00    +0.000 A 
ATOM     14  C   UNL     1       4.074   1.834  20.479  0.00  0.00    +0.000 A 
ATOM     15  C   UNL     1       5.161   2.606  20.101  0.00  0.00    +0.000 A 
ATOM     16  C   UNL     1       4.966   3.714  19.278  0.00  0.00    +0.000 A 
ATOM     17  C   UNL     1       3.683   4.091  18.847  0.00  0.00    +0.000 A 
BRANCH  12  19
ATOM     18  F   UNL     1       1.003   4.244  17.669  0.00  0.00    +0.000 F 
ATOM     19  C   UNL     1       1.151   3.646  18.883  0.00  0.00    +0.000 C 
ATOM     20  F   UNL     1       0.569   4.504  19.771  0.00  0.00    +0.000 F 
ATOM     21  F   UNL     1       0.335   2.552  18.853  0.00  0.00    +0.000 F 
ENDBRANCH  12  19
ENDBRANCH  11  17
ENDBRANCH   1  11
BRANCH   9  22
ATOM     22  C   UNL     1       7.367   5.713  17.235  0.00  0.00    +0.000 C 
BRANCH  22  23
ATOM     23  C   UNL     1       7.370   6.699  18.375  0.00  0.00    +0.000 C 
BRANCH  23  24
ATOM     24  C   UNL     1       7.947   7.985  17.728  0.00  0.00    +0.000 C 
BRANCH  24  25
ATOM     25  C   UNL     1       8.707   8.956  18.616  0.00  0.00    +0.000 C 
BRANCH  25  26
ATOM     26  C   UNL     1       8.747  10.360  18.024  0.00  0.00    +0.000 C 
BRANCH  26  27
ATOM     27  C   UNL     1      10.026  11.146  18.375  0.00  0.00    +0.000 C 
ATOM     28  C   UNL     1      10.002  12.522  17.683  0.00  0.00    +0.000 C 
ATOM     29  C   UNL     1       8.991  13.486  18.311  0.00  0.00    +0.000 C 
ATOM     30  C   UNL     1       9.176  13.617  19.818  0.00  0.00    +0.000 C 
ATOM     31  C   UNL     1       9.217  12.263  20.517  0.00  0.00    +0.000 C 
ATOM     32  C   UNL     1      10.257  11.343  19.884  0.00  0.00    +0.000 C 
ENDBRANCH  26  27
ENDBRANCH  25  26
ENDBRANCH  24  25
ENDBRANCH  23  24
ENDBRANCH  22  23
ENDBRANCH   9  22
TORSDOF 9
ENDMDL
MODEL 4
REMARK VINA RESULT:      -8.0      1.603      2.144
REMARK  Name = 
REMARK  9 active torsions:
REMARK  status: ('A' for Active; 'I' for Inactive)
REMARK    1  A    between atoms: C_2  and  C_5
REMARK    2  A    between atoms: C_10  and  S_11
REMARK    3  A    between atoms: S_11  and  C_12
REMARK    4  A    between atoms: N_20  and  C_21
REMARK    5  A    between atoms: C_21  and  C_22
REMARK    6  A    between atoms: C_22  and  C_23
REMARK    7  A    between atoms: C_23  and  C_24
REMARK    8  A    between atoms: C_24  and  C_25
REMARK    9  A    between atoms: C_25  and  C_26
REMARK                            x       y       z     vdW  Elec       q    Type
REMARK                         _______ _______ _______ _____ _____    ______ ____
ROOT
ATOM      1  C   UNL     1       4.392   5.665  16.365  0.00  0.00    +0.000 A 
ATOM      2  C   UNL     1       4.530   4.416  15.773  0.00  0.00    +0.000 A 
ATOM      3  C   UNL     1       5.511   4.289  14.779  0.00  0.00    +0.000 A 
ATOM      4  C   UNL     1       5.348   3.440  13.679  0.00  0.00    +0.000 A 
ATOM      5  C   UNL     1       6.215   3.560  12.590  0.00  0.00    +0.000 A 
ATOM      6  C   UNL     1       7.321   4.416  12.648  0.00  0.00    +0.000 A 
ATOM      7  C   UNL     1       7.557   5.201  13.782  0.00  0.00    +0.000 A 
ATOM      8  C   UNL     1       6.633   5.175  14.828  0.00  0.00    +0.000 A 
ATOM      9  N   UNL     1       6.588   6.168  15.766  0.00  0.00    +0.000 N 
ATOM     10  C   UNL     1       5.319   6.642  15.967  0.00  0.00    +0.000 A 
ENDROOT
BRANCH   1  11
ATOM     11  S   UNL     1       3.517   6.010  17.848  0.00  0.00    +0.000 S 
BRANCH  11  17
ATOM     12  C   UNL     1       3.391   3.412  19.050  0.00  0.00    +0.000 A 
ATOM     13  C   UNL     1       2.619   2.259  19.305  0.00  0.00    +0.000 A 
ATOM     14  C   UNL     1       1.281   2.182  18.939  0.00  0.00    +0.000 A 
ATOM     15  C   UNL     1       0.675   3.264  18.321  0.00  0.00    +0.000 A 
ATOM     16  C   UNL     1       1.410   4.426  18.089  0.00  0.00    +0.000 A 
ATOM     17  C   UNL     1       2.768   4.516  18.436  0.00  0.00    +0.000 A 
BRANCH  12  19
ATOM     18  F   UNL     1       5.185   2.345  20.253  0.00  0.00    +0.000 F 
ATOM     19  C   UNL     1       4.847   3.372  19.426  0.00  0.00    +0.000 C 
ATOM     20  F   UNL     1       5.252   4.499  20.081  0.00  0.00    +0.000 F 
ATOM     21  F   UNL     1       5.680   3.263  18.350  0.00  0.00    +0.000 F 
ENDBRANCH  12  19
ENDBRANCH  11  17
ENDBRANCH   1  11
BRANCH   9  22
ATOM     22  C   UNL     1       7.204   6.001  17.124  0.00  0.00    +0.000 C 
BRANCH  22  23
ATOM     23  C   UNL     1       7.064   7.039  18.209  0.00  0.00    +0.000 C 
BRANCH  23  24
ATOM     24  C   UNL     1       8.403   7.818  18.125  0.00  0.00    +0.000 C 
BRANCH  24  25
ATOM     25  C   UNL     1       8.354   9.336  18.185  0.00  0.00    +0.000 C 
BRANCH  25  26
ATOM     26  C   UNL     1       9.210   9.891  19.317  0.00  0.00    +0.000 C 
BRANCH  26  27
ATOM     27  C   UNL     1       9.231  11.431  19.382  0.00  0.00    +0.000 C 
ATOM     28  C   UNL     1      10.296  11.898  20.392  0.00  0.00    +0.000 C 
ATOM     29  C   UNL     1      11.727  11.695  19.885  0.00  0.00    +0.000 C 
ATOM     30  C   UNL     1      11.946  12.313  18.509  0.00  0.00    +0.000 C 
ATOM     31  C   UNL     1      10.891  11.873  17.500  0.00  0.00    +0.000 C 
ATOM     32  C   UNL     1       9.481  12.120  18.029  0.00  0.00    +0.000 C 
ENDBRANCH  26  27
ENDBRANCH  25  26
ENDBRANCH  24  25
ENDBRANCH  23  24
ENDBRANCH  22  23
ENDBRANCH   9  22
TORSDOF 9
ENDMDL
MODEL 5
REMARK VINA RESULT:      -8.0      1.478      1.930
REMARK  Name = 
REMARK  9 active torsions:
REMARK  status: ('A' for Active; 'I' for Inactive)
REMARK    1  A    between atoms: C_2  and  C_5
REMARK    2  A    between atoms: C_10  and  S_11
REMARK    3  A    between atoms: S_11  and  C_12
REMARK    4  A    between atoms: N_20  and  C_21
REMARK    5  A    between atoms: C_21  and  C_22
REMARK    6  A    between atoms: C_22  and  C_23
REMARK    7  A    between atoms: C_23  and  C_24
REMARK    8  A    between atoms: C_24  and  C_25
REMARK    9  A    between atoms: C_25  and  C_26
REMARK                            x       y       z     vdW  Elec       q    Type
REMARK                         _______ _______ _______ _____ _____    ______ ____
ROOT
ATOM      1  C   UNL     1       5.120   4.483  17.207  0.00  0.00    +0.000 A 
ATOM      2  C   UNL     1       5.502   3.467  16.339  0.00  0.00    +0.000 A 
ATOM      3  C   UNL     1       6.166   3.850  15.166  0.00  0.00    +0.000 A 
ATOM      4  C   UNL     1       6.006   3.155  13.962  0.00  0.00    +0.000 A 
ATOM      5  C   UNL     1       6.459   3.734  12.774  0.00  0.00    +0.000 A 
ATOM      6  C   UNL     1       7.191   4.927  12.794  0.00  0.00    +0.000 A 
ATOM      7  C   UNL     1       7.447   5.587  14.001  0.00  0.00    +0.000 A 
ATOM      8  C   UNL     1       6.899   5.077  15.180  0.00  0.00    +0.000 A 
ATOM      9  N   UNL     1       6.780   5.848  16.303  0.00  0.00    +0.000 N 
ATOM     10  C   UNL     1       5.528   5.779  16.855  0.00  0.00    +0.000 A 
ENDROOT
BRANCH   1  11
ATOM     11  S   UNL     1       4.612   4.275  18.875  0.00  0.00    +0.000 S 
BRANCH  11  17
ATOM     12  C   UNL     1       1.847   4.143  19.618  0.00  0.00    +0.000 A 
ATOM     13  C   UNL     1       0.649   3.398  19.604  0.00  0.00    +0.000 A 
ATOM     14  C   UNL     1       0.551   2.188  18.928  0.00  0.00    +0.000 A 
ATOM     15  C   UNL     1       1.646   1.699  18.234  0.00  0.00    +0.000 A 
ATOM     16  C   UNL     1       2.829   2.435  18.206  0.00  0.00    +0.000 A 
ATOM     17  C   UNL     1       2.953   3.651  18.898  0.00  0.00    +0.000 A 
BRANCH  12  19
ATOM     18  F   UNL     1       2.697   5.364  21.513  0.00  0.00    +0.000 F 
ATOM     19  C   UNL     1       1.871   5.408  20.432  0.00  0.00    +0.000 C 
ATOM     20  F   UNL     1       0.645   5.730  20.939  0.00  0.00    +0.000 F 
ATOM     21  F   UNL     1       2.264   6.503  19.718  0.00  0.00    +0.000 F 
ENDBRANCH  12  19
ENDBRANCH  11  17
ENDBRANCH   1  11
BRANCH   9  22
ATOM     22  C   UNL     1       7.756   5.747  17.439  0.00  0.00    +0.000 C 
BRANCH  22  23
ATOM     23  C   UNL     1       7.907   6.833  18.474  0.00  0.00    +0.000 C 
BRANCH  23  24
ATOM     24  C   UNL     1       7.641   8.130  17.666  0.00  0.00    +0.000 C 
BRANCH  24  25
ATOM     25  C   UNL     1       8.760   9.152  17.563  0.00  0.00    +0.000 C 
BRANCH  25  26
ATOM     26  C   UNL     1       8.903   9.973  18.840  0.00  0.00    +0.000 C 
BRANCH  26  27
ATOM     27  C   UNL     1       9.213  11.462  18.589  0.00  0.00    +0.000 C 
ATOM     28  C   UNL     1       9.215  12.229  19.925  0.00  0.00    +0.000 C 
ATOM     29  C   UNL     1      10.436  11.910  20.793  0.00  0.00    +0.000 C 
ATOM     30  C   UNL     1      11.746  12.093  20.037  0.00  0.00    +0.000 C 
ATOM     31  C   UNL     1      11.756  11.352  18.704  0.00  0.00    +0.000 C 
ATOM     32  C   UNL     1      10.542  11.720  17.856  0.00  0.00    +0.000 C 
ENDBRANCH  26  27
ENDBRANCH  25  26
ENDBRANCH  24  25
ENDBRANCH  23  24
ENDBRANCH  22  23
ENDBRANCH   9  22
TORSDOF 9
ENDMDL
MODEL 6
REMARK VINA RESULT:      -7.9      1.374      1.681
REMARK  Name = 
REMARK  9 active torsions:
REMARK  status: ('A' for Active; 'I' for Inactive)
REMARK    1  A    between atoms: C_2  and  C_5
REMARK    2  A    between atoms: C_10  and  S_11
REMARK    3  A    between atoms: S_11  and  C_12
REMARK    4  A    between atoms: N_20  and  C_21
REMARK    5  A    between atoms: C_21  and  C_22
REMARK    6  A    between atoms: C_22  and  C_23
REMARK    7  A    between atoms: C_23  and  C_24
REMARK    8  A    between atoms: C_24  and  C_25
REMARK    9  A    between atoms: C_25  and  C_26
REMARK                            x       y       z     vdW  Elec       q    Type
REMARK                         _______ _______ _______ _____ _____    ______ ____
ROOT
ATOM      1  C   UNL     1       4.511   5.507  16.692  0.00  0.00    +0.000 A 
ATOM      2  C   UNL     1       4.678   4.339  15.957  0.00  0.00    +0.000 A 
ATOM      3  C   UNL     1       5.671   4.349  14.968  0.00  0.00    +0.000 A 
ATOM      4  C   UNL     1       5.536   3.635  13.773  0.00  0.00    +0.000 A 
ATOM      5  C   UNL     1       6.411   3.898  12.717  0.00  0.00    +0.000 A 
ATOM      6  C   UNL     1       7.501   4.759  12.890  0.00  0.00    +0.000 A 
ATOM      7  C   UNL     1       7.711   5.407  14.112  0.00  0.00    +0.000 A 
ATOM      8  C   UNL     1       6.776   5.241  15.136  0.00  0.00    +0.000 A 
ATOM      9  N   UNL     1       6.704   6.114  16.185  0.00  0.00    +0.000 N 
ATOM     10  C   UNL     1       5.424   6.539  16.425  0.00  0.00    +0.000 A 
ENDROOT
BRANCH   1  11
ATOM     11  S   UNL     1       3.615   5.658  18.195  0.00  0.00    +0.000 S 
BRANCH  11  17
ATOM     12  C   UNL     1       2.095   3.732  19.677  0.00  0.00    +0.000 A 
ATOM     13  C   UNL     1       1.573   2.423  19.735  0.00  0.00    +0.000 A 
ATOM     14  C   UNL     1       1.698   1.541  18.669  0.00  0.00    +0.000 A 
ATOM     15  C   UNL     1       2.335   1.951  17.508  0.00  0.00    +0.000 A 
ATOM     16  C   UNL     1       2.829   3.251  17.417  0.00  0.00    +0.000 A 
ATOM     17  C   UNL     1       2.728   4.151  18.491  0.00  0.00    +0.000 A 
BRANCH  12  19
ATOM     18  F   UNL     1       0.862   5.386  20.922  0.00  0.00    +0.000 F 
ATOM     19  C   UNL     1       1.965   4.588  20.907  0.00  0.00    +0.000 C 
ATOM     20  F   UNL     1       3.019   5.442  21.066  0.00  0.00    +0.000 F 
ATOM     21  F   UNL     1       1.909   3.867  22.064  0.00  0.00    +0.000 F 
ENDBRANCH  12  19
ENDBRANCH  11  17
ENDBRANCH   1  11
BRANCH   9  22
ATOM     22  C   UNL     1       7.308   5.797  17.521  0.00  0.00    +0.000 C 
BRANCH  22  23
ATOM     23  C   UNL     1       7.851   6.864  18.438  0.00  0.00    +0.000 C 
BRANCH  23  24
ATOM     24  C   UNL     1       8.055   8.073  17.489  0.00  0.00    +0.000 C 
BRANCH  24  25
ATOM     25  C   UNL     1       7.983   9.470  18.082  0.00  0.00    +0.000 C 
BRANCH  25  26
ATOM     26  C   UNL     1       9.354  10.132  18.154  0.00  0.00    +0.000 C 
BRANCH  26  27
ATOM     27  C   UNL     1       9.341  11.519  18.824  0.00  0.00    +0.000 C 
ATOM     28  C   UNL     1      10.394  11.570  19.947  0.00  0.00    +0.000 C 
ATOM     29  C   UNL     1      11.830  11.615  19.414  0.00  0.00    +0.000 C 
ATOM     30  C   UNL     1      12.034  12.733  18.398  0.00  0.00    +0.000 C 
ATOM     31  C   UNL     1      10.990  12.706  17.287  0.00  0.00    +0.000 C 
ATOM     32  C   UNL     1       9.575  12.694  17.857  0.00  0.00    +0.000 C 
ENDBRANCH  26  27
ENDBRANCH  25  26
ENDBRANCH  24  25
ENDBRANCH  23  24
ENDBRANCH  22  23
ENDBRANCH   9  22
TORSDOF 9
ENDMDL
MODEL 7
REMARK VINA RESULT:      -7.9      1.575      2.263
REMARK  Name = 
REMARK  9 active torsions:
REMARK  status: ('A' for Active; 'I' for Inactive)
REMARK    1  A    between atoms: C_2  and  C_5
REMARK    2  A    between atoms: C_10  and  S_11
REMARK    3  A    between atoms: S_11  and  C_12
REMARK    4  A    between atoms: N_20  and  C_21
REMARK    5  A    between atoms: C_21  and  C_22
REMARK    6  A    between atoms: C_22  and  C_23
REMARK    7  A    between atoms: C_23  and  C_24
REMARK    8  A    between atoms: C_24  and  C_25
REMARK    9  A    between atoms: C_25  and  C_26
REMARK                            x       y       z     vdW  Elec       q    Type
REMARK                         _______ _______ _______ _____ _____    ______ ____
ROOT
ATOM      1  C   UNL     1       4.748   4.185  16.143  0.00  0.00    +0.000 A 
ATOM      2  C   UNL     1       5.275   3.368  15.149  0.00  0.00    +0.000 A 
ATOM      3  C   UNL     1       6.231   3.940  14.298  0.00  0.00    +0.000 A 
ATOM      4  C   UNL     1       6.336   3.578  12.951  0.00  0.00    +0.000 A 
ATOM      5  C   UNL     1       7.103   4.366  12.090  0.00  0.00    +0.000 A 
ATOM      6  C   UNL     1       7.874   5.424  12.586  0.00  0.00    +0.000 A 
ATOM      7  C   UNL     1       7.859   5.740  13.949  0.00  0.00    +0.000 A 
ATOM      8  C   UNL     1       7.007   5.032  14.798  0.00  0.00    +0.000 A 
ATOM      9  N   UNL     1       6.656   5.520  16.026  0.00  0.00    +0.000 N 
ATOM     10  C   UNL     1       5.304   5.470  16.243  0.00  0.00    +0.000 A 
ENDROOT
BRANCH   1  11
ATOM     11  S   UNL     1       3.830   3.645  17.539  0.00  0.00    +0.000 S 
BRANCH  11  17
ATOM     12  C   UNL     1       2.650   5.099  19.709  0.00  0.00    +0.000 A 
ATOM     13  C   UNL     1       2.162   6.335  20.182  0.00  0.00    +0.000 A 
ATOM     14  C   UNL     1       2.262   7.496  19.426  0.00  0.00    +0.000 A 
ATOM     15  C   UNL     1       2.870   7.455  18.181  0.00  0.00    +0.000 A 
ATOM     16  C   UNL     1       3.389   6.251  17.708  0.00  0.00    +0.000 A 
ATOM     17  C   UNL     1       3.281   5.063  18.450  0.00  0.00    +0.000 A 
BRANCH  12  19
ATOM     18  F   UNL     1       1.452   3.053  20.136  0.00  0.00    +0.000 F 
ATOM     19  C   UNL     1       2.434   3.888  20.574  0.00  0.00    +0.000 C 
ATOM     20  F   UNL     1       2.078   4.211  21.851  0.00  0.00    +0.000 F 
ATOM     21  F   UNL     1       3.547   3.107  20.698  0.00  0.00    +0.000 F 
ENDBRANCH  12  19
ENDBRANCH  11  17
ENDBRANCH   1  11
BRANCH   9  22
ATOM     22  C   UNL     1       7.311   5.035  17.286  0.00  0.00    +0.000 C 
BRANCH  22  23
ATOM     23  C   UNL     1       7.630   5.954  18.438  0.00  0.00    +0.000 C 
BRANCH  23  24
ATOM     24  C   UNL     1       7.890   7.315  17.740  0.00  0.00    +0.000 C 
BRANCH  24  25
ATOM     25  C   UNL     1       8.488   8.441  18.567  0.00  0.00    +0.000 C 
BRANCH  25  26
ATOM     26  C   UNL     1       8.649   9.722  17.756  0.00  0.00    +0.000 C 
BRANCH  26  27
ATOM     27  C   UNL     1       8.544  11.008  18.599  0.00  0.00    +0.000 C 
ATOM     28  C   UNL     1       9.546  10.953  19.767  0.00  0.00    +0.000 C 
ATOM     29  C   UNL     1      10.999  11.123  19.313  0.00  0.00    +0.000 C 
ATOM     30  C   UNL     1      11.196  12.372  18.461  0.00  0.00    +0.000 C 
ATOM     31  C   UNL     1      10.202  12.450  17.308  0.00  0.00    +0.000 C 
ATOM     32  C   UNL     1       8.766  12.308  17.804  0.00  0.00    +0.000 C 
ENDBRANCH  26  27
ENDBRANCH  25  26
ENDBRANCH  24  25
ENDBRANCH  23  24
ENDBRANCH  22  23
ENDBRANCH   9  22
TORSDOF 9
ENDMDL
MODEL 8
REMARK VINA RESULT:      -7.9      7.327     11.180
REMARK  Name = 
REMARK  9 active torsions:
REMARK  status: ('A' for Active; 'I' for Inactive)
REMARK    1  A    between atoms: C_2  and  C_5
REMARK    2  A    between atoms: C_10  and  S_11
REMARK    3  A    between atoms: S_11  and  C_12
REMARK    4  A    between atoms: N_20  and  C_21
REMARK    5  A    between atoms: C_21  and  C_22
REMARK    6  A    between atoms: C_22  and  C_23
REMARK    7  A    between atoms: C_23  and  C_24
REMARK    8  A    between atoms: C_24  and  C_25
REMARK    9  A    between atoms: C_25  and  C_26
REMARK                            x       y       z     vdW  Elec       q    Type
REMARK                         _______ _______ _______ _____ _____    ______ ____
ROOT
ATOM      1  C   UNL     1      -0.564  12.224  19.284  0.00  0.00    +0.000 A 
ATOM      2  C   UNL     1      -0.243  12.333  20.632  0.00  0.00    +0.000 A 
ATOM      3  C   UNL     1      -0.203  11.143  21.372  0.00  0.00    +0.000 A 
ATOM      4  C   UNL     1      -0.578  11.094  22.719  0.00  0.00    +0.000 A 
ATOM      5  C   UNL     1      -0.788   9.854  23.326  0.00  0.00    +0.000 A 
ATOM      6  C   UNL     1      -0.492   8.667  22.645  0.00  0.00    +0.000 A 
ATOM      7  C   UNL     1      -0.020   8.698  21.328  0.00  0.00    +0.000 A 
ATOM      8  C   UNL     1       0.083   9.928  20.675  0.00  0.00    +0.000 A 
ATOM      9  N   UNL     1       0.159  10.008  19.312  0.00  0.00    +0.000 N 
ATOM     10  C   UNL     1      -0.720  10.919  18.791  0.00  0.00    +0.000 A 
ENDROOT
BRANCH   1  11
ATOM     11  S   UNL     1      -0.337  13.471  18.068  0.00  0.00    +0.000 S 
BRANCH  11  17
ATOM     12  C   UNL     1       1.178  15.781  18.831  0.00  0.00    +0.000 A 
ATOM     13  C   UNL     1       2.451  16.371  18.972  0.00  0.00    +0.000 A 
ATOM     14  C   UNL     1       3.617  15.652  18.741  0.00  0.00    +0.000 A 
ATOM     15  C   UNL     1       3.540  14.316  18.378  0.00  0.00    +0.000 A 
ATOM     16  C   UNL     1       2.293  13.704  18.265  0.00  0.00    +0.000 A 
ATOM     17  C   UNL     1       1.103  14.420  18.477  0.00  0.00    +0.000 A 
BRANCH  12  19
ATOM     18  F   UNL     1       0.266  17.908  19.502  0.00  0.00    +0.000 F 
ATOM     19  C   UNL     1      -0.024  16.661  19.039  0.00  0.00    +0.000 C 
ATOM     20  F   UNL     1      -0.903  16.145  19.948  0.00  0.00    +0.000 F 
ATOM     21  F   UNL     1      -0.756  16.856  17.903  0.00  0.00    +0.000 F 
ENDBRANCH  12  19
ENDBRANCH  11  17
ENDBRANCH   1  11
BRANCH   9  22
ATOM     22  C   UNL     1       1.466  10.219  18.605  0.00  0.00    +0.000 C 
BRANCH  22  23
ATOM     23  C   UNL     1       2.030   9.217  17.631  0.00  0.00    +0.000 C 
BRANCH  23  24
ATOM     24  C   UNL     1       2.297   7.974  18.519  0.00  0.00    +0.000 C 
BRANCH  24  25
ATOM     25  C   UNL     1       3.247   6.910  17.995  0.00  0.00    +0.000 C 
BRANCH  25  26
ATOM     26  C   UNL     1       2.733   5.501  18.269  0.00  0.00    +0.000 C 
BRANCH  26  27
ATOM     27  C   UNL     1       3.215   4.913  19.610  0.00  0.00    +0.000 C 
ATOM     28  C   UNL     1       2.104   5.043  20.669  0.00  0.00    +0.000 C 
ATOM     29  C   UNL     1       0.939   4.078  20.430  0.00  0.00    +0.000 C 
ATOM     30  C   UNL     1       1.406   2.635  20.277  0.00  0.00    +0.000 C 
ATOM     31  C   UNL     1       2.517   2.490  19.243  0.00  0.00    +0.000 C 
ATOM     32  C   UNL     1       3.671   3.445  19.532  0.00  0.00    +0.000 C 
ENDBRANCH  26  27
ENDBRANCH  25  26
ENDBRANCH  24  25
ENDBRANCH  23  24
ENDBRANCH  22  23
ENDBRANCH   9  22
TORSDOF 9
ENDMDL
MODEL 9
REMARK VINA RESULT:      -7.9      1.360      1.917
REMARK  Name = 
REMARK  9 active torsions:
REMARK  status: ('A' for Active; 'I' for Inactive)
REMARK    1  A    between atoms: C_2  and  C_5
REMARK    2  A    between atoms: C_10  and  S_11
REMARK    3  A    between atoms: S_11  and  C_12
REMARK    4  A    between atoms: N_20  and  C_21
REMARK    5  A    between atoms: C_21  and  C_22
REMARK    6  A    between atoms: C_22  and  C_23
REMARK    7  A    between atoms: C_23  and  C_24
REMARK    8  A    between atoms: C_24  and  C_25
REMARK    9  A    between atoms: C_25  and  C_26
REMARK                            x       y       z     vdW  Elec       q    Type
REMARK                         _______ _______ _______ _____ _____    ______ ____
ROOT
ATOM      1  C   UNL     1       5.054   5.114  17.827  0.00  0.00    +0.000 A 
ATOM      2  C   UNL     1       5.319   3.956  17.106  0.00  0.00    +0.000 A 
ATOM      3  C   UNL     1       5.967   4.111  15.873  0.00  0.00    +0.000 A 
ATOM      4  C   UNL     1       5.707   3.268  14.787  0.00  0.00    +0.000 A 
ATOM      5  C   UNL     1       6.160   3.631  13.516  0.00  0.00    +0.000 A 
ATOM      6  C   UNL     1       6.986   4.748  13.345  0.00  0.00    +0.000 A 
ATOM      7  C   UNL     1       7.340   5.548  14.437  0.00  0.00    +0.000 A 
ATOM      8  C   UNL     1       6.798   5.260  15.691  0.00  0.00    +0.000 A 
ATOM      9  N   UNL     1       6.783   6.190  16.693  0.00  0.00    +0.000 N 
ATOM     10  C   UNL     1       5.551   6.308  17.281  0.00  0.00    +0.000 A 
ENDROOT
BRANCH   1  11
ATOM     11  S   UNL     1       4.593   5.190  19.520  0.00  0.00    +0.000 S 
BRANCH  11  17
ATOM     12  C   UNL     1       2.029   4.018  19.004  0.00  0.00    +0.000 A 
ATOM     13  C   UNL     1       0.972   3.216  19.485  0.00  0.00    +0.000 A 
ATOM     14  C   UNL     1       1.049   2.571  20.713  0.00  0.00    +0.000 A 
ATOM     15  C   UNL     1       2.192   2.697  21.486  0.00  0.00    +0.000 A 
ATOM     16  C   UNL     1       3.261   3.457  21.015  0.00  0.00    +0.000 A 
ATOM     17  C   UNL     1       3.195   4.132  19.785  0.00  0.00    +0.000 A 
BRANCH  12  19
ATOM     18  F   UNL     1       2.649   4.312  16.695  0.00  0.00    +0.000 F 
ATOM     19  C   UNL     1       1.824   4.728  17.694  0.00  0.00    +0.000 C 
ATOM     20  F   UNL     1       2.034   6.074  17.786  0.00  0.00    +0.000 F 
ATOM     21  F   UNL     1       0.558   4.595  17.199  0.00  0.00    +0.000 F 
ENDBRANCH  12  19
ENDBRANCH  11  17
ENDBRANCH   1  11
BRANCH   9  22
ATOM     22  C   UNL     1       7.789   6.169  17.806  0.00  0.00    +0.000 C 
BRANCH  22  23
ATOM     23  C   UNL     1       8.042   7.362  18.692  0.00  0.00    +0.000 C 
BRANCH  23  24
ATOM     24  C   UNL     1       8.190   8.528  17.679  0.00  0.00    +0.000 C 
BRANCH  24  25
ATOM     25  C   UNL     1       8.137   9.950  18.211  0.00  0.00    +0.000 C 
BRANCH  25  26
ATOM     26  C   UNL     1       9.497  10.636  18.143  0.00  0.00    +0.000 C 
BRANCH  26  27
ATOM     27  C   UNL     1      10.189  10.780  19.513  0.00  0.00    +0.000 C 
ATOM     28  C   UNL     1      11.508  11.559  19.354  0.00  0.00    +0.000 C 
ATOM     29  C   UNL     1      11.290  13.050  19.078  0.00  0.00    +0.000 C 
ATOM     30  C   UNL     1      10.372  13.700  20.107  0.00  0.00    +0.000 C 
ATOM     31  C   UNL     1       9.066  12.933  20.287  0.00  0.00    +0.000 C 
ATOM     32  C   UNL     1       9.326  11.461  20.591  0.00  0.00    +0.000 C 
ENDBRANCH  26  27
ENDBRANCH  25  26
ENDBRANCH  24  25
ENDBRANCH  23  24
ENDBRANCH  22  23
ENDBRANCH   9  22
TORSDOF 9
ENDMDL
