MODEL 1
REMARK VINA RESULT:      -6.5      0.000      0.000
REMARK  Name = 
REMARK  10 active torsions:
REMARK  status: ('A' for Active; 'I' for Inactive)
REMARK    1  A    between atoms: C_2  and  C_3
REMARK    2  A    between atoms: C_2  and  C_18
REMARK    3  A    between atoms: N_6  and  S_7
REMARK    4  A    between atoms: S_7  and  C_10
REMARK    5  A    between atoms: C_10  and  C_11
REMARK    6  A    between atoms: C_10  and  C_12
REMARK    7  A    between atoms: C_10  and  C_13
REMARK    8  A    between atoms: C_14  and  C_15
REMARK    9  A    between atoms: C_15  and  C_16
REMARK   10  A    between atoms: C_16  and  O_17
REMARK                            x       y       z     vdW  Elec       q    Type
REMARK                         _______ _______ _______ _____ _____    ______ ____
ROOT
ATOM      1  C   UNL     1       2.422   6.908  18.498  0.00  0.00    +0.000 C 
ATOM      2  C   UNL     1       1.973   7.968  17.819  0.00  0.00    +0.000 C 
ATOM      3  C   UNL     1       1.480   9.041  18.701  0.00  0.00    +0.000 C 
ATOM      4  N   UNL     1       1.766   8.582  20.077  0.00  0.00    +0.000 NA
ATOM      5  C   UNL     1       2.341   7.145  19.995  0.00  0.00    +0.000 C 
ENDROOT
BRANCH   4   6
ATOM      6  S   UNL     1       0.619   8.953  21.263  0.00  0.00    +0.000 S 
ATOM      7  O   UNL     1      -0.502   8.065  21.060  0.00  0.00    +0.000 OA
ATOM      8  O   UNL     1       1.326   8.954  22.532  0.00  0.00    +0.000 OA
BRANCH   6   9
ATOM      9  C   UNL     1       0.031  10.689  20.990  0.00  0.00    +0.000 C 
ATOM     10  C   UNL     1      -0.986  10.796  19.847  0.00  0.00    +0.000 C 
ATOM     11  C   UNL     1      -0.694  11.134  22.281  0.00  0.00    +0.000 C 
ATOM     12  C   UNL     1       1.228  11.611  20.747  0.00  0.00    +0.000 C 
ENDBRANCH   6   9
ENDBRANCH   4   6
BRANCH   1  14
ATOM     13  C   UNL     1       1.908   4.724  17.662  0.00  0.00    +0.000 C 
ATOM     14  C   UNL     1       2.846   5.682  17.831  0.00  0.00    +0.000 C 
BRANCH  14  15
ATOM     15  C   UNL     1       4.205   5.451  17.259  0.00  0.00    +0.000 A 
ATOM     16  C   UNL     1       4.500   4.263  16.573  0.00  0.00    +0.000 A 
ATOM     17  C   UNL     1       5.806   3.984  16.151  0.00  0.00    +0.000 A 
ATOM     18  C   UNL     1       6.835   4.889  16.401  0.00  0.00    +0.000 A 
ATOM     19  C   UNL     1       6.555   6.093  17.036  0.00  0.00    +0.000 A 
ATOM     20  C   UNL     1       5.249   6.377  17.444  0.00  0.00    +0.000 A 
ENDBRANCH  14  15
ENDBRANCH   1  14
BRANCH   5  21
ATOM     21  C   UNL     1       1.524   6.087  20.755  0.00  0.00    +0.000 C 
BRANCH  21  22
ATOM     22  C   UNL     1       2.286   4.828  21.162  0.00  0.00    +0.000 C 
BRANCH  22  23
ATOM     23  O   UNL     1       1.416   3.698  21.098  0.00  0.00    +0.000 OA
ATOM     24  H   UNL     1       1.921   2.919  21.391  0.00  0.00    +0.000 HD
ENDBRANCH  22  23
ENDBRANCH  21  22
ENDBRANCH   5  21
TORSDOF 7
ENDMDL
MODEL 2
REMARK VINA RESULT:      -6.5      0.553      1.347
REMARK  Name = 
REMARK  10 active torsions:
REMARK  status: ('A' for Active; 'I' for Inactive)
REMARK    1  A    between atoms: C_2  and  C_3
REMARK    2  A    between atoms: C_2  and  C_18
REMARK    3  A    between atoms: N_6  and  S_7
REMARK    4  A    between atoms: S_7  and  C_10
REMARK    5  A    between atoms: C_10  and  C_11
REMARK    6  A    between atoms: C_10  and  C_12
REMARK    7  A    between atoms: C_10  and  C_13
REMARK    8  A    between atoms: C_14  and  C_15
REMARK    9  A    between atoms: C_15  and  C_16
REMARK   10  A    between atoms: C_16  and  O_17
REMARK                            x       y       z     vdW  Elec       q    Type
REMARK                         _______ _______ _______ _____ _____    ______ ____
ROOT
ATOM      1  C   UNL     1       2.485   6.687  18.582  0.00  0.00    +0.000 C 
ATOM      2  C   UNL     1       2.074   7.731  17.856  0.00  0.00    +0.000 C 
ATOM      3  C   UNL     1       1.584   8.845  18.687  0.00  0.00    +0.000 C 
ATOM      4  N   UNL     1       1.831   8.431  20.085  0.00  0.00    +0.000 NA
ATOM      5  C   UNL     1       2.377   6.980  20.068  0.00  0.00    +0.000 C 
ENDROOT
BRANCH   4   6
ATOM      6  S   UNL     1       0.667   8.868  21.231  0.00  0.00    +0.000 S 
ATOM      7  O   UNL     1      -0.462   7.987  21.044  0.00  0.00    +0.000 OA
ATOM      8  O   UNL     1       1.350   8.915  22.512  0.00  0.00    +0.000 OA
BRANCH   6   9
ATOM      9  C   UNL     1       0.108  10.598  20.871  0.00  0.00    +0.000 C 
ATOM     10  C   UNL     1       1.263  11.521  20.465  0.00  0.00    +0.000 C 
ATOM     11  C   UNL     1      -0.856  10.524  19.664  0.00  0.00    +0.000 C 
ATOM     12  C   UNL     1      -0.647  11.162  22.078  0.00  0.00    +0.000 C 
ENDBRANCH   6   9
ENDBRANCH   4   6
BRANCH   1  14
ATOM     13  C   UNL     1       1.914   4.590  17.579  0.00  0.00    +0.000 C 
ATOM     14  C   UNL     1       2.899   5.430  17.969  0.00  0.00    +0.000 C 
BRANCH  14  15
ATOM     15  C   UNL     1       4.311   5.049  17.675  0.00  0.00    +0.000 A 
ATOM     16  C   UNL     1       5.328   5.296  18.609  0.00  0.00    +0.000 A 
ATOM     17  C   UNL     1       6.671   5.063  18.286  0.00  0.00    +0.000 A 
ATOM     18  C   UNL     1       7.018   4.575  17.028  0.00  0.00    +0.000 A 
ATOM     19  C   UNL     1       6.022   4.278  16.105  0.00  0.00    +0.000 A 
ATOM     20  C   UNL     1       4.681   4.497  16.434  0.00  0.00    +0.000 A 
ENDBRANCH  14  15
ENDBRANCH   1  14
BRANCH   5  21
ATOM     21  C   UNL     1       1.523   5.968  20.847  0.00  0.00    +0.000 C 
BRANCH  21  22
ATOM     22  C   UNL     1       2.211   4.652  21.200  0.00  0.00    +0.000 C 
BRANCH  22  23
ATOM     23  O   UNL     1       1.291   3.572  21.047  0.00  0.00    +0.000 OA
ATOM     24  H   UNL     1       1.645   2.976  20.363  0.00  0.00    +0.000 HD
ENDBRANCH  22  23
ENDBRANCH  21  22
ENDBRANCH   5  21
TORSDOF 7
ENDMDL
MODEL 3
REMARK VINA RESULT:      -6.5      3.420      5.438
REMARK  Name = 
REMARK  10 active torsions:
REMARK  status: ('A' for Active; 'I' for Inactive)
REMARK    1  A    between atoms: C_2  and  C_3
REMARK    2  A    between atoms: C_2  and  C_18
REMARK    3  A    between atoms: N_6  and  S_7
REMARK    4  A    between atoms: S_7  and  C_10
REMARK    5  A    between atoms: C_10  and  C_11
REMARK    6  A    between atoms: C_10  and  C_12
REMARK    7  A    between atoms: C_10  and  C_13
REMARK    8  A    between atoms: C_14  and  C_15
REMARK    9  A    between atoms: C_15  and  C_16
REMARK   10  A    between atoms: C_16  and  O_17
REMARK                            x       y       z     vdW  Elec       q    Type
REMARK                         _______ _______ _______ _____ _____    ______ ____
ROOT
ATOM      1  C   UNL     1       4.362   3.783  17.015  0.00  0.00    +0.000 C 
ATOM      2  C   UNL     1       4.259   2.463  17.199  0.00  0.00    +0.000 C 
ATOM      3  C   UNL     1       2.982   2.073  17.822  0.00  0.00    +0.000 C 
ATOM      4  N   UNL     1       2.198   3.322  17.929  0.00  0.00    +0.000 NA
ATOM      5  C   UNL     1       3.096   4.495  17.457  0.00  0.00    +0.000 C 
ENDROOT
BRANCH   4   6
ATOM      6  S   UNL     1       1.241   3.511  19.310  0.00  0.00    +0.000 S 
ATOM      7  O   UNL     1       0.823   4.893  19.349  0.00  0.00    +0.000 OA
ATOM      8  O   UNL     1       0.248   2.451  19.268  0.00  0.00    +0.000 OA
BRANCH   6   9
ATOM      9  C   UNL     1       2.290   3.188  20.802  0.00  0.00    +0.000 C 
ATOM     10  C   UNL     1       3.649   2.573  20.448  0.00  0.00    +0.000 C 
ATOM     11  C   UNL     1       2.574   4.556  21.465  0.00  0.00    +0.000 C 
ATOM     12  C   UNL     1       1.529   2.302  21.792  0.00  0.00    +0.000 C 
ENDBRANCH   6   9
ENDBRANCH   4   6
BRANCH   1  14
ATOM     13  C   UNL     1       5.946   4.122  15.253  0.00  0.00    +0.000 C 
ATOM     14  C   UNL     1       5.586   4.406  16.524  0.00  0.00    +0.000 C 
BRANCH  14  15
ATOM     15  C   UNL     1       6.412   5.383  17.293  0.00  0.00    +0.000 A 
ATOM     16  C   UNL     1       6.624   6.681  16.804  0.00  0.00    +0.000 A 
ATOM     17  C   UNL     1       7.504   7.556  17.453  0.00  0.00    +0.000 A 
ATOM     18  C   UNL     1       8.181   7.151  18.602  0.00  0.00    +0.000 A 
ATOM     19  C   UNL     1       7.949   5.886  19.129  0.00  0.00    +0.000 A 
ATOM     20  C   UNL     1       7.059   5.019  18.489  0.00  0.00    +0.000 A 
ENDBRANCH  14  15
ENDBRANCH   1  14
BRANCH   5  21
ATOM     21  C   UNL     1       3.326   5.587  18.514  0.00  0.00    +0.000 C 
BRANCH  21  22
ATOM     22  C   UNL     1       3.025   7.016  18.067  0.00  0.00    +0.000 C 
BRANCH  22  23
ATOM     23  O   UNL     1       2.270   7.686  19.076  0.00  0.00    +0.000 OA
ATOM     24  H   UNL     1       2.032   7.028  19.754  0.00  0.00    +0.000 HD
ENDBRANCH  22  23
ENDBRANCH  21  22
ENDBRANCH   5  21
TORSDOF 7
ENDMDL
MODEL 4
REMARK VINA RESULT:      -6.4      3.222      4.895
REMARK  Name = 
REMARK  10 active torsions:
REMARK  status: ('A' for Active; 'I' for Inactive)
REMARK    1  A    between atoms: C_2  and  C_3
REMARK    2  A    between atoms: C_2  and  C_18
REMARK    3  A    between atoms: N_6  and  S_7
REMARK    4  A    between atoms: S_7  and  C_10
REMARK    5  A    between atoms: C_10  and  C_11
REMARK    6  A    between atoms: C_10  and  C_12
REMARK    7  A    between atoms: C_10  and  C_13
REMARK    8  A    between atoms: C_14  and  C_15
REMARK    9  A    between atoms: C_15  and  C_16
REMARK   10  A    between atoms: C_16  and  O_17
REMARK                            x       y       z     vdW  Elec       q    Type
REMARK                         _______ _______ _______ _____ _____    ______ ____
ROOT
ATOM      1  C   UNL     1       5.648   5.453  16.739  0.00  0.00    +0.000 C 
ATOM      2  C   UNL     1       5.340   6.746  16.596  0.00  0.00    +0.000 C 
ATOM      3  C   UNL     1       4.149   7.137  17.371  0.00  0.00    +0.000 C 
ATOM      4  N   UNL     1       3.769   5.933  18.141  0.00  0.00    +0.000 NA
ATOM      5  C   UNL     1       4.702   4.772  17.712  0.00  0.00    +0.000 C 
ENDROOT
BRANCH   4   6
ATOM      6  S   UNL     1       2.115   5.641  18.340  0.00  0.00    +0.000 S 
ATOM      7  O   UNL     1       1.438   6.904  18.163  0.00  0.00    +0.000 OA
ATOM      8  O   UNL     1       1.791   4.515  17.482  0.00  0.00    +0.000 OA
BRANCH   6   9
ATOM      9  C   UNL     1       1.824   5.075  20.080  0.00  0.00    +0.000 C 
ATOM     10  C   UNL     1       1.252   6.181  20.975  0.00  0.00    +0.000 C 
ATOM     11  C   UNL     1       0.764   3.950  20.023  0.00  0.00    +0.000 C 
ATOM     12  C   UNL     1       3.120   4.510  20.667  0.00  0.00    +0.000 C 
ENDBRANCH   6   9
ENDBRANCH   4   6
BRANCH   1  14
ATOM     13  C   UNL     1       7.765   4.339  16.674  0.00  0.00    +0.000 C 
ATOM     14  C   UNL     1       6.716   4.821  15.973  0.00  0.00    +0.000 C 
BRANCH  14  15
ATOM     15  C   UNL     1       6.690   4.601  14.497  0.00  0.00    +0.000 A 
ATOM     16  C   UNL     1       5.756   3.728  13.919  0.00  0.00    +0.000 A 
ATOM     17  C   UNL     1       5.813   3.418  12.555  0.00  0.00    +0.000 A 
ATOM     18  C   UNL     1       6.798   3.979  11.745  0.00  0.00    +0.000 A 
ATOM     19  C   UNL     1       7.703   4.884  12.288  0.00  0.00    +0.000 A 
ATOM     20  C   UNL     1       7.637   5.204  13.646  0.00  0.00    +0.000 A 
ENDBRANCH  14  15
ENDBRANCH   1  14
BRANCH   5  21
ATOM     21  C   UNL     1       3.974   3.551  17.127  0.00  0.00    +0.000 C 
BRANCH  21  22
ATOM     22  C   UNL     1       3.972   2.300  18.002  0.00  0.00    +0.000 C 
BRANCH  22  23
ATOM     23  O   UNL     1       2.679   1.696  17.974  0.00  0.00    +0.000 OA
ATOM     24  H   UNL     1       2.601   1.203  17.138  0.00  0.00    +0.000 HD
ENDBRANCH  22  23
ENDBRANCH  21  22
ENDBRANCH   5  21
TORSDOF 7
ENDMDL
MODEL 5
REMARK VINA RESULT:      -6.4      3.126      4.826
REMARK  Name = 
REMARK  10 active torsions:
REMARK  status: ('A' for Active; 'I' for Inactive)
REMARK    1  A    between atoms: C_2  and  C_3
REMARK    2  A    between atoms: C_2  and  C_18
REMARK    3  A    between atoms: N_6  and  S_7
REMARK    4  A    between atoms: S_7  and  C_10
REMARK    5  A    between atoms: C_10  and  C_11
REMARK    6  A    between atoms: C_10  and  C_12
REMARK    7  A    between atoms: C_10  and  C_13
REMARK    8  A    between atoms: C_14  and  C_15
REMARK    9  A    between atoms: C_15  and  C_16
REMARK   10  A    between atoms: C_16  and  O_17
REMARK                            x       y       z     vdW  Elec       q    Type
REMARK                         _______ _______ _______ _____ _____    ______ ____
ROOT
ATOM      1  C   UNL     1       5.640   5.549  16.814  0.00  0.00    +0.000 C 
ATOM      2  C   UNL     1       5.345   6.837  16.612  0.00  0.00    +0.000 C 
ATOM      3  C   UNL     1       4.158   7.274  17.369  0.00  0.00    +0.000 C 
ATOM      4  N   UNL     1       3.767   6.110  18.193  0.00  0.00    +0.000 NA
ATOM      5  C   UNL     1       4.688   4.922  17.817  0.00  0.00    +0.000 C 
ENDROOT
BRANCH   4   6
ATOM      6  S   UNL     1       2.110   5.844  18.406  0.00  0.00    +0.000 S 
ATOM      7  O   UNL     1       1.459   7.129  18.309  0.00  0.00    +0.000 OA
ATOM      8  O   UNL     1       1.746   4.773  17.494  0.00  0.00    +0.000 OA
BRANCH   6   9
ATOM      9  C   UNL     1       1.835   5.191  20.118  0.00  0.00    +0.000 C 
ATOM     10  C   UNL     1       3.136   4.751  20.800  0.00  0.00    +0.000 C 
ATOM     11  C   UNL     1       1.254   6.351  20.960  0.00  0.00    +0.000 C 
ATOM     12  C   UNL     1       0.821   4.045  20.081  0.00  0.00    +0.000 C 
ENDBRANCH   6   9
ENDBRANCH   4   6
BRANCH   1  14
ATOM     13  C   UNL     1       7.712   4.350  16.806  0.00  0.00    +0.000 C 
ATOM     14  C   UNL     1       6.701   4.872  16.077  0.00  0.00    +0.000 C 
BRANCH  14  15
ATOM     15  C   UNL     1       6.705   4.649  14.601  0.00  0.00    +0.000 A 
ATOM     16  C   UNL     1       5.824   3.728  14.014  0.00  0.00    +0.000 A 
ATOM     17  C   UNL     1       5.914   3.419  12.651  0.00  0.00    +0.000 A 
ATOM     18  C   UNL     1       6.879   4.029  11.852  0.00  0.00    +0.000 A 
ATOM     19  C   UNL     1       7.729   4.980  12.404  0.00  0.00    +0.000 A 
ATOM     20  C   UNL     1       7.630   5.299  13.761  0.00  0.00    +0.000 A 
ENDBRANCH  14  15
ENDBRANCH   1  14
BRANCH   5  21
ATOM     21  C   UNL     1       3.948   3.682  17.289  0.00  0.00    +0.000 C 
BRANCH  21  22
ATOM     22  C   UNL     1       4.144   2.401  18.094  0.00  0.00    +0.000 C 
BRANCH  22  23
ATOM     23  O   UNL     1       5.097   2.627  19.132  0.00  0.00    +0.000 OA
ATOM     24  H   UNL     1       5.868   2.059  18.955  0.00  0.00    +0.000 HD
ENDBRANCH  22  23
ENDBRANCH  21  22
ENDBRANCH   5  21
TORSDOF 7
ENDMDL
MODEL 6
REMARK VINA RESULT:      -6.3      3.239      4.997
REMARK  Name = 
REMARK  10 active torsions:
REMARK  status: ('A' for Active; 'I' for Inactive)
REMARK    1  A    between atoms: C_2  and  C_3
REMARK    2  A    between atoms: C_2  and  C_18
REMARK    3  A    between atoms: N_6  and  S_7
REMARK    4  A    between atoms: S_7  and  C_10
REMARK    5  A    between atoms: C_10  and  C_11
REMARK    6  A    between atoms: C_10  and  C_12
REMARK    7  A    between atoms: C_10  and  C_13
REMARK    8  A    between atoms: C_14  and  C_15
REMARK    9  A    between atoms: C_15  and  C_16
REMARK   10  A    between atoms: C_16  and  O_17
REMARK                            x       y       z     vdW  Elec       q    Type
REMARK                         _______ _______ _______ _____ _____    ______ ____
ROOT
ATOM      1  C   UNL     1       5.695   5.439  16.860  0.00  0.00    +0.000 C 
ATOM      2  C   UNL     1       5.352   6.716  16.664  0.00  0.00    +0.000 C 
ATOM      3  C   UNL     1       4.120   7.091  17.381  0.00  0.00    +0.000 C 
ATOM      4  N   UNL     1       3.749   5.900  18.175  0.00  0.00    +0.000 NA
ATOM      5  C   UNL     1       4.735   4.757  17.819  0.00  0.00    +0.000 C 
ENDROOT
BRANCH   4   6
ATOM      6  S   UNL     1       2.099   5.560  18.322  0.00  0.00    +0.000 S 
ATOM      7  O   UNL     1       1.394   6.810  18.164  0.00  0.00    +0.000 OA
ATOM      8  O   UNL     1       1.827   4.451  17.423  0.00  0.00    +0.000 OA
BRANCH   6   9
ATOM      9  C   UNL     1       1.778   4.935  20.037  0.00  0.00    +0.000 C 
ATOM     10  C   UNL     1       3.047   4.419  20.726  0.00  0.00    +0.000 C 
ATOM     11  C   UNL     1       1.267   6.133  20.871  0.00  0.00    +0.000 C 
ATOM     12  C   UNL     1       0.695   3.854  20.002  0.00  0.00    +0.000 C 
ENDBRANCH   6   9
ENDBRANCH   4   6
BRANCH   1  14
ATOM     13  C   UNL     1       7.850   4.398  16.910  0.00  0.00    +0.000 C 
ATOM     14  C   UNL     1       6.810   4.818  16.155  0.00  0.00    +0.000 C 
BRANCH  14  15
ATOM     15  C   UNL     1       6.846   4.546  14.688  0.00  0.00    +0.000 A 
ATOM     16  C   UNL     1       7.746   5.228  13.856  0.00  0.00    +0.000 A 
ATOM     17  C   UNL     1       7.692   5.075  12.464  0.00  0.00    +0.000 A 
ATOM     18  C   UNL     1       6.745   4.234  11.884  0.00  0.00    +0.000 A 
ATOM     19  C   UNL     1       5.876   3.513  12.694  0.00  0.00    +0.000 A 
ATOM     20  C   UNL     1       5.939   3.655  14.083  0.00  0.00    +0.000 A 
ENDBRANCH  14  15
ENDBRANCH   1  14
BRANCH   5  21
ATOM     21  C   UNL     1       4.068   3.495  17.248  0.00  0.00    +0.000 C 
BRANCH  21  22
ATOM     22  C   UNL     1       4.086   2.269  18.157  0.00  0.00    +0.000 C 
BRANCH  22  23
ATOM     23  O   UNL     1       2.797   1.655  18.160  0.00  0.00    +0.000 OA
ATOM     24  H   UNL     1       2.164   2.294  17.788  0.00  0.00    +0.000 HD
ENDBRANCH  22  23
ENDBRANCH  21  22
ENDBRANCH   5  21
TORSDOF 7
ENDMDL
MODEL 7
REMARK VINA RESULT:      -6.3      4.190      5.808
REMARK  Name = 
REMARK  10 active torsions:
REMARK  status: ('A' for Active; 'I' for Inactive)
REMARK    1  A    between atoms: C_2  and  C_3
REMARK    2  A    between atoms: C_2  and  C_18
REMARK    3  A    between atoms: N_6  and  S_7
REMARK    4  A    between atoms: S_7  and  C_10
REMARK    5  A    between atoms: C_10  and  C_11
REMARK    6  A    between atoms: C_10  and  C_12
REMARK    7  A    between atoms: C_10  and  C_13
REMARK    8  A    between atoms: C_14  and  C_15
REMARK    9  A    between atoms: C_15  and  C_16
REMARK   10  A    between atoms: C_16  and  O_17
REMARK                            x       y       z     vdW  Elec       q    Type
REMARK                         _______ _______ _______ _____ _____    ______ ____
ROOT
ATOM      1  C   UNL     1       5.063   4.890  16.664  0.00  0.00    +0.000 C 
ATOM      2  C   UNL     1       4.060   4.169  16.152  0.00  0.00    +0.000 C 
ATOM      3  C   UNL     1       3.112   3.701  17.178  0.00  0.00    +0.000 C 
ATOM      4  N   UNL     1       3.573   4.309  18.445  0.00  0.00    +0.000 NA
ATOM      5  C   UNL     1       4.899   5.063  18.163  0.00  0.00    +0.000 C 
ENDROOT
BRANCH   4   6
ATOM      6  S   UNL     1       3.432   3.369  19.844  0.00  0.00    +0.000 S 
ATOM      7  O   UNL     1       3.986   2.071  19.537  0.00  0.00    +0.000 OA
ATOM      8  O   UNL     1       3.987   4.160  20.928  0.00  0.00    +0.000 OA
BRANCH   6   9
ATOM      9  C   UNL     1       1.632   3.148  20.224  0.00  0.00    +0.000 C 
ATOM     10  C   UNL     1       0.934   2.192  19.250  0.00  0.00    +0.000 C 
ATOM     11  C   UNL     1       1.538   2.509  21.629  0.00  0.00    +0.000 C 
ATOM     12  C   UNL     1       0.935   4.511  20.249  0.00  0.00    +0.000 C 
ENDBRANCH   6   9
ENDBRANCH   4   6
BRANCH   1  14
ATOM     13  C   UNL     1       6.987   6.289  16.398  0.00  0.00    +0.000 C 
ATOM     14  C   UNL     1       6.180   5.353  15.850  0.00  0.00    +0.000 C 
BRANCH  14  15
ATOM     15  C   UNL     1       6.534   4.815  14.504  0.00  0.00    +0.000 A 
ATOM     16  C   UNL     1       7.566   5.394  13.750  0.00  0.00    +0.000 A 
ATOM     17  C   UNL     1       7.814   4.979  12.435  0.00  0.00    +0.000 A 
ATOM     18  C   UNL     1       7.040   3.975  11.856  0.00  0.00    +0.000 A 
ATOM     19  C   UNL     1       6.045   3.355  12.602  0.00  0.00    +0.000 A 
ATOM     20  C   UNL     1       5.808   3.760  13.919  0.00  0.00    +0.000 A 
ENDBRANCH  14  15
ENDBRANCH   1  14
BRANCH   5  21
ATOM     21  C   UNL     1       6.100   4.570  18.987  0.00  0.00    +0.000 C 
BRANCH  21  22
ATOM     22  C   UNL     1       6.949   5.660  19.637  0.00  0.00    +0.000 C 
BRANCH  22  23
ATOM     23  O   UNL     1       8.304   5.222  19.728  0.00  0.00    +0.000 OA
ATOM     24  H   UNL     1       8.584   5.318  20.655  0.00  0.00    +0.000 HD
ENDBRANCH  22  23
ENDBRANCH  21  22
ENDBRANCH   5  21
TORSDOF 7
ENDMDL
MODEL 8
REMARK VINA RESULT:      -6.3      0.666      1.160
REMARK  Name = 
REMARK  10 active torsions:
REMARK  status: ('A' for Active; 'I' for Inactive)
REMARK    1  A    between atoms: C_2  and  C_3
REMARK    2  A    between atoms: C_2  and  C_18
REMARK    3  A    between atoms: N_6  and  S_7
REMARK    4  A    between atoms: S_7  and  C_10
REMARK    5  A    between atoms: C_10  and  C_11
REMARK    6  A    between atoms: C_10  and  C_12
REMARK    7  A    between atoms: C_10  and  C_13
REMARK    8  A    between atoms: C_14  and  C_15
REMARK    9  A    between atoms: C_15  and  C_16
REMARK   10  A    between atoms: C_16  and  O_17
REMARK                            x       y       z     vdW  Elec       q    Type
REMARK                         _______ _______ _______ _____ _____    ______ ____
ROOT
ATOM      1  C   UNL     1       2.456   7.095  18.596  0.00  0.00    +0.000 C 
ATOM      2  C   UNL     1       2.005   8.126  17.875  0.00  0.00    +0.000 C 
ATOM      3  C   UNL     1       1.433   9.197  18.710  0.00  0.00    +0.000 C 
ATOM      4  N   UNL     1       1.667   8.774  20.108  0.00  0.00    +0.000 NA
ATOM      5  C   UNL     1       2.294   7.356  20.083  0.00  0.00    +0.000 C 
ENDROOT
BRANCH   4   6
ATOM      6  S   UNL     1       0.451   9.126  21.229  0.00  0.00    +0.000 S 
ATOM      7  O   UNL     1      -0.702   8.337  20.864  0.00  0.00    +0.000 OA
ATOM      8  O   UNL     1       1.050   8.975  22.544  0.00  0.00    +0.000 OA
BRANCH   6   9
ATOM      9  C   UNL     1      -0.003  10.914  21.062  0.00  0.00    +0.000 C 
ATOM     10  C   UNL     1       1.189  11.793  20.665  0.00  0.00    +0.000 C 
ATOM     11  C   UNL     1      -1.039  11.017  19.918  0.00  0.00    +0.000 C 
ATOM     12  C   UNL     1      -0.643  11.412  22.360  0.00  0.00    +0.000 C 
ENDBRANCH   6   9
ENDBRANCH   4   6
BRANCH   1  14
ATOM     13  C   UNL     1       2.034   4.945  17.630  0.00  0.00    +0.000 C 
ATOM     14  C   UNL     1       2.954   5.873  17.975  0.00  0.00    +0.000 C 
BRANCH  14  15
ATOM     15  C   UNL     1       4.383   5.616  17.626  0.00  0.00    +0.000 A 
ATOM     16  C   UNL     1       4.856   5.857  16.327  0.00  0.00    +0.000 A 
ATOM     17  C   UNL     1       6.158   5.494  15.960  0.00  0.00    +0.000 A 
ATOM     18  C   UNL     1       7.009   4.891  16.885  0.00  0.00    +0.000 A 
ATOM     19  C   UNL     1       6.575   4.688  18.190  0.00  0.00    +0.000 A 
ATOM     20  C   UNL     1       5.281   5.063  18.559  0.00  0.00    +0.000 A 
ENDBRANCH  14  15
ENDBRANCH   1  14
BRANCH   5  21
ATOM     21  C   UNL     1       1.477   6.284  20.823  0.00  0.00    +0.000 C 
BRANCH  21  22
ATOM     22  C   UNL     1       2.215   4.983  21.128  0.00  0.00    +0.000 C 
BRANCH  22  23
ATOM     23  O   UNL     1       1.318   3.880  20.994  0.00  0.00    +0.000 OA
ATOM     24  H   UNL     1       0.830   3.793  21.831  0.00  0.00    +0.000 HD
ENDBRANCH  22  23
ENDBRANCH  21  22
ENDBRANCH   5  21
TORSDOF 7
ENDMDL
MODEL 9
REMARK VINA RESULT:      -6.2      3.846      5.703
REMARK  Name = 
REMARK  10 active torsions:
REMARK  status: ('A' for Active; 'I' for Inactive)
REMARK    1  A    between atoms: C_2  and  C_3
REMARK    2  A    between atoms: C_2  and  C_18
REMARK    3  A    between atoms: N_6  and  S_7
REMARK    4  A    between atoms: S_7  and  C_10
REMARK    5  A    between atoms: C_10  and  C_11
REMARK    6  A    between atoms: C_10  and  C_12
REMARK    7  A    between atoms: C_10  and  C_13
REMARK    8  A    between atoms: C_14  and  C_15
REMARK    9  A    between atoms: C_15  and  C_16
REMARK   10  A    between atoms: C_16  and  O_17
REMARK                            x       y       z     vdW  Elec       q    Type
REMARK                         _______ _______ _______ _____ _____    ______ ____
ROOT
ATOM      1  C   UNL     1       5.809   4.812  17.128  0.00  0.00    +0.000 C 
ATOM      2  C   UNL     1       6.303   4.365  18.287  0.00  0.00    +0.000 C 
ATOM      3  C   UNL     1       5.255   3.888  19.206  0.00  0.00    +0.000 C 
ATOM      4  N   UNL     1       3.991   3.982  18.444  0.00  0.00    +0.000 NA
ATOM      5  C   UNL     1       4.301   4.643  17.077  0.00  0.00    +0.000 C 
ENDROOT
BRANCH   4   6
ATOM      6  S   UNL     1       2.611   4.453  19.302  0.00  0.00    +0.000 S 
ATOM      7  O   UNL     1       3.042   5.386  20.316  0.00  0.00    +0.000 OA
ATOM      8  O   UNL     1       1.630   4.857  18.310  0.00  0.00    +0.000 OA
BRANCH   6   9
ATOM      9  C   UNL     1       1.912   2.963  20.154  0.00  0.00    +0.000 C 
ATOM     10  C   UNL     1       2.441   2.797  21.583  0.00  0.00    +0.000 C 
ATOM     11  C   UNL     1       0.384   3.174  20.260  0.00  0.00    +0.000 C 
ATOM     12  C   UNL     1       2.186   1.710  19.319  0.00  0.00    +0.000 C 
ENDBRANCH   6   9
ENDBRANCH   4   6
BRANCH   1  14
ATOM     13  C   UNL     1       7.474   6.426  16.537  0.00  0.00    +0.000 C 
ATOM     14  C   UNL     1       6.651   5.440  16.117  0.00  0.00    +0.000 C 
BRANCH  14  15
ATOM     15  C   UNL     1       6.723   5.020  14.687  0.00  0.00    +0.000 A 
ATOM     16  C   UNL     1       5.881   4.012  14.194  0.00  0.00    +0.000 A 
ATOM     17  C   UNL     1       6.035   3.523  12.891  0.00  0.00    +0.000 A 
ATOM     18  C   UNL     1       7.027   4.035  12.058  0.00  0.00    +0.000 A 
ATOM     19  C   UNL     1       7.840   5.068  12.510  0.00  0.00    +0.000 A 
ATOM     20  C   UNL     1       7.677   5.566  13.806  0.00  0.00    +0.000 A 
ENDBRANCH  14  15
ENDBRANCH   1  14
BRANCH   5  21
ATOM     21  C   UNL     1       3.533   5.947  16.810  0.00  0.00    +0.000 C 
BRANCH  21  22
ATOM     22  C   UNL     1       4.029   7.176  17.568  0.00  0.00    +0.000 C 
BRANCH  22  23
ATOM     23  O   UNL     1       2.955   7.744  18.317  0.00  0.00    +0.000 OA
ATOM     24  H   UNL     1       2.605   8.496  17.807  0.00  0.00    +0.000 HD
ENDBRANCH  22  23
ENDBRANCH  21  22
ENDBRANCH   5  21
TORSDOF 7
ENDMDL
