MODEL 1
REMARK VINA RESULT:      -6.8      0.000      0.000
REMARK  Name = 
REMARK  8 active torsions:
REMARK  status: ('A' for Active; 'I' for Inactive)
REMARK    1  A    between atoms: C_1  and  O_2
REMARK    2  A    between atoms: O_2  and  C_3
REMARK    3  A    between atoms: C_3  and  C_4
REMARK    4  A    between atoms: C_6  and  C_7
REMARK    5  A    between atoms: C_11  and  C_12
REMARK    6  A    between atoms: N_14  and  C_15
REMARK    7  A    between atoms: C_20  and  O_21
REMARK    8  A    between atoms: C_22  and  N_23
REMARK                            x       y       z     vdW  Elec       q    Type
REMARK                         _______ _______ _______ _____ _____    ______ ____
ROOT
ATOM      1  C   UNL     1       1.538   4.858  20.006  0.00  0.00    +0.000 A 
ATOM      2  C   UNL     1       1.130   5.948  20.792  0.00  0.00    +0.000 A 
ATOM      3  C   UNL     1       1.642   7.219  20.553  0.00  0.00    +0.000 A 
ATOM      4  C   UNL     1       1.203   8.369  21.415  0.00  0.00    +0.000 C 
ATOM      5  N   UNL     1       2.540   7.503  19.586  0.00  0.00    +0.000 NA
ATOM      6  C   UNL     1       2.932   6.443  18.847  0.00  0.00    +0.000 A 
ATOM      7  S   UNL     1       4.085   6.634  17.594  0.00  0.00    +0.000 S 
ATOM      8  C   UNL     1       4.047   4.974  17.205  0.00  0.00    +0.000 A 
ATOM      9  C   UNL     1       3.128   4.306  18.000  0.00  0.00    +0.000 A 
ATOM     10  C   UNL     1       2.490   5.131  18.983  0.00  0.00    +0.000 A 
ENDROOT
BRANCH   8  11
ATOM     11  C   UNL     1       4.875   4.342  16.180  0.00  0.00    +0.000 C 
ATOM     12  O   UNL     1       5.443   3.275  16.429  0.00  0.00    +0.000 OA
ATOM     13  N   UNL     1       5.027   4.986  14.959  0.00  0.00    +0.000 N 
ATOM     14  H   UNL     1       4.774   5.966  14.880  0.00  0.00    +0.000 HD
BRANCH  13  15
ATOM     15  C   UNL     1       5.675   4.415  13.830  0.00  0.00    +0.000 A 
ATOM     16  C   UNL     1       5.029   3.556  12.931  0.00  0.00    +0.000 A 
ATOM     17  C   UNL     1       5.705   2.998  11.844  0.00  0.00    +0.000 A 
ATOM     18  C   UNL     1       7.044   3.303  11.626  0.00  0.00    +0.000 A 
ATOM     19  C   UNL     1       7.702   4.186  12.487  0.00  0.00    +0.000 A 
ATOM     20  C   UNL     1       7.014   4.741  13.575  0.00  0.00    +0.000 A 
BRANCH  20  21
ATOM     21  O   UNL     1       7.660   5.600  14.428  0.00  0.00    +0.000 OA
ATOM     22  H   UNL     1       8.335   6.081  13.919  0.00  0.00    +0.000 HD
ENDBRANCH  20  21
ENDBRANCH  13  15
ENDBRANCH   8  11
BRANCH   9  23
ATOM     23  N   UNL     1       2.875   2.978  17.865  0.00  0.00    +0.000 N 
ATOM     24  H   UNL     1       3.378   2.479  17.121  0.00  0.00    +0.000 HD
ATOM     25  H   UNL     1       2.804   2.408  18.706  0.00  0.00    +0.000 HD
ENDBRANCH   9  23
BRANCH   1  26
ATOM     26  C   UNL     1       0.945   3.495  20.275  0.00  0.00    +0.000 C 
BRANCH  26  28
ATOM     27  C   UNL     1       2.315   2.562  21.961  0.00  0.00    +0.000 C 
ATOM     28  O   UNL     1       1.996   2.575  20.576  0.00  0.00    +0.000 OA
ENDBRANCH  26  28
ENDBRANCH   1  26
TORSDOF 6
ENDMDL
MODEL 2
REMARK VINA RESULT:      -6.6      4.116      6.734
REMARK  Name = 
REMARK  8 active torsions:
REMARK  status: ('A' for Active; 'I' for Inactive)
REMARK    1  A    between atoms: C_1  and  O_2
REMARK    2  A    between atoms: O_2  and  C_3
REMARK    3  A    between atoms: C_3  and  C_4
REMARK    4  A    between atoms: C_6  and  C_7
REMARK    5  A    between atoms: C_11  and  C_12
REMARK    6  A    between atoms: N_14  and  C_15
REMARK    7  A    between atoms: C_20  and  O_21
REMARK    8  A    between atoms: C_22  and  N_23
REMARK                            x       y       z     vdW  Elec       q    Type
REMARK                         _______ _______ _______ _____ _____    ______ ____
ROOT
ATOM      1  C   UNL     1      -0.786  11.677  19.698  0.00  0.00    +0.000 A 
ATOM      2  C   UNL     1      -1.351  12.250  20.848  0.00  0.00    +0.000 A 
ATOM      3  C   UNL     1      -1.058  11.737  22.107  0.00  0.00    +0.000 A 
ATOM      4  C   UNL     1      -1.685  12.357  23.324  0.00  0.00    +0.000 C 
ATOM      5  N   UNL     1      -0.240  10.684  22.324  0.00  0.00    +0.000 NA
ATOM      6  C   UNL     1       0.285  10.136  21.207  0.00  0.00    +0.000 A 
ATOM      7  S   UNL     1       1.325   8.778  21.312  0.00  0.00    +0.000 S 
ATOM      8  C   UNL     1       1.515   8.701  19.618  0.00  0.00    +0.000 A 
ATOM      9  C   UNL     1       0.824   9.733  19.001  0.00  0.00    +0.000 A 
ATOM     10  C   UNL     1       0.075  10.561  19.899  0.00  0.00    +0.000 A 
ENDROOT
BRANCH   8  11
ATOM     11  C   UNL     1       2.292   7.683  18.915  0.00  0.00    +0.000 C 
ATOM     12  O   UNL     1       2.990   8.008  17.950  0.00  0.00    +0.000 OA
ATOM     13  N   UNL     1       2.192   6.363  19.337  0.00  0.00    +0.000 N 
ATOM     14  H   UNL     1       1.425   6.093  19.944  0.00  0.00    +0.000 HD
BRANCH  13  15
ATOM     15  C   UNL     1       3.002   5.304  18.845  0.00  0.00    +0.000 A 
ATOM     16  C   UNL     1       4.313   5.076  19.284  0.00  0.00    +0.000 A 
ATOM     17  C   UNL     1       5.085   4.037  18.762  0.00  0.00    +0.000 A 
ATOM     18  C   UNL     1       4.553   3.191  17.796  0.00  0.00    +0.000 A 
ATOM     19  C   UNL     1       3.235   3.373  17.367  0.00  0.00    +0.000 A 
ATOM     20  C   UNL     1       2.467   4.420  17.897  0.00  0.00    +0.000 A 
BRANCH  20  21
ATOM     21  O   UNL     1       1.178   4.609  17.471  0.00  0.00    +0.000 OA
ATOM     22  H   UNL     1       1.200   5.179  16.682  0.00  0.00    +0.000 HD
ENDBRANCH  20  21
ENDBRANCH  13  15
ENDBRANCH   8  11
BRANCH   9  23
ATOM     23  N   UNL     1       0.843   9.921  17.655  0.00  0.00    +0.000 N 
ATOM     24  H   UNL     1       0.063   9.527  17.116  0.00  0.00    +0.000 HD
ATOM     25  H   UNL     1       1.111  10.836  17.296  0.00  0.00    +0.000 HD
ENDBRANCH   9  23
BRANCH   1  26
ATOM     26  C   UNL     1      -1.104  12.273  18.347  0.00  0.00    +0.000 C 
BRANCH  26  28
ATOM     27  C   UNL     1      -3.249  11.465  17.767  0.00  0.00    +0.000 C 
ATOM     28  O   UNL     1      -1.847  11.326  17.577  0.00  0.00    +0.000 OA
ENDBRANCH  26  28
ENDBRANCH   1  26
TORSDOF 6
ENDMDL
MODEL 3
REMARK VINA RESULT:      -6.6      3.600      7.728
REMARK  Name = 
REMARK  8 active torsions:
REMARK  status: ('A' for Active; 'I' for Inactive)
REMARK    1  A    between atoms: C_1  and  O_2
REMARK    2  A    between atoms: O_2  and  C_3
REMARK    3  A    between atoms: C_3  and  C_4
REMARK    4  A    between atoms: C_6  and  C_7
REMARK    5  A    between atoms: C_11  and  C_12
REMARK    6  A    between atoms: N_14  and  C_15
REMARK    7  A    between atoms: C_20  and  O_21
REMARK    8  A    between atoms: C_22  and  N_23
REMARK                            x       y       z     vdW  Elec       q    Type
REMARK                         _______ _______ _______ _____ _____    ______ ____
ROOT
ATOM      1  C   UNL     1       3.681   4.288  19.052  0.00  0.00    +0.000 A 
ATOM      2  C   UNL     1       4.508   3.703  18.079  0.00  0.00    +0.000 A 
ATOM      3  C   UNL     1       4.912   4.434  16.967  0.00  0.00    +0.000 A 
ATOM      4  C   UNL     1       5.785   3.784  15.931  0.00  0.00    +0.000 C 
ATOM      5  N   UNL     1       4.558   5.716  16.735  0.00  0.00    +0.000 NA
ATOM      6  C   UNL     1       3.754   6.260  17.673  0.00  0.00    +0.000 A 
ATOM      7  S   UNL     1       3.197   7.873  17.512  0.00  0.00    +0.000 S 
ATOM      8  C   UNL     1       2.305   7.788  18.963  0.00  0.00    +0.000 A 
ATOM      9  C   UNL     1       2.478   6.554  19.572  0.00  0.00    +0.000 A 
ATOM     10  C   UNL     1       3.288   5.637  18.827  0.00  0.00    +0.000 A 
ENDROOT
BRANCH   8  11
ATOM     11  C   UNL     1       1.468   8.865  19.487  0.00  0.00    +0.000 C 
ATOM     12  O   UNL     1       1.341   8.998  20.708  0.00  0.00    +0.000 OA
ATOM     13  N   UNL     1       0.807   9.691  18.587  0.00  0.00    +0.000 N 
ATOM     14  H   UNL     1       0.718   9.398  17.619  0.00  0.00    +0.000 HD
BRANCH  13  15
ATOM     15  C   UNL     1       0.089  10.860  18.955  0.00  0.00    +0.000 A 
ATOM     16  C   UNL     1      -1.175  10.823  19.560  0.00  0.00    +0.000 A 
ATOM     17  C   UNL     1      -1.859  11.994  19.888  0.00  0.00    +0.000 A 
ATOM     18  C   UNL     1      -1.283  13.233  19.631  0.00  0.00    +0.000 A 
ATOM     19  C   UNL     1      -0.007  13.298  19.063  0.00  0.00    +0.000 A 
ATOM     20  C   UNL     1       0.672  12.116  18.736  0.00  0.00    +0.000 A 
BRANCH  20  21
ATOM     21  O   UNL     1       1.919  12.176  18.168  0.00  0.00    +0.000 OA
ATOM     22  H   UNL     1       1.818  12.481  17.250  0.00  0.00    +0.000 HD
ENDBRANCH  20  21
ENDBRANCH  13  15
ENDBRANCH   8  11
BRANCH   9  23
ATOM     23  N   UNL     1       1.906   6.242  20.765  0.00  0.00    +0.000 N 
ATOM     24  H   UNL     1       2.471   5.697  21.427  0.00  0.00    +0.000 HD
ATOM     25  H   UNL     1       1.365   6.958  21.247  0.00  0.00    +0.000 HD
ENDBRANCH   9  23
BRANCH   1  26
ATOM     26  C   UNL     1       3.280   3.475  20.261  0.00  0.00    +0.000 C 
BRANCH  26  28
ATOM     27  C   UNL     1       1.392   2.702  21.455  0.00  0.00    +0.000 C 
ATOM     28  O   UNL     1       1.866   3.268  20.241  0.00  0.00    +0.000 OA
ENDBRANCH  26  28
ENDBRANCH   1  26
TORSDOF 6
ENDMDL
MODEL 4
REMARK VINA RESULT:      -6.6      3.240      8.044
REMARK  Name = 
REMARK  8 active torsions:
REMARK  status: ('A' for Active; 'I' for Inactive)
REMARK    1  A    between atoms: C_1  and  O_2
REMARK    2  A    between atoms: O_2  and  C_3
REMARK    3  A    between atoms: C_3  and  C_4
REMARK    4  A    between atoms: C_6  and  C_7
REMARK    5  A    between atoms: C_11  and  C_12
REMARK    6  A    between atoms: N_14  and  C_15
REMARK    7  A    between atoms: C_20  and  O_21
REMARK    8  A    between atoms: C_22  and  N_23
REMARK                            x       y       z     vdW  Elec       q    Type
REMARK                         _______ _______ _______ _____ _____    ______ ____
ROOT
ATOM      1  C   UNL     1       3.664   4.048  18.843  0.00  0.00    +0.000 A 
ATOM      2  C   UNL     1       4.468   3.612  17.778  0.00  0.00    +0.000 A 
ATOM      3  C   UNL     1       4.845   4.496  16.773  0.00  0.00    +0.000 A 
ATOM      4  C   UNL     1       5.694   4.005  15.635  0.00  0.00    +0.000 C 
ATOM      5  N   UNL     1       4.486   5.797  16.735  0.00  0.00    +0.000 NA
ATOM      6  C   UNL     1       3.703   6.198  17.760  0.00  0.00    +0.000 A 
ATOM      7  S   UNL     1       3.142   7.815  17.845  0.00  0.00    +0.000 S 
ATOM      8  C   UNL     1       2.285   7.520  19.289  0.00  0.00    +0.000 A 
ATOM      9  C   UNL     1       2.472   6.212  19.711  0.00  0.00    +0.000 A 
ATOM     10  C   UNL     1       3.265   5.414  18.823  0.00  0.00    +0.000 A 
ENDROOT
BRANCH   8  11
ATOM     11  C   UNL     1       1.460   8.507  19.982  0.00  0.00    +0.000 C 
ATOM     12  O   UNL     1       1.171   8.334  21.169  0.00  0.00    +0.000 OA
ATOM     13  N   UNL     1       0.992   9.602  19.265  0.00  0.00    +0.000 N 
ATOM     14  H   UNL     1       1.020   9.579  18.251  0.00  0.00    +0.000 HD
BRANCH  13  15
ATOM     15  C   UNL     1       0.312  10.706  19.847  0.00  0.00    +0.000 A 
ATOM     16  C   UNL     1       0.925  11.598  20.737  0.00  0.00    +0.000 A 
ATOM     17  C   UNL     1       0.218  12.660  21.304  0.00  0.00    +0.000 A 
ATOM     18  C   UNL     1      -1.118  12.861  20.978  0.00  0.00    +0.000 A 
ATOM     19  C   UNL     1      -1.743  12.007  20.064  0.00  0.00    +0.000 A 
ATOM     20  C   UNL     1      -1.025  10.944  19.500  0.00  0.00    +0.000 A 
BRANCH  20  21
ATOM     21  O   UNL     1      -1.638  10.098  18.611  0.00  0.00    +0.000 OA
ATOM     22  H   UNL     1      -2.549  10.411  18.475  0.00  0.00    +0.000 HD
ENDBRANCH  20  21
ENDBRANCH  13  15
ENDBRANCH   8  11
BRANCH   9  23
ATOM     23  N   UNL     1       1.927   5.730  20.859  0.00  0.00    +0.000 N 
ATOM     24  H   UNL     1       2.350   6.039  21.743  0.00  0.00    +0.000 HD
ATOM     25  H   UNL     1       0.913   5.684  20.934  0.00  0.00    +0.000 HD
ENDBRANCH   9  23
BRANCH   1  26
ATOM     26  C   UNL     1       3.291   3.069  19.932  0.00  0.00    +0.000 C 
BRANCH  26  28
ATOM     27  C   UNL     1       1.363   2.168  18.903  0.00  0.00    +0.000 C 
ATOM     28  O   UNL     1       1.868   2.941  19.983  0.00  0.00    +0.000 OA
ENDBRANCH  26  28
ENDBRANCH   1  26
TORSDOF 6
ENDMDL
MODEL 5
REMARK VINA RESULT:      -6.6      4.478      7.248
REMARK  Name = 
REMARK  8 active torsions:
REMARK  status: ('A' for Active; 'I' for Inactive)
REMARK    1  A    between atoms: C_1  and  O_2
REMARK    2  A    between atoms: O_2  and  C_3
REMARK    3  A    between atoms: C_3  and  C_4
REMARK    4  A    between atoms: C_6  and  C_7
REMARK    5  A    between atoms: C_11  and  C_12
REMARK    6  A    between atoms: N_14  and  C_15
REMARK    7  A    between atoms: C_20  and  O_21
REMARK    8  A    between atoms: C_22  and  N_23
REMARK                            x       y       z     vdW  Elec       q    Type
REMARK                         _______ _______ _______ _____ _____    ______ ____
ROOT
ATOM      1  C   UNL     1      -0.806  11.858  19.721  0.00  0.00    +0.000 A 
ATOM      2  C   UNL     1      -1.279  12.642  20.785  0.00  0.00    +0.000 A 
ATOM      3  C   UNL     1      -0.934  12.331  22.096  0.00  0.00    +0.000 A 
ATOM      4  C   UNL     1      -1.463  13.175  23.221  0.00  0.00    +0.000 C 
ATOM      5  N   UNL     1      -0.148  11.290  22.445  0.00  0.00    +0.000 NA
ATOM      6  C   UNL     1       0.289  10.539  21.411  0.00  0.00    +0.000 A 
ATOM      7  S   UNL     1       1.278   9.168  21.691  0.00  0.00    +0.000 S 
ATOM      8  C   UNL     1       1.365   8.801  20.027  0.00  0.00    +0.000 A 
ATOM      9  C   UNL     1       0.680   9.748  19.280  0.00  0.00    +0.000 A 
ATOM     10  C   UNL     1       0.019  10.750  20.063  0.00  0.00    +0.000 A 
ENDROOT
BRANCH   8  11
ATOM     11  C   UNL     1       2.058   7.642  19.467  0.00  0.00    +0.000 C 
ATOM     12  O   UNL     1       2.512   7.700  18.321  0.00  0.00    +0.000 OA
ATOM     13  N   UNL     1       2.155   6.490  20.238  0.00  0.00    +0.000 N 
ATOM     14  H   UNL     1       1.554   6.385  21.049  0.00  0.00    +0.000 HD
BRANCH  13  15
ATOM     15  C   UNL     1       2.927   5.352  19.879  0.00  0.00    +0.000 A 
ATOM     16  C   UNL     1       4.274   5.431  19.501  0.00  0.00    +0.000 A 
ATOM     17  C   UNL     1       4.994   4.292  19.135  0.00  0.00    +0.000 A 
ATOM     18  C   UNL     1       4.382   3.044  19.157  0.00  0.00    +0.000 A 
ATOM     19  C   UNL     1       3.050   2.933  19.566  0.00  0.00    +0.000 A 
ATOM     20  C   UNL     1       2.335   4.082  19.931  0.00  0.00    +0.000 A 
BRANCH  20  21
ATOM     21  O   UNL     1       1.025   3.979  20.323  0.00  0.00    +0.000 OA
ATOM     22  H   UNL     1       0.463   4.172  19.552  0.00  0.00    +0.000 HD
ENDBRANCH  20  21
ENDBRANCH  13  15
ENDBRANCH   8  11
BRANCH   9  23
ATOM     23  N   UNL     1       0.629   9.709  17.923  0.00  0.00    +0.000 N 
ATOM     24  H   UNL     1       1.352  10.231  17.412  0.00  0.00    +0.000 HD
ATOM     25  H   UNL     1       0.429   8.820  17.469  0.00  0.00    +0.000 HD
ENDBRANCH   9  23
BRANCH   1  26
ATOM     26  C   UNL     1      -1.179  12.236  18.306  0.00  0.00    +0.000 C 
BRANCH  26  28
ATOM     27  C   UNL     1      -3.376  11.449  17.928  0.00  0.00    +0.000 C 
ATOM     28  O   UNL     1      -1.988  11.203  17.740  0.00  0.00    +0.000 OA
ENDBRANCH  26  28
ENDBRANCH   1  26
TORSDOF 6
ENDMDL
MODEL 6
REMARK VINA RESULT:      -6.5      3.058      8.206
REMARK  Name = 
REMARK  8 active torsions:
REMARK  status: ('A' for Active; 'I' for Inactive)
REMARK    1  A    between atoms: C_1  and  O_2
REMARK    2  A    between atoms: O_2  and  C_3
REMARK    3  A    between atoms: C_3  and  C_4
REMARK    4  A    between atoms: C_6  and  C_7
REMARK    5  A    between atoms: C_11  and  C_12
REMARK    6  A    between atoms: N_14  and  C_15
REMARK    7  A    between atoms: C_20  and  O_21
REMARK    8  A    between atoms: C_22  and  N_23
REMARK                            x       y       z     vdW  Elec       q    Type
REMARK                         _______ _______ _______ _____ _____    ______ ____
ROOT
ATOM      1  C   UNL     1       4.347   4.267  18.288  0.00  0.00    +0.000 A 
ATOM      2  C   UNL     1       5.068   4.170  17.088  0.00  0.00    +0.000 A 
ATOM      3  C   UNL     1       5.132   5.252  16.216  0.00  0.00    +0.000 A 
ATOM      4  C   UNL     1       5.898   5.122  14.929  0.00  0.00    +0.000 C 
ATOM      5  N   UNL     1       4.529   6.440  16.438  0.00  0.00    +0.000 NA
ATOM      6  C   UNL     1       3.830   6.512  17.591  0.00  0.00    +0.000 A 
ATOM      7  S   UNL     1       2.988   7.946  18.008  0.00  0.00    +0.000 S 
ATOM      8  C   UNL     1       2.405   7.268  19.460  0.00  0.00    +0.000 A 
ATOM      9  C   UNL     1       2.892   5.981  19.631  0.00  0.00    +0.000 A 
ATOM     10  C   UNL     1       3.696   5.507  18.543  0.00  0.00    +0.000 A 
ENDROOT
BRANCH   8  11
ATOM     11  C   UNL     1       1.507   7.948  20.392  0.00  0.00    +0.000 C 
ATOM     12  O   UNL     1       1.023   7.320  21.338  0.00  0.00    +0.000 OA
ATOM     13  N   UNL     1       1.197   9.282  20.161  0.00  0.00    +0.000 N 
ATOM     14  H   UNL     1       1.391   9.686  19.251  0.00  0.00    +0.000 HD
BRANCH  13  15
ATOM     15  C   UNL     1       0.465  10.100  21.065  0.00  0.00    +0.000 A 
ATOM     16  C   UNL     1      -0.199   9.592  22.189  0.00  0.00    +0.000 A 
ATOM     17  C   UNL     1      -0.926  10.424  23.042  0.00  0.00    +0.000 A 
ATOM     18  C   UNL     1      -0.988  11.791  22.795  0.00  0.00    +0.000 A 
ATOM     19  C   UNL     1      -0.303  12.329  21.702  0.00  0.00    +0.000 A 
ATOM     20  C   UNL     1       0.424  11.485  20.850  0.00  0.00    +0.000 A 
BRANCH  20  21
ATOM     21  O   UNL     1       1.088  12.007  19.770  0.00  0.00    +0.000 OA
ATOM     22  H   UNL     1       0.429  12.391  19.167  0.00  0.00    +0.000 HD
ENDBRANCH  20  21
ENDBRANCH  13  15
ENDBRANCH   8  11
BRANCH   9  23
ATOM     23  N   UNL     1       2.609   5.233  20.729  0.00  0.00    +0.000 N 
ATOM     24  H   UNL     1       1.625   5.181  21.019  0.00  0.00    +0.000 HD
ATOM     25  H   UNL     1       3.071   4.331  20.836  0.00  0.00    +0.000 HD
ENDBRANCH   9  23
BRANCH   1  26
ATOM     26  C   UNL     1       4.317   3.082  19.226  0.00  0.00    +0.000 C 
BRANCH  26  28
ATOM     27  C   UNL     1       2.472   2.006  18.213  0.00  0.00    +0.000 C 
ATOM     28  O   UNL     1       2.967   2.641  19.384  0.00  0.00    +0.000 OA
ENDBRANCH  26  28
ENDBRANCH   1  26
TORSDOF 6
ENDMDL
MODEL 7
REMARK VINA RESULT:      -6.5      3.381      5.281
REMARK  Name = 
REMARK  8 active torsions:
REMARK  status: ('A' for Active; 'I' for Inactive)
REMARK    1  A    between atoms: C_1  and  O_2
REMARK    2  A    between atoms: O_2  and  C_3
REMARK    3  A    between atoms: C_3  and  C_4
REMARK    4  A    between atoms: C_6  and  C_7
REMARK    5  A    between atoms: C_11  and  C_12
REMARK    6  A    between atoms: N_14  and  C_15
REMARK    7  A    between atoms: C_20  and  O_21
REMARK    8  A    between atoms: C_22  and  N_23
REMARK                            x       y       z     vdW  Elec       q    Type
REMARK                         _______ _______ _______ _____ _____    ______ ____
ROOT
ATOM      1  C   UNL     1       0.477  10.602  19.786  0.00  0.00    +0.000 A 
ATOM      2  C   UNL     1      -0.225  10.943  20.952  0.00  0.00    +0.000 A 
ATOM      3  C   UNL     1      -0.272  10.063  22.028  0.00  0.00    +0.000 A 
ATOM      4  C   UNL     1      -1.042  10.442  23.262  0.00  0.00    +0.000 C 
ATOM      5  N   UNL     1       0.328   8.853  22.044  0.00  0.00    +0.000 NA
ATOM      6  C   UNL     1       0.989   8.535  20.910  0.00  0.00    +0.000 A 
ATOM      7  S   UNL     1       1.785   7.025  20.762  0.00  0.00    +0.000 S 
ATOM      8  C   UNL     1       2.305   7.371  19.175  0.00  0.00    +0.000 A 
ATOM      9  C   UNL     1       1.907   8.644  18.796  0.00  0.00    +0.000 A 
ATOM     10  C   UNL     1       1.114   9.329  19.774  0.00  0.00    +0.000 A 
ENDROOT
BRANCH   8  11
ATOM     11  C   UNL     1       3.060   6.449  18.329  0.00  0.00    +0.000 C 
ATOM     12  O   UNL     1       2.486   5.482  17.819  0.00  0.00    +0.000 OA
ATOM     13  N   UNL     1       4.420   6.672  18.152  0.00  0.00    +0.000 N 
ATOM     14  H   UNL     1       4.905   7.302  18.783  0.00  0.00    +0.000 HD
BRANCH  13  15
ATOM     15  C   UNL     1       5.236   5.948  17.241  0.00  0.00    +0.000 A 
ATOM     16  C   UNL     1       5.142   6.090  15.851  0.00  0.00    +0.000 A 
ATOM     17  C   UNL     1       5.947   5.345  14.987  0.00  0.00    +0.000 A 
ATOM     18  C   UNL     1       6.879   4.451  15.501  0.00  0.00    +0.000 A 
ATOM     19  C   UNL     1       7.019   4.318  16.886  0.00  0.00    +0.000 A 
ATOM     20  C   UNL     1       6.206   5.069  17.745  0.00  0.00    +0.000 A 
BRANCH  20  21
ATOM     21  O   UNL     1       6.333   4.933  19.103  0.00  0.00    +0.000 OA
ATOM     22  H   UNL     1       5.444   4.977  19.496  0.00  0.00    +0.000 HD
ENDBRANCH  20  21
ENDBRANCH  13  15
ENDBRANCH   8  11
BRANCH   9  23
ATOM     23  N   UNL     1       2.229   9.181  17.590  0.00  0.00    +0.000 N 
ATOM     24  H   UNL     1       2.965   9.897  17.578  0.00  0.00    +0.000 HD
ATOM     25  H   UNL     1       2.308   8.560  16.787  0.00  0.00    +0.000 HD
ENDBRANCH   9  23
BRANCH   1  26
ATOM     26  C   UNL     1       0.530  11.590  18.644  0.00  0.00    +0.000 C 
BRANCH  26  28
ATOM     27  C   UNL     1       2.144  13.232  19.180  0.00  0.00    +0.000 C 
ATOM     28  O   UNL     1       1.877  12.033  18.465  0.00  0.00    +0.000 OA
ENDBRANCH  26  28
ENDBRANCH   1  26
TORSDOF 6
ENDMDL
MODEL 8
REMARK VINA RESULT:      -6.4      4.265      6.849
REMARK  Name = 
REMARK  8 active torsions:
REMARK  status: ('A' for Active; 'I' for Inactive)
REMARK    1  A    between atoms: C_1  and  O_2
REMARK    2  A    between atoms: O_2  and  C_3
REMARK    3  A    between atoms: C_3  and  C_4
REMARK    4  A    between atoms: C_6  and  C_7
REMARK    5  A    between atoms: C_11  and  C_12
REMARK    6  A    between atoms: N_14  and  C_15
REMARK    7  A    between atoms: C_20  and  O_21
REMARK    8  A    between atoms: C_22  and  N_23
REMARK                            x       y       z     vdW  Elec       q    Type
REMARK                         _______ _______ _______ _____ _____    ______ ____
ROOT
ATOM      1  C   UNL     1      -0.815  11.694  19.769  0.00  0.00    +0.000 A 
ATOM      2  C   UNL     1      -1.500  12.147  20.908  0.00  0.00    +0.000 A 
ATOM      3  C   UNL     1      -1.362  11.482  22.122  0.00  0.00    +0.000 A 
ATOM      4  C   UNL     1      -2.116  11.975  23.325  0.00  0.00    +0.000 C 
ATOM      5  N   UNL     1      -0.592  10.389  22.303  0.00  0.00    +0.000 NA
ATOM      6  C   UNL     1       0.050   9.959  21.196  0.00  0.00    +0.000 A 
ATOM      7  S   UNL     1       1.050   8.568  21.255  0.00  0.00    +0.000 S 
ATOM      8  C   UNL     1       1.433   8.682  19.597  0.00  0.00    +0.000 A 
ATOM      9  C   UNL     1       0.833   9.798  19.032  0.00  0.00    +0.000 A 
ATOM     10  C   UNL     1      -0.001  10.538  19.932  0.00  0.00    +0.000 A 
ENDROOT
BRANCH   8  11
ATOM     11  C   UNL     1       2.270   7.730  18.870  0.00  0.00    +0.000 C 
ATOM     12  O   UNL     1       2.945   8.120  17.913  0.00  0.00    +0.000 OA
ATOM     13  N   UNL     1       2.252   6.397  19.261  0.00  0.00    +0.000 N 
ATOM     14  H   UNL     1       1.503   6.067  19.862  0.00  0.00    +0.000 HD
BRANCH  13  15
ATOM     15  C   UNL     1       3.125   5.402  18.744  0.00  0.00    +0.000 A 
ATOM     16  C   UNL     1       4.471   5.296  19.118  0.00  0.00    +0.000 A 
ATOM     17  C   UNL     1       5.303   4.317  18.573  0.00  0.00    +0.000 A 
ATOM     18  C   UNL     1       4.797   3.408  17.650  0.00  0.00    +0.000 A 
ATOM     19  C   UNL     1       3.448   3.468  17.288  0.00  0.00    +0.000 A 
ATOM     20  C   UNL     1       2.621   4.456  17.841  0.00  0.00    +0.000 A 
BRANCH  20  21
ATOM     21  O   UNL     1       1.299   4.524  17.480  0.00  0.00    +0.000 OA
ATOM     22  H   UNL     1       1.216   5.175  16.761  0.00  0.00    +0.000 HD
ENDBRANCH  20  21
ENDBRANCH  13  15
ENDBRANCH   8  11
BRANCH   9  23
ATOM     23  N   UNL     1       1.011  10.141  17.729  0.00  0.00    +0.000 N 
ATOM     24  H   UNL     1       1.972  10.120  17.366  0.00  0.00    +0.000 HD
ATOM     25  H   UNL     1       0.351   9.788  17.039  0.00  0.00    +0.000 HD
ENDBRANCH   9  23
BRANCH   1  26
ATOM     26  C   UNL     1      -0.967  12.452  18.470  0.00  0.00    +0.000 C 
BRANCH  26  28
ATOM     27  C   UNL     1       0.981  13.787  18.592  0.00  0.00    +0.000 C 
ATOM     28  O   UNL     1      -0.440  13.771  18.631  0.00  0.00    +0.000 OA
ENDBRANCH  26  28
ENDBRANCH   1  26
TORSDOF 6
ENDMDL
MODEL 9
REMARK VINA RESULT:      -6.4      4.096      6.644
REMARK  Name = 
REMARK  8 active torsions:
REMARK  status: ('A' for Active; 'I' for Inactive)
REMARK    1  A    between atoms: C_1  and  O_2
REMARK    2  A    between atoms: O_2  and  C_3
REMARK    3  A    between atoms: C_3  and  C_4
REMARK    4  A    between atoms: C_6  and  C_7
REMARK    5  A    between atoms: C_11  and  C_12
REMARK    6  A    between atoms: N_14  and  C_15
REMARK    7  A    between atoms: C_20  and  O_21
REMARK    8  A    between atoms: C_22  and  N_23
REMARK                            x       y       z     vdW  Elec       q    Type
REMARK                         _______ _______ _______ _____ _____    ______ ____
ROOT
ATOM      1  C   UNL     1      -0.654  11.715  19.660  0.00  0.00    +0.000 A 
ATOM      2  C   UNL     1      -1.144  12.351  20.812  0.00  0.00    +0.000 A 
ATOM      3  C   UNL     1      -0.827  11.862  22.075  0.00  0.00    +0.000 A 
ATOM      4  C   UNL     1      -1.374  12.550  23.294  0.00  0.00    +0.000 C 
ATOM      5  N   UNL     1      -0.054  10.777  22.294  0.00  0.00    +0.000 NA
ATOM      6  C   UNL     1       0.400  10.170  21.177  0.00  0.00    +0.000 A 
ATOM      7  S   UNL     1       1.375   8.765  21.285  0.00  0.00    +0.000 S 
ATOM      8  C   UNL     1       1.493   8.627  19.589  0.00  0.00    +0.000 A 
ATOM      9  C   UNL     1       0.830   9.672  18.965  0.00  0.00    +0.000 A 
ATOM     10  C   UNL     1       0.159  10.564  19.864  0.00  0.00    +0.000 A 
ENDROOT
BRANCH   8  11
ATOM     11  C   UNL     1       2.191   7.550  18.891  0.00  0.00    +0.000 C 
ATOM     12  O   UNL     1       3.069   7.826  18.068  0.00  0.00    +0.000 OA
ATOM     13  N   UNL     1       1.817   6.237  19.152  0.00  0.00    +0.000 N 
ATOM     14  H   UNL     1       0.934   6.057  19.619  0.00  0.00    +0.000 HD
BRANCH  13  15
ATOM     15  C   UNL     1       2.509   5.097  18.660  0.00  0.00    +0.000 A 
ATOM     16  C   UNL     1       1.974   4.236  17.693  0.00  0.00    +0.000 A 
ATOM     17  C   UNL     1       2.676   3.113  17.251  0.00  0.00    +0.000 A 
ATOM     18  C   UNL     1       3.941   2.838  17.757  0.00  0.00    +0.000 A 
ATOM     19  C   UNL     1       4.513   3.701  18.696  0.00  0.00    +0.000 A 
ATOM     20  C   UNL     1       3.801   4.826  19.135  0.00  0.00    +0.000 A 
BRANCH  20  21
ATOM     21  O   UNL     1       4.354   5.670  20.063  0.00  0.00    +0.000 OA
ATOM     22  H   UNL     1       3.884   5.543  20.905  0.00  0.00    +0.000 HD
ENDBRANCH  20  21
ENDBRANCH  13  15
ENDBRANCH   8  11
BRANCH   9  23
ATOM     23  N   UNL     1       0.805   9.819  17.615  0.00  0.00    +0.000 N 
ATOM     24  H   UNL     1       1.516  10.432  17.198  0.00  0.00    +0.000 HD
ATOM     25  H   UNL     1       0.649   8.993  17.039  0.00  0.00    +0.000 HD
ENDBRANCH   9  23
BRANCH   1  26
ATOM     26  C   UNL     1      -0.996  12.285  18.303  0.00  0.00    +0.000 C 
BRANCH  26  28
ATOM     27  C   UNL     1      -3.179  11.492  17.864  0.00  0.00    +0.000 C 
ATOM     28  O   UNL     1      -1.793  11.342  17.584  0.00  0.00    +0.000 OA
ENDBRANCH  26  28
ENDBRANCH   1  26
TORSDOF 6
ENDMDL
