MODEL 1
REMARK VINA RESULT:      -8.2      0.000      0.000
REMARK  Name = 
REMARK  6 active torsions:
REMARK  status: ('A' for Active; 'I' for Inactive)
REMARK    1  A    between atoms: C_1  and  C_2
REMARK    2  A    between atoms: C_5  and  N_6
REMARK    3  A    between atoms: N_14  and  C_15
REMARK    4  A    between atoms: C_15  and  C_16
REMARK    5  A    between atoms: C_16  and  C_17
REMARK    6  A    between atoms: C_17  and  C_18
REMARK                            x       y       z     vdW  Elec       q    Type
REMARK                         _______ _______ _______ _____ _____    ______ ____
ROOT
ATOM      1  C   UNL     1       8.325   5.681  19.585  0.00  0.00    +0.000 C 
ATOM      2  C   UNL     1       6.921   5.540  19.040  0.00  0.00    +0.000 A 
ATOM      3  N   UNL     1       6.203   4.602  19.584  0.00  0.00    +0.000 NA
ATOM      4  C   UNL     1       4.910   4.441  19.085  0.00  0.00    +0.000 A 
ATOM      5  C   UNL     1       3.943   3.505  19.550  0.00  0.00    +0.000 A 
ATOM      6  C   UNL     1       2.770   3.619  18.817  0.00  0.00    +0.000 A 
ATOM      7  S   UNL     1       2.871   4.823  17.596  0.00  0.00    +0.000 S 
ATOM      8  C   UNL     1       4.465   5.194  18.037  0.00  0.00    +0.000 A 
ATOM      9  C   UNL     1       5.274   6.179  17.379  0.00  0.00    +0.000 A 
ATOM     10  O   UNL     1       4.937   6.753  16.347  0.00  0.00    +0.000 OA
ATOM     11  N   UNL     1       6.511   6.391  18.012  0.00  0.00    +0.000 N 
ENDROOT
BRANCH   5  12
ATOM     12  N   UNL     1       4.088   2.540  20.614  0.00  0.00    +0.000 N 
ATOM     13  O   UNL     1       3.272   2.562  21.542  0.00  0.00    +0.000 OA
ATOM     14  O   UNL     1       5.038   1.749  20.522  0.00  0.00    +0.000 OA
ENDBRANCH   5  12
BRANCH  11  15
ATOM     15  C   UNL     1       7.405   7.375  17.382  0.00  0.00    +0.000 C 
BRANCH  15  16
ATOM     16  C   UNL     1       8.129   8.332  18.343  0.00  0.00    +0.000 C 
BRANCH  16  17
ATOM     17  C   UNL     1       8.202   9.780  17.855  0.00  0.00    +0.000 C 
BRANCH  17  18
ATOM     18  C   UNL     1       9.298  10.529  18.579  0.00  0.00    +0.000 A 
ATOM     19  C   UNL     1       9.267  10.649  19.976  0.00  0.00    +0.000 A 
ATOM     20  C   UNL     1      10.247  11.383  20.648  0.00  0.00    +0.000 A 
ATOM     21  C   UNL     1      11.264  12.010  19.931  0.00  0.00    +0.000 A 
ATOM     22  C   UNL     1      11.303  11.904  18.541  0.00  0.00    +0.000 A 
ATOM     23  C   UNL     1      10.324  11.167  17.868  0.00  0.00    +0.000 A 
ENDBRANCH  17  18
ENDBRANCH  16  17
ENDBRANCH  15  16
ENDBRANCH  11  15
TORSDOF 5
ENDMDL
MODEL 2
REMARK VINA RESULT:      -8.1      5.695      8.029
REMARK  Name = 
REMARK  6 active torsions:
REMARK  status: ('A' for Active; 'I' for Inactive)
REMARK    1  A    between atoms: C_1  and  C_2
REMARK    2  A    between atoms: C_5  and  N_6
REMARK    3  A    between atoms: N_14  and  C_15
REMARK    4  A    between atoms: C_15  and  C_16
REMARK    5  A    between atoms: C_16  and  C_17
REMARK    6  A    between atoms: C_17  and  C_18
REMARK                            x       y       z     vdW  Elec       q    Type
REMARK                         _______ _______ _______ _____ _____    ______ ____
ROOT
ATOM      1  C   UNL     1       1.932   5.829  20.543  0.00  0.00    +0.000 C 
ATOM      2  C   UNL     1       1.703   7.283  20.190  0.00  0.00    +0.000 A 
ATOM      3  N   UNL     1       1.124   7.996  21.111  0.00  0.00    +0.000 NA
ATOM      4  C   UNL     1       0.885   9.334  20.801  0.00  0.00    +0.000 A 
ATOM      5  C   UNL     1       0.296  10.302  21.664  0.00  0.00    +0.000 A 
ATOM      6  C   UNL     1       0.205  11.530  21.023  0.00  0.00    +0.000 A 
ATOM      7  S   UNL     1       0.809  11.478  19.415  0.00  0.00    +0.000 S 
ATOM      8  C   UNL     1       1.192   9.834  19.568  0.00  0.00    +0.000 A 
ATOM      9  C   UNL     1       1.761   9.039  18.519  0.00  0.00    +0.000 A 
ATOM     10  O   UNL     1       1.902   9.438  17.366  0.00  0.00    +0.000 OA
ATOM     11  N   UNL     1       2.104   7.740  18.934  0.00  0.00    +0.000 N 
ENDROOT
BRANCH   5  12
ATOM     12  N   UNL     1      -0.173  10.111  23.017  0.00  0.00    +0.000 N 
ATOM     13  O   UNL     1       0.602   9.616  23.842  0.00  0.00    +0.000 OA
ATOM     14  O   UNL     1      -1.338  10.459  23.255  0.00  0.00    +0.000 OA
ENDBRANCH   5  12
BRANCH  11  15
ATOM     15  C   UNL     1       2.677   6.858  17.905  0.00  0.00    +0.000 C 
BRANCH  15  16
ATOM     16  C   UNL     1       4.208   6.727  17.915  0.00  0.00    +0.000 C 
BRANCH  16  17
ATOM     17  C   UNL     1       4.741   5.506  17.162  0.00  0.00    +0.000 C 
BRANCH  17  18
ATOM     18  C   UNL     1       4.227   4.230  17.790  0.00  0.00    +0.000 A 
ATOM     19  C   UNL     1       3.210   3.495  17.163  0.00  0.00    +0.000 A 
ATOM     20  C   UNL     1       2.694   2.344  17.761  0.00  0.00    +0.000 A 
ATOM     21  C   UNL     1       3.183   1.918  18.995  0.00  0.00    +0.000 A 
ATOM     22  C   UNL     1       4.190   2.643  19.631  0.00  0.00    +0.000 A 
ATOM     23  C   UNL     1       4.709   3.794  19.031  0.00  0.00    +0.000 A 
ENDBRANCH  17  18
ENDBRANCH  16  17
ENDBRANCH  15  16
ENDBRANCH  11  15
TORSDOF 5
ENDMDL
MODEL 3
REMARK VINA RESULT:      -8.0      0.856      1.259
REMARK  Name = 
REMARK  6 active torsions:
REMARK  status: ('A' for Active; 'I' for Inactive)
REMARK    1  A    between atoms: C_1  and  C_2
REMARK    2  A    between atoms: C_5  and  N_6
REMARK    3  A    between atoms: N_14  and  C_15
REMARK    4  A    between atoms: C_15  and  C_16
REMARK    5  A    between atoms: C_16  and  C_17
REMARK    6  A    between atoms: C_17  and  C_18
REMARK                            x       y       z     vdW  Elec       q    Type
REMARK                         _______ _______ _______ _____ _____    ______ ____
ROOT
ATOM      1  C   UNL     1       8.361   5.455  19.275  0.00  0.00    +0.000 C 
ATOM      2  C   UNL     1       6.909   5.419  18.850  0.00  0.00    +0.000 A 
ATOM      3  N   UNL     1       6.177   4.518  19.438  0.00  0.00    +0.000 NA
ATOM      4  C   UNL     1       4.840   4.454  19.048  0.00  0.00    +0.000 A 
ATOM      5  C   UNL     1       3.854   3.573  19.577  0.00  0.00    +0.000 A 
ATOM      6  C   UNL     1       2.634   3.781  18.949  0.00  0.00    +0.000 A 
ATOM      7  S   UNL     1       2.713   5.003  17.745  0.00  0.00    +0.000 S 
ATOM      8  C   UNL     1       4.359   5.259  18.055  0.00  0.00    +0.000 A 
ATOM      9  C   UNL     1       5.175   6.202  17.347  0.00  0.00    +0.000 A 
ATOM     10  O   UNL     1       4.792   6.821  16.358  0.00  0.00    +0.000 OA
ATOM     11  N   UNL     1       6.472   6.318  17.876  0.00  0.00    +0.000 N 
ENDROOT
BRANCH   5  12
ATOM     12  N   UNL     1       4.022   2.577  20.609  0.00  0.00    +0.000 N 
ATOM     13  O   UNL     1       4.978   1.798  20.524  0.00  0.00    +0.000 OA
ATOM     14  O   UNL     1       3.180   2.571  21.518  0.00  0.00    +0.000 OA
ENDBRANCH   5  12
BRANCH  11  15
ATOM     15  C   UNL     1       7.374   7.256  17.188  0.00  0.00    +0.000 C 
BRANCH  15  16
ATOM     16  C   UNL     1       7.428   8.678  17.769  0.00  0.00    +0.000 C 
BRANCH  16  17
ATOM     17  C   UNL     1       8.689   8.980  18.582  0.00  0.00    +0.000 C 
BRANCH  17  18
ATOM     18  C   UNL     1       9.056  10.442  18.469  0.00  0.00    +0.000 A 
ATOM     19  C   UNL     1      10.134  10.958  19.203  0.00  0.00    +0.000 A 
ATOM     20  C   UNL     1      10.448  12.317  19.144  0.00  0.00    +0.000 A 
ATOM     21  C   UNL     1       9.684  13.177  18.356  0.00  0.00    +0.000 A 
ATOM     22  C   UNL     1       8.606  12.678  17.626  0.00  0.00    +0.000 A 
ATOM     23  C   UNL     1       8.294  11.316  17.682  0.00  0.00    +0.000 A 
ENDBRANCH  17  18
ENDBRANCH  16  17
ENDBRANCH  15  16
ENDBRANCH  11  15
TORSDOF 5
ENDMDL
MODEL 4
REMARK VINA RESULT:      -7.8      5.371      7.621
REMARK  Name = 
REMARK  6 active torsions:
REMARK  status: ('A' for Active; 'I' for Inactive)
REMARK    1  A    between atoms: C_1  and  C_2
REMARK    2  A    between atoms: C_5  and  N_6
REMARK    3  A    between atoms: N_14  and  C_15
REMARK    4  A    between atoms: C_15  and  C_16
REMARK    5  A    between atoms: C_16  and  C_17
REMARK    6  A    between atoms: C_17  and  C_18
REMARK                            x       y       z     vdW  Elec       q    Type
REMARK                         _______ _______ _______ _____ _____    ______ ____
ROOT
ATOM      1  C   UNL     1       1.172   8.047  21.003  0.00  0.00    +0.000 C 
ATOM      2  C   UNL     1       1.868   7.043  20.110  0.00  0.00    +0.000 A 
ATOM      3  N   UNL     1       1.928   5.830  20.575  0.00  0.00    +0.000 NA
ATOM      4  C   UNL     1       2.580   4.891  19.777  0.00  0.00    +0.000 A 
ATOM      5  C   UNL     1       2.736   3.506  20.071  0.00  0.00    +0.000 A 
ATOM      6  C   UNL     1       3.446   2.875  19.058  0.00  0.00    +0.000 A 
ATOM      7  S   UNL     1       3.912   3.957  17.808  0.00  0.00    +0.000 S 
ATOM      8  C   UNL     1       3.174   5.259  18.604  0.00  0.00    +0.000 A 
ATOM      9  C   UNL     1       3.180   6.608  18.118  0.00  0.00    +0.000 A 
ATOM     10  O   UNL     1       3.835   6.975  17.146  0.00  0.00    +0.000 OA
ATOM     11  N   UNL     1       2.393   7.478  18.892  0.00  0.00    +0.000 N 
ENDROOT
BRANCH   5  12
ATOM     12  N   UNL     1       2.263   2.790  21.232  0.00  0.00    +0.000 N 
ATOM     13  O   UNL     1       3.097   2.334  22.022  0.00  0.00    +0.000 OA
ATOM     14  O   UNL     1       1.035   2.678  21.354  0.00  0.00    +0.000 OA
ENDBRANCH   5  12
BRANCH  11  15
ATOM     15  C   UNL     1       2.366   8.886  18.464  0.00  0.00    +0.000 C 
BRANCH  15  16
ATOM     16  C   UNL     1       1.046   9.369  17.843  0.00  0.00    +0.000 C 
BRANCH  16  17
ATOM     17  C   UNL     1       0.377  10.519  18.600  0.00  0.00    +0.000 C 
BRANCH  17  18
ATOM     18  C   UNL     1      -1.091  10.602  18.249  0.00  0.00    +0.000 A 
ATOM     19  C   UNL     1      -1.603   9.861  17.174  0.00  0.00    +0.000 A 
ATOM     20  C   UNL     1      -2.947   9.971  16.811  0.00  0.00    +0.000 A 
ATOM     21  C   UNL     1      -3.792  10.828  17.513  0.00  0.00    +0.000 A 
ATOM     22  C   UNL     1      -3.295  11.575  18.580  0.00  0.00    +0.000 A 
ATOM     23  C   UNL     1      -1.950  11.462  18.946  0.00  0.00    +0.000 A 
ENDBRANCH  17  18
ENDBRANCH  16  17
ENDBRANCH  15  16
ENDBRANCH  11  15
TORSDOF 5
ENDMDL
MODEL 5
REMARK VINA RESULT:      -7.8      3.858      7.856
REMARK  Name = 
REMARK  6 active torsions:
REMARK  status: ('A' for Active; 'I' for Inactive)
REMARK    1  A    between atoms: C_1  and  C_2
REMARK    2  A    between atoms: C_5  and  N_6
REMARK    3  A    between atoms: N_14  and  C_15
REMARK    4  A    between atoms: C_15  and  C_16
REMARK    5  A    between atoms: C_16  and  C_17
REMARK    6  A    between atoms: C_17  and  C_18
REMARK                            x       y       z     vdW  Elec       q    Type
REMARK                         _______ _______ _______ _____ _____    ______ ____
ROOT
ATOM      1  C   UNL     1       7.460   6.728  17.905  0.00  0.00    +0.000 C 
ATOM      2  C   UNL     1       6.895   5.816  16.839  0.00  0.00    +0.000 A 
ATOM      3  N   UNL     1       7.435   5.932  15.661  0.00  0.00    +0.000 NA
ATOM      4  C   UNL     1       6.918   5.114  14.657  0.00  0.00    +0.000 A 
ATOM      5  C   UNL     1       7.374   5.051  13.309  0.00  0.00    +0.000 A 
ATOM      6  C   UNL     1       6.623   4.133  12.588  0.00  0.00    +0.000 A 
ATOM      7  S   UNL     1       5.395   3.396  13.538  0.00  0.00    +0.000 S 
ATOM      8  C   UNL     1       5.858   4.289  14.902  0.00  0.00    +0.000 A 
ATOM      9  C   UNL     1       5.206   4.207  16.176  0.00  0.00    +0.000 A 
ATOM     10  O   UNL     1       4.165   3.583  16.367  0.00  0.00    +0.000 OA
ATOM     11  N   UNL     1       5.856   4.948  17.179  0.00  0.00    +0.000 N 
ENDROOT
BRANCH   5  12
ATOM     12  N   UNL     1       8.447   5.803  12.704  0.00  0.00    +0.000 N 
ATOM     13  O   UNL     1       8.186   6.525  11.735  0.00  0.00    +0.000 OA
ATOM     14  O   UNL     1       9.573   5.666  13.204  0.00  0.00    +0.000 OA
ENDBRANCH   5  12
BRANCH  11  15
ATOM     15  C   UNL     1       5.232   4.928  18.512  0.00  0.00    +0.000 C 
BRANCH  15  16
ATOM     16  C   UNL     1       4.306   6.111  18.833  0.00  0.00    +0.000 C 
BRANCH  16  17
ATOM     17  C   UNL     1       2.848   5.902  18.417  0.00  0.00    +0.000 C 
BRANCH  17  18
ATOM     18  C   UNL     1       2.212   4.807  19.243  0.00  0.00    +0.000 A 
ATOM     19  C   UNL     1       2.412   4.763  20.630  0.00  0.00    +0.000 A 
ATOM     20  C   UNL     1       1.872   3.726  21.394  0.00  0.00    +0.000 A 
ATOM     21  C   UNL     1       1.132   2.719  20.778  0.00  0.00    +0.000 A 
ATOM     22  C   UNL     1       0.931   2.747  19.399  0.00  0.00    +0.000 A 
ATOM     23  C   UNL     1       1.469   3.786  18.635  0.00  0.00    +0.000 A 
ENDBRANCH  17  18
ENDBRANCH  16  17
ENDBRANCH  15  16
ENDBRANCH  11  15
TORSDOF 5
ENDMDL
MODEL 6
REMARK VINA RESULT:      -7.8      3.845      7.889
REMARK  Name = 
REMARK  6 active torsions:
REMARK  status: ('A' for Active; 'I' for Inactive)
REMARK    1  A    between atoms: C_1  and  C_2
REMARK    2  A    between atoms: C_5  and  N_6
REMARK    3  A    between atoms: N_14  and  C_15
REMARK    4  A    between atoms: C_15  and  C_16
REMARK    5  A    between atoms: C_16  and  C_17
REMARK    6  A    between atoms: C_17  and  C_18
REMARK                            x       y       z     vdW  Elec       q    Type
REMARK                         _______ _______ _______ _____ _____    ______ ____
ROOT
ATOM      1  C   UNL     1       7.531   6.663  17.931  0.00  0.00    +0.000 C 
ATOM      2  C   UNL     1       6.969   5.736  16.875  0.00  0.00    +0.000 A 
ATOM      3  N   UNL     1       7.451   5.898  15.678  0.00  0.00    +0.000 NA
ATOM      4  C   UNL     1       6.935   5.068  14.683  0.00  0.00    +0.000 A 
ATOM      5  C   UNL     1       7.336   5.049  13.317  0.00  0.00    +0.000 A 
ATOM      6  C   UNL     1       6.604   4.102  12.613  0.00  0.00    +0.000 A 
ATOM      7  S   UNL     1       5.460   3.286  13.601  0.00  0.00    +0.000 S 
ATOM      8  C   UNL     1       5.933   4.183  14.959  0.00  0.00    +0.000 A 
ATOM      9  C   UNL     1       5.342   4.048  16.258  0.00  0.00    +0.000 A 
ATOM     10  O   UNL     1       4.345   3.366  16.482  0.00  0.00    +0.000 OA
ATOM     11  N   UNL     1       5.994   4.809  17.244  0.00  0.00    +0.000 N 
ENDROOT
BRANCH   5  12
ATOM     12  N   UNL     1       8.340   5.867  12.678  0.00  0.00    +0.000 N 
ATOM     13  O   UNL     1       8.053   6.427  11.615  0.00  0.00    +0.000 OA
ATOM     14  O   UNL     1       9.437   5.947  13.250  0.00  0.00    +0.000 OA
ENDBRANCH   5  12
BRANCH  11  15
ATOM     15  C   UNL     1       5.430   4.736  18.602  0.00  0.00    +0.000 C 
BRANCH  15  16
ATOM     16  C   UNL     1       4.584   5.942  19.039  0.00  0.00    +0.000 C 
BRANCH  16  17
ATOM     17  C   UNL     1       3.116   5.870  18.614  0.00  0.00    +0.000 C 
BRANCH  17  18
ATOM     18  C   UNL     1       2.415   4.731  19.319  0.00  0.00    +0.000 A 
ATOM     19  C   UNL     1       1.661   3.804  18.585  0.00  0.00    +0.000 A 
ATOM     20  C   UNL     1       0.967   2.779  19.233  0.00  0.00    +0.000 A 
ATOM     21  C   UNL     1       1.014   2.674  20.622  0.00  0.00    +0.000 A 
ATOM     22  C   UNL     1       1.755   3.593  21.364  0.00  0.00    +0.000 A 
ATOM     23  C   UNL     1       2.452   4.617  20.715  0.00  0.00    +0.000 A 
ENDBRANCH  17  18
ENDBRANCH  16  17
ENDBRANCH  15  16
ENDBRANCH  11  15
TORSDOF 5
ENDMDL
MODEL 7
REMARK VINA RESULT:      -7.8      0.866      1.298
REMARK  Name = 
REMARK  6 active torsions:
REMARK  status: ('A' for Active; 'I' for Inactive)
REMARK    1  A    between atoms: C_1  and  C_2
REMARK    2  A    between atoms: C_5  and  N_6
REMARK    3  A    between atoms: N_14  and  C_15
REMARK    4  A    between atoms: C_15  and  C_16
REMARK    5  A    between atoms: C_16  and  C_17
REMARK    6  A    between atoms: C_17  and  C_18
REMARK                            x       y       z     vdW  Elec       q    Type
REMARK                         _______ _______ _______ _____ _____    ______ ____
ROOT
ATOM      1  C   UNL     1       8.032   5.481  19.654  0.00  0.00    +0.000 C 
ATOM      2  C   UNL     1       6.626   5.373  19.105  0.00  0.00    +0.000 A 
ATOM      3  N   UNL     1       5.834   4.570  19.754  0.00  0.00    +0.000 NA
ATOM      4  C   UNL     1       4.538   4.440  19.256  0.00  0.00    +0.000 A 
ATOM      5  C   UNL     1       3.499   3.646  19.821  0.00  0.00    +0.000 A 
ATOM      6  C   UNL     1       2.344   3.748  19.057  0.00  0.00    +0.000 A 
ATOM      7  S   UNL     1       2.547   4.771  17.691  0.00  0.00    +0.000 S 
ATOM      8  C   UNL     1       4.160   5.079  18.110  0.00  0.00    +0.000 A 
ATOM      9  C   UNL     1       5.046   5.907  17.345  0.00  0.00    +0.000 A 
ATOM     10  O   UNL     1       4.763   6.364  16.241  0.00  0.00    +0.000 OA
ATOM     11  N   UNL     1       6.290   6.109  17.968  0.00  0.00    +0.000 N 
ENDROOT
BRANCH   5  12
ATOM     12  N   UNL     1       3.561   2.822  21.004  0.00  0.00    +0.000 N 
ATOM     13  O   UNL     1       2.721   3.002  21.891  0.00  0.00    +0.000 OA
ATOM     14  O   UNL     1       4.471   1.981  21.049  0.00  0.00    +0.000 OA
ENDBRANCH   5  12
BRANCH  11  15
ATOM     15  C   UNL     1       7.261   6.934  17.231  0.00  0.00    +0.000 C 
BRANCH  15  16
ATOM     16  C   UNL     1       7.416   8.382  17.724  0.00  0.00    +0.000 C 
BRANCH  16  17
ATOM     17  C   UNL     1       8.682   8.636  18.544  0.00  0.00    +0.000 C 
BRANCH  17  18
ATOM     18  C   UNL     1       8.901  10.120  18.737  0.00  0.00    +0.000 A 
ATOM     19  C   UNL     1       8.601  11.017  17.701  0.00  0.00    +0.000 A 
ATOM     20  C   UNL     1       8.848  12.383  17.852  0.00  0.00    +0.000 A 
ATOM     21  C   UNL     1       9.404  12.866  19.034  0.00  0.00    +0.000 A 
ATOM     22  C   UNL     1       9.713  11.984  20.069  0.00  0.00    +0.000 A 
ATOM     23  C   UNL     1       9.463  10.617  19.920  0.00  0.00    +0.000 A 
ENDBRANCH  17  18
ENDBRANCH  16  17
ENDBRANCH  15  16
ENDBRANCH  11  15
TORSDOF 5
ENDMDL
MODEL 8
REMARK VINA RESULT:      -7.6      5.518      7.404
REMARK  Name = 
REMARK  6 active torsions:
REMARK  status: ('A' for Active; 'I' for Inactive)
REMARK    1  A    between atoms: C_1  and  C_2
REMARK    2  A    between atoms: C_5  and  N_6
REMARK    3  A    between atoms: N_14  and  C_15
REMARK    4  A    between atoms: C_15  and  C_16
REMARK    5  A    between atoms: C_16  and  C_17
REMARK    6  A    between atoms: C_17  and  C_18
REMARK                            x       y       z     vdW  Elec       q    Type
REMARK                         _______ _______ _______ _____ _____    ______ ____
ROOT
ATOM      1  C   UNL     1       1.924   5.857  20.641  0.00  0.00    +0.000 C 
ATOM      2  C   UNL     1       1.676   7.298  20.253  0.00  0.00    +0.000 A 
ATOM      3  N   UNL     1       1.084   8.025  21.155  0.00  0.00    +0.000 NA
ATOM      4  C   UNL     1       0.828   9.352  20.813  0.00  0.00    +0.000 A 
ATOM      5  C   UNL     1       0.223  10.332  21.652  0.00  0.00    +0.000 A 
ATOM      6  C   UNL     1       0.117  11.543  20.981  0.00  0.00    +0.000 A 
ATOM      7  S   UNL     1       0.727  11.462  19.377  0.00  0.00    +0.000 S 
ATOM      8  C   UNL     1       1.132   9.827  19.570  0.00  0.00    +0.000 A 
ATOM      9  C   UNL     1       1.715   9.015  18.542  0.00  0.00    +0.000 A 
ATOM     10  O   UNL     1       1.854   9.389  17.380  0.00  0.00    +0.000 OA
ATOM     11  N   UNL     1       2.074   7.732  18.988  0.00  0.00    +0.000 N 
ENDROOT
BRANCH   5  12
ATOM     12  N   UNL     1      -0.247  10.166  23.007  0.00  0.00    +0.000 N 
ATOM     13  O   UNL     1       0.503   9.628  23.828  0.00  0.00    +0.000 OA
ATOM     14  O   UNL     1      -1.390  10.579  23.253  0.00  0.00    +0.000 OA
ENDBRANCH   5  12
BRANCH  11  15
ATOM     15  C   UNL     1       2.663   6.834  17.981  0.00  0.00    +0.000 C 
BRANCH  15  16
ATOM     16  C   UNL     1       4.167   7.015  17.722  0.00  0.00    +0.000 C 
BRANCH  16  17
ATOM     17  C   UNL     1       5.012   5.774  18.021  0.00  0.00    +0.000 C 
BRANCH  17  18
ATOM     18  C   UNL     1       5.593   5.209  16.744  0.00  0.00    +0.000 A 
ATOM     19  C   UNL     1       6.899   5.543  16.356  0.00  0.00    +0.000 A 
ATOM     20  C   UNL     1       7.426   5.068  15.153  0.00  0.00    +0.000 A 
ATOM     21  C   UNL     1       6.652   4.259  14.323  0.00  0.00    +0.000 A 
ATOM     22  C   UNL     1       5.350   3.925  14.694  0.00  0.00    +0.000 A 
ATOM     23  C   UNL     1       4.824   4.398  15.900  0.00  0.00    +0.000 A 
ENDBRANCH  17  18
ENDBRANCH  16  17
ENDBRANCH  15  16
ENDBRANCH  11  15
TORSDOF 5
ENDMDL
MODEL 9
REMARK VINA RESULT:      -7.6      5.552      7.925
REMARK  Name = 
REMARK  6 active torsions:
REMARK  status: ('A' for Active; 'I' for Inactive)
REMARK    1  A    between atoms: C_1  and  C_2
REMARK    2  A    between atoms: C_5  and  N_6
REMARK    3  A    between atoms: N_14  and  C_15
REMARK    4  A    between atoms: C_15  and  C_16
REMARK    5  A    between atoms: C_16  and  C_17
REMARK    6  A    between atoms: C_17  and  C_18
REMARK                            x       y       z     vdW  Elec       q    Type
REMARK                         _______ _______ _______ _____ _____    ______ ____
ROOT
ATOM      1  C   UNL     1       2.010   5.765  20.544  0.00  0.00    +0.000 C 
ATOM      2  C   UNL     1       1.775   7.189  20.089  0.00  0.00    +0.000 A 
ATOM      3  N   UNL     1       1.125   7.942  20.926  0.00  0.00    +0.000 NA
ATOM      4  C   UNL     1       0.880   9.253  20.520  0.00  0.00    +0.000 A 
ATOM      5  C   UNL     1       0.217  10.257  21.284  0.00  0.00    +0.000 A 
ATOM      6  C   UNL     1       0.144  11.441  20.563  0.00  0.00    +0.000 A 
ATOM      7  S   UNL     1       0.850  11.308  19.003  0.00  0.00    +0.000 S 
ATOM      8  C   UNL     1       1.255   9.685  19.281  0.00  0.00    +0.000 A 
ATOM      9  C   UNL     1       1.905   8.842  18.320  0.00  0.00    +0.000 A 
ATOM     10  O   UNL     1       2.112   9.175  17.156  0.00  0.00    +0.000 OA
ATOM     11  N   UNL     1       2.247   7.580  18.834  0.00  0.00    +0.000 N 
ENDROOT
BRANCH   5  12
ATOM     12  N   UNL     1      -0.332  10.136  22.613  0.00  0.00    +0.000 N 
ATOM     13  O   UNL     1      -0.396  11.149  23.317  0.00  0.00    +0.000 OA
ATOM     14  O   UNL     1      -0.703   9.006  22.961  0.00  0.00    +0.000 OA
ENDBRANCH   5  12
BRANCH  11  15
ATOM     15  C   UNL     1       2.902   6.651  17.899  0.00  0.00    +0.000 C 
BRANCH  15  16
ATOM     16  C   UNL     1       4.438   6.632  17.943  0.00  0.00    +0.000 C 
BRANCH  16  17
ATOM     17  C   UNL     1       5.070   5.364  17.365  0.00  0.00    +0.000 C 
BRANCH  17  18
ATOM     18  C   UNL     1       4.396   4.132  17.928  0.00  0.00    +0.000 A 
ATOM     19  C   UNL     1       4.757   3.646  19.193  0.00  0.00    +0.000 A 
ATOM     20  C   UNL     1       4.178   2.480  19.698  0.00  0.00    +0.000 A 
ATOM     21  C   UNL     1       3.237   1.784  18.941  0.00  0.00    +0.000 A 
ATOM     22  C   UNL     1       2.874   2.253  17.679  0.00  0.00    +0.000 A 
ATOM     23  C   UNL     1       3.452   3.422  17.175  0.00  0.00    +0.000 A 
ENDBRANCH  17  18
ENDBRANCH  16  17
ENDBRANCH  15  16
ENDBRANCH  11  15
TORSDOF 5
ENDMDL
