MODEL 1
REMARK VINA RESULT:      -7.8      0.000      0.000
REMARK  Name = 
REMARK  3 active torsions:
REMARK  status: ('A' for Active; 'I' for Inactive)
REMARK    1  A    between atoms: C_1  and  N_2
REMARK    2  A    between atoms: N_12  and  C_13
REMARK    3  A    between atoms: C_13  and  C_14
REMARK                            x       y       z     vdW  Elec       q    Type
REMARK                         _______ _______ _______ _____ _____    ______ ____
ROOT
ATOM      1  C   UNL     1      -0.156   9.427  22.741  0.00  0.00    +0.000 C 
ATOM      2  N   UNL     1       0.052   9.864  21.374  0.00  0.00    +0.000 N 
ATOM      3  C   UNL     1      -0.492  11.003  20.812  0.00  0.00    +0.000 A 
ATOM      4  C   UNL     1      -1.325  12.000  21.350  0.00  0.00    +0.000 A 
ATOM      5  C   UNL     1      -1.716  13.055  20.521  0.00  0.00    +0.000 A 
ATOM      6  C   UNL     1      -1.292  13.122  19.200  0.00  0.00    +0.000 A 
ATOM      7  C   UNL     1      -0.471  12.123  18.667  0.00  0.00    +0.000 A 
ATOM      8  C   UNL     1      -0.065  11.045  19.483  0.00  0.00    +0.000 A 
ATOM      9  C   UNL     1       0.739   9.888  19.253  0.00  0.00    +0.000 A 
ATOM     10  C   UNL     1       1.406   9.377  18.130  0.00  0.00    +0.000 A 
ATOM     11  C   UNL     1       2.137   8.205  18.276  0.00  0.00    +0.000 A 
ATOM     12  N   UNL     1       2.234   7.576  19.467  0.00  0.00    +0.000 N 
ATOM     13  C   UNL     1       1.583   8.023  20.564  0.00  0.00    +0.000 A 
ATOM     14  C   UNL     1       0.826   9.184  20.450  0.00  0.00    +0.000 A 
ENDROOT
BRANCH  12  15
ATOM     15  C   UNL     1       3.092   6.365  19.580  0.00  0.00    +0.000 C 
BRANCH  15  16
ATOM     16  C   UNL     1       2.261   5.114  19.471  0.00  0.00    +0.000 A 
ATOM     17  C   UNL     1       1.761   4.489  20.624  0.00  0.00    +0.000 A 
ATOM     18  C   UNL     1       1.073   3.279  20.530  0.00  0.00    +0.000 A 
ATOM     19  C   UNL     1       0.871   2.685  19.287  0.00  0.00    +0.000 A 
ATOM     20  C   UNL     1       1.329   3.313  18.132  0.00  0.00    +0.000 A 
ATOM     21  C   UNL     1       2.017   4.525  18.221  0.00  0.00    +0.000 A 
ENDBRANCH  15  16
ENDBRANCH  12  15
TORSDOF 2
ENDMDL
MODEL 2
REMARK VINA RESULT:      -7.7      0.193      1.068
REMARK  Name = 
REMARK  3 active torsions:
REMARK  status: ('A' for Active; 'I' for Inactive)
REMARK    1  A    between atoms: C_1  and  N_2
REMARK    2  A    between atoms: N_12  and  C_13
REMARK    3  A    between atoms: C_13  and  C_14
REMARK                            x       y       z     vdW  Elec       q    Type
REMARK                         _______ _______ _______ _____ _____    ______ ____
ROOT
ATOM      1  C   UNL     1       0.132   9.360  22.721  0.00  0.00    +0.000 C 
ATOM      2  N   UNL     1       0.216   9.794  21.340  0.00  0.00    +0.000 N 
ATOM      3  C   UNL     1      -0.408  10.912  20.819  0.00  0.00    +0.000 A 
ATOM      4  C   UNL     1      -1.225  11.886  21.419  0.00  0.00    +0.000 A 
ATOM      5  C   UNL     1      -1.715  12.923  20.620  0.00  0.00    +0.000 A 
ATOM      6  C   UNL     1      -1.401  12.994  19.269  0.00  0.00    +0.000 A 
ATOM      7  C   UNL     1      -0.595  12.019  18.676  0.00  0.00    +0.000 A 
ATOM      8  C   UNL     1      -0.091  10.958  19.460  0.00  0.00    +0.000 A 
ATOM      9  C   UNL     1       0.729   9.826  19.171  0.00  0.00    +0.000 A 
ATOM     10  C   UNL     1       1.319   9.328  18.000  0.00  0.00    +0.000 A 
ATOM     11  C   UNL     1       2.096   8.180  18.091  0.00  0.00    +0.000 A 
ATOM     12  N   UNL     1       2.308   7.563  19.273  0.00  0.00    +0.000 N 
ATOM     13  C   UNL     1       1.733   7.997  20.416  0.00  0.00    +0.000 A 
ATOM     14  C   UNL     1       0.933   9.132  20.360  0.00  0.00    +0.000 A 
ENDROOT
BRANCH  12  15
ATOM     15  C   UNL     1       3.210   6.379  19.321  0.00  0.00    +0.000 C 
BRANCH  15  16
ATOM     16  C   UNL     1       2.411   5.105  19.386  0.00  0.00    +0.000 A 
ATOM     17  C   UNL     1       2.050   4.431  18.209  0.00  0.00    +0.000 A 
ATOM     18  C   UNL     1       1.230   3.304  18.264  0.00  0.00    +0.000 A 
ATOM     19  C   UNL     1       0.768   2.834  19.491  0.00  0.00    +0.000 A 
ATOM     20  C   UNL     1       1.150   3.472  20.668  0.00  0.00    +0.000 A 
ATOM     21  C   UNL     1       1.971   4.600  20.619  0.00  0.00    +0.000 A 
ENDBRANCH  15  16
ENDBRANCH  12  15
TORSDOF 2
ENDMDL
MODEL 3
REMARK VINA RESULT:      -7.7      2.253      3.976
REMARK  Name = 
REMARK  3 active torsions:
REMARK  status: ('A' for Active; 'I' for Inactive)
REMARK    1  A    between atoms: C_1  and  N_2
REMARK    2  A    between atoms: N_12  and  C_13
REMARK    3  A    between atoms: C_13  and  C_14
REMARK                            x       y       z     vdW  Elec       q    Type
REMARK                         _______ _______ _______ _____ _____    ______ ____
ROOT
ATOM      1  C   UNL     1       1.467  10.892  18.455  0.00  0.00    +0.000 C 
ATOM      2  N   UNL     1       1.206   9.939  19.517  0.00  0.00    +0.000 N 
ATOM      3  C   UNL     1       0.490  10.207  20.668  0.00  0.00    +0.000 A 
ATOM      4  C   UNL     1      -0.154  11.375  21.113  0.00  0.00    +0.000 A 
ATOM      5  C   UNL     1      -0.814  11.340  22.344  0.00  0.00    +0.000 A 
ATOM      6  C   UNL     1      -0.837  10.182  23.110  0.00  0.00    +0.000 A 
ATOM      7  C   UNL     1      -0.188   9.025  22.667  0.00  0.00    +0.000 A 
ATOM      8  C   UNL     1       0.489   9.036  21.428  0.00  0.00    +0.000 A 
ATOM      9  C   UNL     1       1.240   8.056  20.711  0.00  0.00    +0.000 A 
ATOM     10  C   UNL     1       1.607   6.729  20.976  0.00  0.00    +0.000 A 
ATOM     11  C   UNL     1       2.342   6.045  20.016  0.00  0.00    +0.000 A 
ATOM     12  N   UNL     1       2.680   6.622  18.843  0.00  0.00    +0.000 N 
ATOM     13  C   UNL     1       2.369   7.907  18.564  0.00  0.00    +0.000 A 
ATOM     14  C   UNL     1       1.650   8.628  19.511  0.00  0.00    +0.000 A 
ENDROOT
BRANCH  12  15
ATOM     15  C   UNL     1       3.405   5.816  17.822  0.00  0.00    +0.000 C 
BRANCH  15  16
ATOM     16  C   UNL     1       4.894   5.976  17.977  0.00  0.00    +0.000 A 
ATOM     17  C   UNL     1       5.581   5.287  18.988  0.00  0.00    +0.000 A 
ATOM     18  C   UNL     1       6.943   5.508  19.193  0.00  0.00    +0.000 A 
ATOM     19  C   UNL     1       7.634   6.411  18.389  0.00  0.00    +0.000 A 
ATOM     20  C   UNL     1       6.972   7.073  17.359  0.00  0.00    +0.000 A 
ATOM     21  C   UNL     1       5.609   6.855  17.149  0.00  0.00    +0.000 A 
ENDBRANCH  15  16
ENDBRANCH  12  15
TORSDOF 2
ENDMDL
MODEL 4
REMARK VINA RESULT:      -7.6      4.849      7.723
REMARK  Name = 
REMARK  3 active torsions:
REMARK  status: ('A' for Active; 'I' for Inactive)
REMARK    1  A    between atoms: C_1  and  N_2
REMARK    2  A    between atoms: N_12  and  C_13
REMARK    3  A    between atoms: C_13  and  C_14
REMARK                            x       y       z     vdW  Elec       q    Type
REMARK                         _______ _______ _______ _____ _____    ______ ____
ROOT
ATOM      1  C   UNL     1       3.713   1.682  17.864  0.00  0.00    +0.000 C 
ATOM      2  N   UNL     1       3.682   3.129  17.955  0.00  0.00    +0.000 N 
ATOM      3  C   UNL     1       2.940   3.852  18.870  0.00  0.00    +0.000 A 
ATOM      4  C   UNL     1       2.081   3.441  19.905  0.00  0.00    +0.000 A 
ATOM      5  C   UNL     1       1.463   4.424  20.683  0.00  0.00    +0.000 A 
ATOM      6  C   UNL     1       1.692   5.772  20.445  0.00  0.00    +0.000 A 
ATOM      7  C   UNL     1       2.541   6.176  19.410  0.00  0.00    +0.000 A 
ATOM      8  C   UNL     1       3.174   5.203  18.607  0.00  0.00    +0.000 A 
ATOM      9  C   UNL     1       4.065   5.277  17.494  0.00  0.00    +0.000 A 
ATOM     10  C   UNL     1       4.626   6.337  16.768  0.00  0.00    +0.000 A 
ATOM     11  C   UNL     1       5.498   6.035  15.729  0.00  0.00    +0.000 A 
ATOM     12  N   UNL     1       5.827   4.760  15.432  0.00  0.00    +0.000 N 
ATOM     13  C   UNL     1       5.286   3.712  16.091  0.00  0.00    +0.000 A 
ATOM     14  C   UNL     1       4.394   3.976  17.124  0.00  0.00    +0.000 A 
ENDROOT
BRANCH  12  15
ATOM     15  C   UNL     1       6.824   4.501  14.357  0.00  0.00    +0.000 C 
BRANCH  15  16
ATOM     16  C   UNL     1       6.173   3.822  13.181  0.00  0.00    +0.000 A 
ATOM     17  C   UNL     1       4.829   4.078  12.867  0.00  0.00    +0.000 A 
ATOM     18  C   UNL     1       4.199   3.378  11.837  0.00  0.00    +0.000 A 
ATOM     19  C   UNL     1       4.903   2.425  11.107  0.00  0.00    +0.000 A 
ATOM     20  C   UNL     1       6.247   2.189  11.384  0.00  0.00    +0.000 A 
ATOM     21  C   UNL     1       6.883   2.886  12.412  0.00  0.00    +0.000 A 
ENDBRANCH  15  16
ENDBRANCH  12  15
TORSDOF 2
ENDMDL
MODEL 5
REMARK VINA RESULT:      -7.6      2.237      4.023
REMARK  Name = 
REMARK  3 active torsions:
REMARK  status: ('A' for Active; 'I' for Inactive)
REMARK    1  A    between atoms: C_1  and  N_2
REMARK    2  A    between atoms: N_12  and  C_13
REMARK    3  A    between atoms: C_13  and  C_14
REMARK                            x       y       z     vdW  Elec       q    Type
REMARK                         _______ _______ _______ _____ _____    ______ ____
ROOT
ATOM      1  C   UNL     1       1.462  10.986  18.502  0.00  0.00    +0.000 C 
ATOM      2  N   UNL     1       1.170  10.033  19.557  0.00  0.00    +0.000 N 
ATOM      3  C   UNL     1       0.445  10.310  20.700  0.00  0.00    +0.000 A 
ATOM      4  C   UNL     1      -0.186  11.487  21.140  0.00  0.00    +0.000 A 
ATOM      5  C   UNL     1      -0.862  11.458  22.363  0.00  0.00    +0.000 A 
ATOM      6  C   UNL     1      -0.914  10.298  23.124  0.00  0.00    +0.000 A 
ATOM      7  C   UNL     1      -0.279   9.133  22.686  0.00  0.00    +0.000 A 
ATOM      8  C   UNL     1       0.415   9.136  21.456  0.00  0.00    +0.000 A 
ATOM      9  C   UNL     1       1.158   8.147  20.745  0.00  0.00    +0.000 A 
ATOM     10  C   UNL     1       1.499   6.813  21.009  0.00  0.00    +0.000 A 
ATOM     11  C   UNL     1       2.236   6.120  20.056  0.00  0.00    +0.000 A 
ATOM     12  N   UNL     1       2.598   6.695  18.889  0.00  0.00    +0.000 N 
ATOM     13  C   UNL     1       2.312   7.986  18.612  0.00  0.00    +0.000 A 
ATOM     14  C   UNL     1       1.593   8.716  19.551  0.00  0.00    +0.000 A 
ENDROOT
BRANCH  12  15
ATOM     15  C   UNL     1       3.323   5.881  17.875  0.00  0.00    +0.000 C 
BRANCH  15  16
ATOM     16  C   UNL     1       4.812   6.032  18.037  0.00  0.00    +0.000 A 
ATOM     17  C   UNL     1       5.547   6.824  17.142  0.00  0.00    +0.000 A 
ATOM     18  C   UNL     1       6.938   6.888  17.234  0.00  0.00    +0.000 A 
ATOM     19  C   UNL     1       7.607   6.170  18.222  0.00  0.00    +0.000 A 
ATOM     20  C   UNL     1       6.885   5.411  19.139  0.00  0.00    +0.000 A 
ATOM     21  C   UNL     1       5.494   5.344  19.052  0.00  0.00    +0.000 A 
ENDBRANCH  15  16
ENDBRANCH  12  15
TORSDOF 2
ENDMDL
MODEL 6
REMARK VINA RESULT:      -7.6      4.830      7.638
REMARK  Name = 
REMARK  3 active torsions:
REMARK  status: ('A' for Active; 'I' for Inactive)
REMARK    1  A    between atoms: C_1  and  N_2
REMARK    2  A    between atoms: N_12  and  C_13
REMARK    3  A    between atoms: C_13  and  C_14
REMARK                            x       y       z     vdW  Elec       q    Type
REMARK                         _______ _______ _______ _____ _____    ______ ____
ROOT
ATOM      1  C   UNL     1       3.553   1.854  17.876  0.00  0.00    +0.000 C 
ATOM      2  N   UNL     1       3.581   3.302  17.940  0.00  0.00    +0.000 N 
ATOM      3  C   UNL     1       2.897   4.070  18.862  0.00  0.00    +0.000 A 
ATOM      4  C   UNL     1       2.053   3.713  19.929  0.00  0.00    +0.000 A 
ATOM      5  C   UNL     1       1.498   4.734  20.706  0.00  0.00    +0.000 A 
ATOM      6  C   UNL     1       1.774   6.067  20.436  0.00  0.00    +0.000 A 
ATOM      7  C   UNL     1       2.606   6.418  19.369  0.00  0.00    +0.000 A 
ATOM      8  C   UNL     1       3.176   5.406  18.566  0.00  0.00    +0.000 A 
ATOM      9  C   UNL     1       4.036   5.424  17.427  0.00  0.00    +0.000 A 
ATOM     10  C   UNL     1       4.617   6.447  16.665  0.00  0.00    +0.000 A 
ATOM     11  C   UNL     1       5.445   6.092  15.608  0.00  0.00    +0.000 A 
ATOM     12  N   UNL     1       5.715   4.799  15.325  0.00  0.00    +0.000 N 
ATOM     13  C   UNL     1       5.152   3.786  16.020  0.00  0.00    +0.000 A 
ATOM     14  C   UNL     1       4.302   4.104  17.073  0.00  0.00    +0.000 A 
ENDROOT
BRANCH  12  15
ATOM     15  C   UNL     1       6.668   4.481  14.227  0.00  0.00    +0.000 C 
BRANCH  15  16
ATOM     16  C   UNL     1       5.978   3.714  13.130  0.00  0.00    +0.000 A 
ATOM     17  C   UNL     1       6.642   2.673  12.464  0.00  0.00    +0.000 A 
ATOM     18  C   UNL     1       6.038   2.026  11.385  0.00  0.00    +0.000 A 
ATOM     19  C   UNL     1       4.766   2.406  10.965  0.00  0.00    +0.000 A 
ATOM     20  C   UNL     1       4.081   3.411  11.642  0.00  0.00    +0.000 A 
ATOM     21  C   UNL     1       4.680   4.061  12.723  0.00  0.00    +0.000 A 
ENDBRANCH  15  16
ENDBRANCH  12  15
TORSDOF 2
ENDMDL
MODEL 7
REMARK VINA RESULT:      -7.4      5.118      7.838
REMARK  Name = 
REMARK  3 active torsions:
REMARK  status: ('A' for Active; 'I' for Inactive)
REMARK    1  A    between atoms: C_1  and  N_2
REMARK    2  A    between atoms: N_12  and  C_13
REMARK    3  A    between atoms: C_13  and  C_14
REMARK                            x       y       z     vdW  Elec       q    Type
REMARK                         _______ _______ _______ _____ _____    ______ ____
ROOT
ATOM      1  C   UNL     1       4.187   1.345  18.106  0.00  0.00    +0.000 C 
ATOM      2  N   UNL     1       3.808   2.726  18.336  0.00  0.00    +0.000 N 
ATOM      3  C   UNL     1       2.770   3.142  19.148  0.00  0.00    +0.000 A 
ATOM      4  C   UNL     1       1.859   2.418  19.938  0.00  0.00    +0.000 A 
ATOM      5  C   UNL     1       0.904   3.131  20.668  0.00  0.00    +0.000 A 
ATOM      6  C   UNL     1       0.856   4.518  20.620  0.00  0.00    +0.000 A 
ATOM      7  C   UNL     1       1.759   5.232  19.827  0.00  0.00    +0.000 A 
ATOM      8  C   UNL     1       2.731   4.536  19.076  0.00  0.00    +0.000 A 
ATOM      9  C   UNL     1       3.764   4.950  18.183  0.00  0.00    +0.000 A 
ATOM     10  C   UNL     1       4.186   6.196  17.698  0.00  0.00    +0.000 A 
ATOM     11  C   UNL     1       5.275   6.233  16.836  0.00  0.00    +0.000 A 
ATOM     12  N   UNL     1       5.936   5.109  16.484  0.00  0.00    +0.000 N 
ATOM     13  C   UNL     1       5.541   3.888  16.908  0.00  0.00    +0.000 A 
ATOM     14  C   UNL     1       4.443   3.812  17.759  0.00  0.00    +0.000 A 
ENDROOT
BRANCH  12  15
ATOM     15  C   UNL     1       7.139   5.217  15.615  0.00  0.00    +0.000 C 
BRANCH  15  16
ATOM     16  C   UNL     1       6.837   4.726  14.225  0.00  0.00    +0.000 A 
ATOM     17  C   UNL     1       5.736   3.889  13.990  0.00  0.00    +0.000 A 
ATOM     18  C   UNL     1       5.511   3.357  12.719  0.00  0.00    +0.000 A 
ATOM     19  C   UNL     1       6.376   3.661  11.671  0.00  0.00    +0.000 A 
ATOM     20  C   UNL     1       7.450   4.521  11.883  0.00  0.00    +0.000 A 
ATOM     21  C   UNL     1       7.680   5.056  13.151  0.00  0.00    +0.000 A 
ENDBRANCH  15  16
ENDBRANCH  12  15
TORSDOF 2
ENDMDL
MODEL 8
REMARK VINA RESULT:      -7.4      1.541      2.754
REMARK  Name = 
REMARK  3 active torsions:
REMARK  status: ('A' for Active; 'I' for Inactive)
REMARK    1  A    between atoms: C_1  and  N_2
REMARK    2  A    between atoms: N_12  and  C_13
REMARK    3  A    between atoms: C_13  and  C_14
REMARK                            x       y       z     vdW  Elec       q    Type
REMARK                         _______ _______ _______ _____ _____    ______ ____
ROOT
ATOM      1  C   UNL     1       1.297  11.162  18.516  0.00  0.00    +0.000 C 
ATOM      2  N   UNL     1       1.048  10.202  19.575  0.00  0.00    +0.000 N 
ATOM      3  C   UNL     1       0.342  10.463  20.733  0.00  0.00    +0.000 A 
ATOM      4  C   UNL     1      -0.303  11.627  21.189  0.00  0.00    +0.000 A 
ATOM      5  C   UNL     1      -0.951  11.583  22.426  0.00  0.00    +0.000 A 
ATOM      6  C   UNL     1      -0.964  10.422  23.187  0.00  0.00    +0.000 A 
ATOM      7  C   UNL     1      -0.315   9.269  22.733  0.00  0.00    +0.000 A 
ATOM      8  C   UNL     1       0.352   9.288  21.488  0.00  0.00    +0.000 A 
ATOM      9  C   UNL     1       1.099   8.315  20.760  0.00  0.00    +0.000 A 
ATOM     10  C   UNL     1       1.473   6.987  21.015  0.00  0.00    +0.000 A 
ATOM     11  C   UNL     1       2.202   6.311  20.045  0.00  0.00    +0.000 A 
ATOM     12  N   UNL     1       2.528   6.894  18.871  0.00  0.00    +0.000 N 
ATOM     13  C   UNL     1       2.210   8.179  18.602  0.00  0.00    +0.000 A 
ATOM     14  C   UNL     1       1.496   8.893  19.558  0.00  0.00    +0.000 A 
ENDROOT
BRANCH  12  15
ATOM     15  C   UNL     1       3.246   6.096  17.840  0.00  0.00    +0.000 C 
BRANCH  15  16
ATOM     16  C   UNL     1       3.165   4.626  18.154  0.00  0.00    +0.000 A 
ATOM     17  C   UNL     1       4.220   3.981  18.817  0.00  0.00    +0.000 A 
ATOM     18  C   UNL     1       4.187   2.601  19.022  0.00  0.00    +0.000 A 
ATOM     19  C   UNL     1       3.100   1.854  18.576  0.00  0.00    +0.000 A 
ATOM     20  C   UNL     1       2.030   2.487  17.951  0.00  0.00    +0.000 A 
ATOM     21  C   UNL     1       2.057   3.867  17.743  0.00  0.00    +0.000 A 
ENDBRANCH  15  16
ENDBRANCH  12  15
TORSDOF 2
ENDMDL
MODEL 9
REMARK VINA RESULT:      -7.3      2.526      4.431
REMARK  Name = 
REMARK  3 active torsions:
REMARK  status: ('A' for Active; 'I' for Inactive)
REMARK    1  A    between atoms: C_1  and  N_2
REMARK    2  A    between atoms: N_12  and  C_13
REMARK    3  A    between atoms: C_13  and  C_14
REMARK                            x       y       z     vdW  Elec       q    Type
REMARK                         _______ _______ _______ _____ _____    ______ ____
ROOT
ATOM      1  C   UNL     1       2.223   9.152  17.634  0.00  0.00    +0.000 C 
ATOM      2  N   UNL     1       1.880   8.483  18.874  0.00  0.00    +0.000 N 
ATOM      3  C   UNL     1       1.269   9.083  19.958  0.00  0.00    +0.000 A 
ATOM      4  C   UNL     1       0.824  10.401  20.165  0.00  0.00    +0.000 A 
ATOM      5  C   UNL     1       0.229  10.715  21.389  0.00  0.00    +0.000 A 
ATOM      6  C   UNL     1       0.076   9.752  22.378  0.00  0.00    +0.000 A 
ATOM      7  C   UNL     1       0.528   8.445  22.172  0.00  0.00    +0.000 A 
ATOM      8  C   UNL     1       1.137   8.103  20.944  0.00  0.00    +0.000 A 
ATOM      9  C   UNL     1       1.701   6.897  20.431  0.00  0.00    +0.000 A 
ATOM     10  C   UNL     1       1.885   5.610  20.957  0.00  0.00    +0.000 A 
ATOM     11  C   UNL     1       2.464   4.643  20.144  0.00  0.00    +0.000 A 
ATOM     12  N   UNL     1       2.823   4.913  18.871  0.00  0.00    +0.000 N 
ATOM     13  C   UNL     1       2.688   6.148  18.339  0.00  0.00    +0.000 A 
ATOM     14  C   UNL     1       2.128   7.146  19.130  0.00  0.00    +0.000 A 
ENDROOT
BRANCH  12  15
ATOM     15  C   UNL     1       3.371   3.818  18.024  0.00  0.00    +0.000 C 
BRANCH  15  16
ATOM     16  C   UNL     1       4.730   4.188  17.492  0.00  0.00    +0.000 A 
ATOM     17  C   UNL     1       4.971   4.204  16.109  0.00  0.00    +0.000 A 
ATOM     18  C   UNL     1       6.254   4.453  15.619  0.00  0.00    +0.000 A 
ATOM     19  C   UNL     1       7.304   4.696  16.501  0.00  0.00    +0.000 A 
ATOM     20  C   UNL     1       7.069   4.721  17.873  0.00  0.00    +0.000 A 
ATOM     21  C   UNL     1       5.788   4.473  18.368  0.00  0.00    +0.000 A 
ENDBRANCH  15  16
ENDBRANCH  12  15
TORSDOF 2
ENDMDL
