MODEL 1
REMARK VINA RESULT:      -8.2      0.000      0.000
REMARK  Name = 
REMARK  7 active torsions:
REMARK  status: ('A' for Active; 'I' for Inactive)
REMARK    1  A    between atoms: C_1  and  C_2
REMARK    2  A    between atoms: C_2  and  C_3
REMARK    3  A    between atoms: C_2  and  N_6
REMARK    4  A    between atoms: C_10  and  C_11
REMARK    5  A    between atoms: C_14  and  O_15
REMARK    6  A    between atoms: O_15  and  C_16
REMARK    7  A    between atoms: C_16  and  C_17
REMARK                            x       y       z     vdW  Elec       q    Type
REMARK                         _______ _______ _______ _____ _____    ______ ____
ROOT
ATOM      1  C   UNL     1       3.182   6.756  18.328  0.00  0.00    +0.000 A 
ATOM      2  C   UNL     1       2.934   7.891  17.541  0.00  0.00    +0.000 A 
ATOM      3  C   UNL     1       2.120   8.926  17.998  0.00  0.00    +0.000 A 
ATOM      4  C   UNL     1       1.500   8.833  19.242  0.00  0.00    +0.000 A 
ATOM      5  C   UNL     1       1.763   7.737  20.058  0.00  0.00    +0.000 A 
ATOM      6  C   UNL     1       2.576   6.696  19.598  0.00  0.00    +0.000 A 
ENDROOT
BRANCH   1  11
ATOM      7  N   UNL     1       5.079   5.169  18.710  0.00  0.00    +0.000 NA
ATOM      8  C   UNL     1       4.681   3.885  19.273  0.00  0.00    +0.000 C 
ATOM      9  C   UNL     1       3.940   3.189  18.160  0.00  0.00    +0.000 C 
ATOM     10  C   UNL     1       3.178   4.322  17.501  0.00  0.00    +0.000 C 
ATOM     11  C   UNL     1       4.007   5.596  17.771  0.00  0.00    +0.000 C 
BRANCH   7  13
ATOM     12  C   UNL     1       6.478   6.043  16.836  0.00  0.00    +0.000 C 
ATOM     13  C   UNL     1       6.454   5.289  18.172  0.00  0.00    +0.000 C 
BRANCH  13  14
ATOM     14  C   UNL     1       7.496   5.815  19.186  0.00  0.00    +0.000 C 
ATOM     15  N   UNL     1       8.241   6.905  18.844  0.00  0.00    +0.000 N 
ATOM     16  O   UNL     1       7.663   5.311  20.296  0.00  0.00    +0.000 OA
ATOM     17  H   UNL     1       8.075   7.467  18.024  0.00  0.00    +0.000 HD
ATOM     18  H   UNL     1       8.902   7.242  19.534  0.00  0.00    +0.000 HD
ENDBRANCH  13  14
ENDBRANCH   7  13
ENDBRANCH   1  11
BRANCH   4  19
ATOM     19  O   UNL     1       0.608   9.749  19.735  0.00  0.00    +0.000 OA
BRANCH  19  20
ATOM     20  C   UNL     1       0.323  10.825  18.835  0.00  0.00    +0.000 C 
BRANCH  20  21
ATOM     21  C   UNL     1      -1.117  10.764  18.413  0.00  0.00    +0.000 A 
ATOM     22  C   UNL     1      -1.524   9.896  17.387  0.00  0.00    +0.000 A 
ATOM     23  C   UNL     1      -2.853   9.894  16.955  0.00  0.00    +0.000 A 
ATOM     24  C   UNL     1      -3.783  10.755  17.542  0.00  0.00    +0.000 A 
ATOM     25  C   UNL     1      -3.385  11.619  18.559  0.00  0.00    +0.000 A 
ATOM     26  C   UNL     1      -2.058  11.622  18.982  0.00  0.00    +0.000 A 
ATOM     27  F   UNL     1      -1.691  12.478  19.945  0.00  0.00    +0.000 F 
ENDBRANCH  20  21
ENDBRANCH  19  20
ENDBRANCH   4  19
TORSDOF 6
ENDMDL
MODEL 2
REMARK VINA RESULT:      -8.2      1.182      1.541
REMARK  Name = 
REMARK  7 active torsions:
REMARK  status: ('A' for Active; 'I' for Inactive)
REMARK    1  A    between atoms: C_1  and  C_2
REMARK    2  A    between atoms: C_2  and  C_3
REMARK    3  A    between atoms: C_2  and  N_6
REMARK    4  A    between atoms: C_10  and  C_11
REMARK    5  A    between atoms: C_14  and  O_15
REMARK    6  A    between atoms: O_15  and  C_16
REMARK    7  A    between atoms: C_16  and  C_17
REMARK                            x       y       z     vdW  Elec       q    Type
REMARK                         _______ _______ _______ _____ _____    ______ ____
ROOT
ATOM      1  C   UNL     1       3.106   6.917  18.308  0.00  0.00    +0.000 A 
ATOM      2  C   UNL     1       2.812   8.076  17.574  0.00  0.00    +0.000 A 
ATOM      3  C   UNL     1       1.992   9.075  18.096  0.00  0.00    +0.000 A 
ATOM      4  C   UNL     1       1.414   8.921  19.354  0.00  0.00    +0.000 A 
ATOM      5  C   UNL     1       1.726   7.801  20.118  0.00  0.00    +0.000 A 
ATOM      6  C   UNL     1       2.543   6.795  19.592  0.00  0.00    +0.000 A 
ENDROOT
BRANCH   1  11
ATOM      7  N   UNL     1       5.179   5.520  18.450  0.00  0.00    +0.000 NA
ATOM      8  C   UNL     1       4.996   4.246  19.132  0.00  0.00    +0.000 C 
ATOM      9  C   UNL     1       4.154   3.422  18.190  0.00  0.00    +0.000 C 
ATOM     10  C   UNL     1       3.196   4.444  17.611  0.00  0.00    +0.000 C 
ATOM     11  C   UNL     1       3.937   5.796  17.680  0.00  0.00    +0.000 C 
BRANCH   7  13
ATOM     12  C   UNL     1       6.645   7.193  17.317  0.00  0.00    +0.000 C 
ATOM     13  C   UNL     1       6.434   5.720  17.688  0.00  0.00    +0.000 C 
BRANCH  13  14
ATOM     14  C   UNL     1       7.682   5.069  18.327  0.00  0.00    +0.000 C 
ATOM     15  N   UNL     1       8.103   5.526  19.540  0.00  0.00    +0.000 N 
ATOM     16  O   UNL     1       8.295   4.140  17.802  0.00  0.00    +0.000 OA
ATOM     17  H   UNL     1       7.584   6.178  20.108  0.00  0.00    +0.000 HD
ATOM     18  H   UNL     1       8.910   5.069  19.947  0.00  0.00    +0.000 HD
ENDBRANCH  13  14
ENDBRANCH   7  13
ENDBRANCH   1  11
BRANCH   4  19
ATOM     19  O   UNL     1       0.521   9.798  19.911  0.00  0.00    +0.000 OA
BRANCH  19  20
ATOM     20  C   UNL     1       0.337  10.999  19.154  0.00  0.00    +0.000 C 
BRANCH  20  21
ATOM     21  C   UNL     1      -1.123  11.198  18.867  0.00  0.00    +0.000 A 
ATOM     22  C   UNL     1      -1.882  12.110  19.619  0.00  0.00    +0.000 A 
ATOM     23  C   UNL     1      -3.254  12.239  19.389  0.00  0.00    +0.000 A 
ATOM     24  C   UNL     1      -3.878  11.463  18.410  0.00  0.00    +0.000 A 
ATOM     25  C   UNL     1      -3.132  10.556  17.661  0.00  0.00    +0.000 A 
ATOM     26  C   UNL     1      -1.766  10.426  17.898  0.00  0.00    +0.000 A 
ATOM     27  F   UNL     1      -1.071   9.531  17.183  0.00  0.00    +0.000 F 
ENDBRANCH  20  21
ENDBRANCH  19  20
ENDBRANCH   4  19
TORSDOF 6
ENDMDL
MODEL 3
REMARK VINA RESULT:      -8.1      2.353      3.281
REMARK  Name = 
REMARK  7 active torsions:
REMARK  status: ('A' for Active; 'I' for Inactive)
REMARK    1  A    between atoms: C_1  and  C_2
REMARK    2  A    between atoms: C_2  and  C_3
REMARK    3  A    between atoms: C_2  and  N_6
REMARK    4  A    between atoms: C_10  and  C_11
REMARK    5  A    between atoms: C_14  and  O_15
REMARK    6  A    between atoms: O_15  and  C_16
REMARK    7  A    between atoms: C_16  and  C_17
REMARK                            x       y       z     vdW  Elec       q    Type
REMARK                         _______ _______ _______ _____ _____    ______ ____
ROOT
ATOM      1  C   UNL     1       2.909   6.316  19.116  0.00  0.00    +0.000 A 
ATOM      2  C   UNL     1       2.793   7.312  18.135  0.00  0.00    +0.000 A 
ATOM      3  C   UNL     1       2.072   8.482  18.371  0.00  0.00    +0.000 A 
ATOM      4  C   UNL     1       1.414   8.666  19.586  0.00  0.00    +0.000 A 
ATOM      5  C   UNL     1       1.549   7.711  20.589  0.00  0.00    +0.000 A 
ATOM      6  C   UNL     1       2.268   6.536  20.351  0.00  0.00    +0.000 A 
ENDROOT
BRANCH   1  11
ATOM      7  N   UNL     1       2.690   3.860  18.686  0.00  0.00    +0.000 NA
ATOM      8  C   UNL     1       2.609   3.505  17.275  0.00  0.00    +0.000 C 
ATOM      9  C   UNL     1       3.989   3.774  16.729  0.00  0.00    +0.000 C 
ATOM     10  C   UNL     1       4.405   5.030  17.468  0.00  0.00    +0.000 C 
ATOM     11  C   UNL     1       3.632   5.005  18.804  0.00  0.00    +0.000 C 
BRANCH   7  13
ATOM     12  C   UNL     1       4.418   2.557  19.932  0.00  0.00    +0.000 C 
ATOM     13  C   UNL     1       2.923   2.767  19.659  0.00  0.00    +0.000 C 
BRANCH  13  14
ATOM     14  C   UNL     1       2.077   2.868  20.949  0.00  0.00    +0.000 C 
ATOM     15  N   UNL     1       0.739   3.101  20.831  0.00  0.00    +0.000 N 
ATOM     16  O   UNL     1       2.554   2.722  22.074  0.00  0.00    +0.000 OA
ATOM     17  H   UNL     1       0.240   3.090  19.955  0.00  0.00    +0.000 HD
ATOM     18  H   UNL     1       0.204   3.143  21.690  0.00  0.00    +0.000 HD
ENDBRANCH  13  14
ENDBRANCH   7  13
ENDBRANCH   1  11
BRANCH   4  19
ATOM     19  O   UNL     1       0.603   9.731  19.876  0.00  0.00    +0.000 OA
BRANCH  19  20
ATOM     20  C   UNL     1       0.450  10.656  18.793  0.00  0.00    +0.000 C 
BRANCH  20  21
ATOM     21  C   UNL     1      -1.010  10.897  18.536  0.00  0.00    +0.000 A 
ATOM     22  C   UNL     1      -1.724  11.835  19.299  0.00  0.00    +0.000 A 
ATOM     23  C   UNL     1      -3.096  12.005  19.098  0.00  0.00    +0.000 A 
ATOM     24  C   UNL     1      -3.764  11.243  18.138  0.00  0.00    +0.000 A 
ATOM     25  C   UNL     1      -3.063  10.310  17.379  0.00  0.00    +0.000 A 
ATOM     26  C   UNL     1      -1.696  10.140  17.586  0.00  0.00    +0.000 A 
ATOM     27  F   UNL     1      -1.044   9.220  16.862  0.00  0.00    +0.000 F 
ENDBRANCH  20  21
ENDBRANCH  19  20
ENDBRANCH   4  19
TORSDOF 6
ENDMDL
MODEL 4
REMARK VINA RESULT:      -8.0      5.303      7.689
REMARK  Name = 
REMARK  7 active torsions:
REMARK  status: ('A' for Active; 'I' for Inactive)
REMARK    1  A    between atoms: C_1  and  C_2
REMARK    2  A    between atoms: C_2  and  C_3
REMARK    3  A    between atoms: C_2  and  N_6
REMARK    4  A    between atoms: C_10  and  C_11
REMARK    5  A    between atoms: C_14  and  O_15
REMARK    6  A    between atoms: O_15  and  C_16
REMARK    7  A    between atoms: C_16  and  C_17
REMARK                            x       y       z     vdW  Elec       q    Type
REMARK                         _______ _______ _______ _____ _____    ______ ____
ROOT
ATOM      1  C   UNL     1       5.812   5.213  18.062  0.00  0.00    +0.000 A 
ATOM      2  C   UNL     1       5.698   6.306  17.190  0.00  0.00    +0.000 A 
ATOM      3  C   UNL     1       6.626   7.347  17.209  0.00  0.00    +0.000 A 
ATOM      4  C   UNL     1       7.670   7.338  18.131  0.00  0.00    +0.000 A 
ATOM      5  C   UNL     1       7.828   6.245  18.977  0.00  0.00    +0.000 A 
ATOM      6  C   UNL     1       6.894   5.203  18.962  0.00  0.00    +0.000 A 
ENDROOT
BRANCH   1  11
ATOM      7  N   UNL     1       3.692   4.390  19.109  0.00  0.00    +0.000 NA
ATOM      8  C   UNL     1       2.481   4.797  18.408  0.00  0.00    +0.000 C 
ATOM      9  C   UNL     1       2.496   4.008  17.123  0.00  0.00    +0.000 C 
ATOM     10  C   UNL     1       3.965   3.997  16.751  0.00  0.00    +0.000 C 
ATOM     11  C   UNL     1       4.735   4.127  18.082  0.00  0.00    +0.000 C 
BRANCH   7  13
ATOM     12  C   UNL     1       2.147   3.271  20.720  0.00  0.00    +0.000 C 
ATOM     13  C   UNL     1       3.568   3.339  20.146  0.00  0.00    +0.000 C 
BRANCH  13  14
ATOM     14  C   UNL     1       4.121   1.957  19.726  0.00  0.00    +0.000 C 
ATOM     15  N   UNL     1       5.248   1.496  20.340  0.00  0.00    +0.000 N 
ATOM     16  O   UNL     1       3.576   1.246  18.882  0.00  0.00    +0.000 OA
ATOM     17  H   UNL     1       5.677   1.938  21.138  0.00  0.00    +0.000 HD
ATOM     18  H   UNL     1       5.578   0.580  20.062  0.00  0.00    +0.000 HD
ENDBRANCH  13  14
ENDBRANCH   7  13
ENDBRANCH   1  11
BRANCH   4  19
ATOM     19  O   UNL     1       8.571   8.357  18.292  0.00  0.00    +0.000 OA
BRANCH  19  20
ATOM     20  C   UNL     1       8.101   9.628  17.829  0.00  0.00    +0.000 C 
BRANCH  20  21
ATOM     21  C   UNL     1       8.928  10.725  18.434  0.00  0.00    +0.000 A 
ATOM     22  C   UNL     1       9.761  10.468  19.536  0.00  0.00    +0.000 A 
ATOM     23  C   UNL     1      10.476  11.510  20.133  0.00  0.00    +0.000 A 
ATOM     24  C   UNL     1      10.367  12.811  19.638  0.00  0.00    +0.000 A 
ATOM     25  C   UNL     1       9.543  13.072  18.546  0.00  0.00    +0.000 A 
ATOM     26  C   UNL     1       8.827  12.033  17.958  0.00  0.00    +0.000 A 
ATOM     27  F   UNL     1       8.021  12.310  16.924  0.00  0.00    +0.000 F 
ENDBRANCH  20  21
ENDBRANCH  19  20
ENDBRANCH   4  19
TORSDOF 6
ENDMDL
MODEL 5
REMARK VINA RESULT:      -8.0      2.068      2.910
REMARK  Name = 
REMARK  7 active torsions:
REMARK  status: ('A' for Active; 'I' for Inactive)
REMARK    1  A    between atoms: C_1  and  C_2
REMARK    2  A    between atoms: C_2  and  C_3
REMARK    3  A    between atoms: C_2  and  N_6
REMARK    4  A    between atoms: C_10  and  C_11
REMARK    5  A    between atoms: C_14  and  O_15
REMARK    6  A    between atoms: O_15  and  C_16
REMARK    7  A    between atoms: C_16  and  C_17
REMARK                            x       y       z     vdW  Elec       q    Type
REMARK                         _______ _______ _______ _____ _____    ______ ____
ROOT
ATOM      1  C   UNL     1       2.746   7.127  18.877  0.00  0.00    +0.000 A 
ATOM      2  C   UNL     1       1.998   7.472  20.012  0.00  0.00    +0.000 A 
ATOM      3  C   UNL     1       1.204   8.618  20.036  0.00  0.00    +0.000 A 
ATOM      4  C   UNL     1       1.170   9.470  18.934  0.00  0.00    +0.000 A 
ATOM      5  C   UNL     1       1.869   9.126  17.781  0.00  0.00    +0.000 A 
ATOM      6  C   UNL     1       2.671   7.980  17.759  0.00  0.00    +0.000 A 
ENDROOT
BRANCH   1  11
ATOM      7  N   UNL     1       2.948   4.642  18.646  0.00  0.00    +0.000 NA
ATOM      8  C   UNL     1       3.316   4.194  17.309  0.00  0.00    +0.000 C 
ATOM      9  C   UNL     1       4.753   4.619  17.141  0.00  0.00    +0.000 C 
ATOM     10  C   UNL     1       4.790   5.964  17.839  0.00  0.00    +0.000 C 
ATOM     11  C   UNL     1       3.676   5.913  18.906  0.00  0.00    +0.000 C 
BRANCH   7  13
ATOM     12  C   UNL     1       1.637   3.378  20.353  0.00  0.00    +0.000 C 
ATOM     13  C   UNL     1       3.019   3.655  19.748  0.00  0.00    +0.000 C 
BRANCH  13  14
ATOM     14  C   UNL     1       3.801   2.366  19.404  0.00  0.00    +0.000 C 
ATOM     15  N   UNL     1       5.097   2.265  19.816  0.00  0.00    +0.000 N 
ATOM     16  O   UNL     1       3.299   1.420  18.799  0.00  0.00    +0.000 OA
ATOM     17  H   UNL     1       5.544   2.921  20.437  0.00  0.00    +0.000 HD
ATOM     18  H   UNL     1       5.581   1.403  19.596  0.00  0.00    +0.000 HD
ENDBRANCH  13  14
ENDBRANCH   7  13
ENDBRANCH   1  11
BRANCH   4  19
ATOM     19  O   UNL     1       0.500  10.664  18.896  0.00  0.00    +0.000 OA
BRANCH  19  20
ATOM     20  C   UNL     1      -0.808  10.615  19.476  0.00  0.00    +0.000 C 
BRANCH  20  21
ATOM     21  C   UNL     1      -1.845  10.655  18.391  0.00  0.00    +0.000 A 
ATOM     22  C   UNL     1      -1.707   9.862  17.240  0.00  0.00    +0.000 A 
ATOM     23  C   UNL     1      -2.642   9.956  16.206  0.00  0.00    +0.000 A 
ATOM     24  C   UNL     1      -3.719  10.839  16.312  0.00  0.00    +0.000 A 
ATOM     25  C   UNL     1      -3.861  11.629  17.449  0.00  0.00    +0.000 A 
ATOM     26  C   UNL     1      -2.924  11.537  18.475  0.00  0.00    +0.000 A 
ATOM     27  F   UNL     1      -3.066  12.322  19.551  0.00  0.00    +0.000 F 
ENDBRANCH  20  21
ENDBRANCH  19  20
ENDBRANCH   4  19
TORSDOF 6
ENDMDL
MODEL 6
REMARK VINA RESULT:      -8.0      2.021      2.466
REMARK  Name = 
REMARK  7 active torsions:
REMARK  status: ('A' for Active; 'I' for Inactive)
REMARK    1  A    between atoms: C_1  and  C_2
REMARK    2  A    between atoms: C_2  and  C_3
REMARK    3  A    between atoms: C_2  and  N_6
REMARK    4  A    between atoms: C_10  and  C_11
REMARK    5  A    between atoms: C_14  and  O_15
REMARK    6  A    between atoms: O_15  and  C_16
REMARK    7  A    between atoms: C_16  and  C_17
REMARK                            x       y       z     vdW  Elec       q    Type
REMARK                         _______ _______ _______ _____ _____    ______ ____
ROOT
ATOM      1  C   UNL     1       3.339   6.403  18.322  0.00  0.00    +0.000 A 
ATOM      2  C   UNL     1       3.180   7.554  17.535  0.00  0.00    +0.000 A 
ATOM      3  C   UNL     1       2.420   8.635  17.979  0.00  0.00    +0.000 A 
ATOM      4  C   UNL     1       1.766   8.575  19.207  0.00  0.00    +0.000 A 
ATOM      5  C   UNL     1       1.943   7.462  20.024  0.00  0.00    +0.000 A 
ATOM      6  C   UNL     1       2.701   6.375  19.577  0.00  0.00    +0.000 A 
ENDROOT
BRANCH   1  11
ATOM      7  N   UNL     1       5.102   4.679  18.753  0.00  0.00    +0.000 NA
ATOM      8  C   UNL     1       4.590   3.417  19.273  0.00  0.00    +0.000 C 
ATOM      9  C   UNL     1       3.852   2.794  18.115  0.00  0.00    +0.000 C 
ATOM     10  C   UNL     1       3.201   3.990  17.447  0.00  0.00    +0.000 C 
ATOM     11  C   UNL     1       4.105   5.196  17.778  0.00  0.00    +0.000 C 
BRANCH   7  13
ATOM     12  C   UNL     1       6.587   4.967  16.767  0.00  0.00    +0.000 C 
ATOM     13  C   UNL     1       6.505   4.710  18.277  0.00  0.00    +0.000 C 
BRANCH  13  14
ATOM     14  C   UNL     1       7.441   5.623  19.101  0.00  0.00    +0.000 C 
ATOM     15  N   UNL     1       7.930   6.751  18.513  0.00  0.00    +0.000 N 
ATOM     16  O   UNL     1       7.743   5.389  20.271  0.00  0.00    +0.000 OA
ATOM     17  H   UNL     1       7.625   7.097  17.616  0.00  0.00    +0.000 HD
ATOM     18  H   UNL     1       8.524   7.342  19.081  0.00  0.00    +0.000 HD
ENDBRANCH  13  14
ENDBRANCH   7  13
ENDBRANCH   1  11
BRANCH   4  19
ATOM     19  O   UNL     1       0.921   9.542  19.685  0.00  0.00    +0.000 OA
BRANCH  19  20
ATOM     20  C   UNL     1       0.803   9.556  21.112  0.00  0.00    +0.000 C 
BRANCH  20  21
ATOM     21  C   UNL     1      -0.302  10.488  21.519  0.00  0.00    +0.000 A 
ATOM     22  C   UNL     1      -0.842  11.401  20.599  0.00  0.00    +0.000 A 
ATOM     23  C   UNL     1      -1.823  12.309  21.005  0.00  0.00    +0.000 A 
ATOM     24  C   UNL     1      -2.273  12.313  22.327  0.00  0.00    +0.000 A 
ATOM     25  C   UNL     1      -1.741  11.411  23.244  0.00  0.00    +0.000 A 
ATOM     26  C   UNL     1      -0.759  10.511  22.837  0.00  0.00    +0.000 A 
ATOM     27  F   UNL     1      -0.243   9.667  23.741  0.00  0.00    +0.000 F 
ENDBRANCH  20  21
ENDBRANCH  19  20
ENDBRANCH   4  19
TORSDOF 6
ENDMDL
MODEL 7
REMARK VINA RESULT:      -8.0      2.028      2.937
REMARK  Name = 
REMARK  7 active torsions:
REMARK  status: ('A' for Active; 'I' for Inactive)
REMARK    1  A    between atoms: C_1  and  C_2
REMARK    2  A    between atoms: C_2  and  C_3
REMARK    3  A    between atoms: C_2  and  N_6
REMARK    4  A    between atoms: C_10  and  C_11
REMARK    5  A    between atoms: C_14  and  O_15
REMARK    6  A    between atoms: O_15  and  C_16
REMARK    7  A    between atoms: C_16  and  C_17
REMARK                            x       y       z     vdW  Elec       q    Type
REMARK                         _______ _______ _______ _____ _____    ______ ____
ROOT
ATOM      1  C   UNL     1       2.656   7.328  18.956  0.00  0.00    +0.000 A 
ATOM      2  C   UNL     1       2.608   8.135  17.810  0.00  0.00    +0.000 A 
ATOM      3  C   UNL     1       1.836   9.295  17.773  0.00  0.00    +0.000 A 
ATOM      4  C   UNL     1       1.060   9.657  18.872  0.00  0.00    +0.000 A 
ATOM      5  C   UNL     1       1.124   8.895  20.035  0.00  0.00    +0.000 A 
ATOM      6  C   UNL     1       1.894   7.728  20.071  0.00  0.00    +0.000 A 
ENDROOT
BRANCH   1  11
ATOM      7  N   UNL     1       2.556   4.835  18.749  0.00  0.00    +0.000 NA
ATOM      8  C   UNL     1       2.781   4.338  17.398  0.00  0.00    +0.000 C 
ATOM      9  C   UNL     1       4.244   4.593  17.133  0.00  0.00    +0.000 C 
ATOM     10  C   UNL     1       4.481   5.929  17.807  0.00  0.00    +0.000 C 
ATOM     11  C   UNL     1       3.440   6.015  18.943  0.00  0.00    +0.000 C 
BRANCH   7  13
ATOM     12  C   UNL     1       1.174   3.540  20.376  0.00  0.00    +0.000 C 
ATOM     13  C   UNL     1       2.584   3.854  19.859  0.00  0.00    +0.000 C 
BRANCH  13  14
ATOM     14  C   UNL     1       3.423   2.587  19.573  0.00  0.00    +0.000 C 
ATOM     15  N   UNL     1       2.821   1.539  18.942  0.00  0.00    +0.000 N 
ATOM     16  O   UNL     1       4.615   2.494  19.865  0.00  0.00    +0.000 OA
ATOM     17  H   UNL     1       1.898   1.578  18.539  0.00  0.00    +0.000 HD
ATOM     18  H   UNL     1       3.397   0.729  18.748  0.00  0.00    +0.000 HD
ENDBRANCH  13  14
ENDBRANCH   7  13
ENDBRANCH   1  11
BRANCH   4  19
ATOM     19  O   UNL     1       0.197  10.720  18.898  0.00  0.00    +0.000 OA
BRANCH  19  20
ATOM     20  C   UNL     1      -1.126  10.385  19.331  0.00  0.00    +0.000 C 
BRANCH  20  21
ATOM     21  C   UNL     1      -2.084  10.519  18.183  0.00  0.00    +0.000 A 
ATOM     22  C   UNL     1      -1.846   9.849  16.971  0.00  0.00    +0.000 A 
ATOM     23  C   UNL     1      -2.707  10.034  15.886  0.00  0.00    +0.000 A 
ATOM     24  C   UNL     1      -3.809  10.884  16.001  0.00  0.00    +0.000 A 
ATOM     25  C   UNL     1      -4.050  11.552  17.199  0.00  0.00    +0.000 A 
ATOM     26  C   UNL     1      -3.185  11.371  18.276  0.00  0.00    +0.000 A 
ATOM     27  F   UNL     1      -3.421  12.041  19.411  0.00  0.00    +0.000 F 
ENDBRANCH  20  21
ENDBRANCH  19  20
ENDBRANCH   4  19
TORSDOF 6
ENDMDL
MODEL 8
REMARK VINA RESULT:      -8.0      2.343      3.140
REMARK  Name = 
REMARK  7 active torsions:
REMARK  status: ('A' for Active; 'I' for Inactive)
REMARK    1  A    between atoms: C_1  and  C_2
REMARK    2  A    between atoms: C_2  and  C_3
REMARK    3  A    between atoms: C_2  and  N_6
REMARK    4  A    between atoms: C_10  and  C_11
REMARK    5  A    between atoms: C_14  and  O_15
REMARK    6  A    between atoms: O_15  and  C_16
REMARK    7  A    between atoms: C_16  and  C_17
REMARK                            x       y       z     vdW  Elec       q    Type
REMARK                         _______ _______ _______ _____ _____    ______ ____
ROOT
ATOM      1  C   UNL     1       2.492   7.186  19.419  0.00  0.00    +0.000 A 
ATOM      2  C   UNL     1       2.345   8.139  18.401  0.00  0.00    +0.000 A 
ATOM      3  C   UNL     1       1.540   9.264  18.572  0.00  0.00    +0.000 A 
ATOM      4  C   UNL     1       0.828   9.443  19.757  0.00  0.00    +0.000 A 
ATOM      5  C   UNL     1       0.991   8.533  20.797  0.00  0.00    +0.000 A 
ATOM      6  C   UNL     1       1.795   7.401  20.623  0.00  0.00    +0.000 A 
ENDROOT
BRANCH   1  11
ATOM      7  N   UNL     1       2.450   4.713  19.027  0.00  0.00    +0.000 NA
ATOM      8  C   UNL     1       2.475   4.330  17.621  0.00  0.00    +0.000 C 
ATOM      9  C   UNL     1       3.866   4.675  17.152  0.00  0.00    +0.000 C 
ATOM     10  C   UNL     1       4.160   5.968  17.888  0.00  0.00    +0.000 C 
ATOM     11  C   UNL     1       3.311   5.917  19.176  0.00  0.00    +0.000 C 
BRANCH   7  13
ATOM     12  C   UNL     1       1.392   3.225  20.729  0.00  0.00    +0.000 C 
ATOM     13  C   UNL     1       2.691   3.654  20.034  0.00  0.00    +0.000 C 
BRANCH  13  14
ATOM     14  C   UNL     1       3.530   2.461  19.522  0.00  0.00    +0.000 C 
ATOM     15  N   UNL     1       4.864   2.438  19.803  0.00  0.00    +0.000 N 
ATOM     16  O   UNL     1       3.043   1.521  18.895  0.00  0.00    +0.000 OA
ATOM     17  H   UNL     1       5.319   3.084  20.429  0.00  0.00    +0.000 HD
ATOM     18  H   UNL     1       5.387   1.636  19.474  0.00  0.00    +0.000 HD
ENDBRANCH  13  14
ENDBRANCH   7  13
ENDBRANCH   1  11
BRANCH   4  19
ATOM     19  O   UNL     1      -0.061  10.460  19.982  0.00  0.00    +0.000 OA
BRANCH  19  20
ATOM     20  C   UNL     1      -0.312  11.277  18.834  0.00  0.00    +0.000 C 
BRANCH  20  21
ATOM     21  C   UNL     1      -1.753  11.151  18.429  0.00  0.00    +0.000 A 
ATOM     22  C   UNL     1      -2.737  11.953  19.030  0.00  0.00    +0.000 A 
ATOM     23  C   UNL     1      -4.082  11.782  18.695  0.00  0.00    +0.000 A 
ATOM     24  C   UNL     1      -4.456  10.814  17.760  0.00  0.00    +0.000 A 
ATOM     25  C   UNL     1      -3.486  10.015  17.161  0.00  0.00    +0.000 A 
ATOM     26  C   UNL     1      -2.146  10.184  17.502  0.00  0.00    +0.000 A 
ATOM     27  F   UNL     1      -1.230   9.390  16.932  0.00  0.00    +0.000 F 
ENDBRANCH  20  21
ENDBRANCH  19  20
ENDBRANCH   4  19
TORSDOF 6
ENDMDL
MODEL 9
REMARK VINA RESULT:      -8.0      0.779      1.237
REMARK  Name = 
REMARK  7 active torsions:
REMARK  status: ('A' for Active; 'I' for Inactive)
REMARK    1  A    between atoms: C_1  and  C_2
REMARK    2  A    between atoms: C_2  and  C_3
REMARK    3  A    between atoms: C_2  and  N_6
REMARK    4  A    between atoms: C_10  and  C_11
REMARK    5  A    between atoms: C_14  and  O_15
REMARK    6  A    between atoms: O_15  and  C_16
REMARK    7  A    between atoms: C_16  and  C_17
REMARK                            x       y       z     vdW  Elec       q    Type
REMARK                         _______ _______ _______ _____ _____    ______ ____
ROOT
ATOM      1  C   UNL     1       2.918   6.884  18.246  0.00  0.00    +0.000 A 
ATOM      2  C   UNL     1       2.427   6.820  19.559  0.00  0.00    +0.000 A 
ATOM      3  C   UNL     1       1.687   7.867  20.107  0.00  0.00    +0.000 A 
ATOM      4  C   UNL     1       1.452   9.023  19.366  0.00  0.00    +0.000 A 
ATOM      5  C   UNL     1       1.892   9.092  18.047  0.00  0.00    +0.000 A 
ATOM      6  C   UNL     1       2.640   8.044  17.499  0.00  0.00    +0.000 A 
ENDROOT
BRANCH   1  11
ATOM      7  N   UNL     1       5.037   5.577  18.502  0.00  0.00    +0.000 NA
ATOM      8  C   UNL     1       4.889   4.337  19.253  0.00  0.00    +0.000 C 
ATOM      9  C   UNL     1       4.095   3.430  18.347  0.00  0.00    +0.000 C 
ATOM     10  C   UNL     1       3.111   4.381  17.695  0.00  0.00    +0.000 C 
ATOM     11  C   UNL     1       3.800   5.762  17.697  0.00  0.00    +0.000 C 
BRANCH   7  13
ATOM     12  C   UNL     1       6.506   7.254  17.378  0.00  0.00    +0.000 C 
ATOM     13  C   UNL     1       6.298   5.780  17.750  0.00  0.00    +0.000 C 
BRANCH  13  14
ATOM     14  C   UNL     1       7.543   5.135  18.401  0.00  0.00    +0.000 C 
ATOM     15  N   UNL     1       8.203   4.161  17.712  0.00  0.00    +0.000 N 
ATOM     16  O   UNL     1       7.979   5.480  19.499  0.00  0.00    +0.000 OA
ATOM     17  H   UNL     1       8.009   3.917  16.753  0.00  0.00    +0.000 HD
ATOM     18  H   UNL     1       9.027   3.769  18.151  0.00  0.00    +0.000 HD
ENDBRANCH  13  14
ENDBRANCH   7  13
ENDBRANCH   1  11
BRANCH   4  19
ATOM     19  O   UNL     1       0.823  10.140  19.848  0.00  0.00    +0.000 OA
BRANCH  19  20
ATOM     20  C   UNL     1       0.453  11.081  18.834  0.00  0.00    +0.000 C 
BRANCH  20  21
ATOM     21  C   UNL     1      -1.019  10.979  18.560  0.00  0.00    +0.000 A 
ATOM     22  C   UNL     1      -1.508  10.064  17.613  0.00  0.00    +0.000 A 
ATOM     23  C   UNL     1      -2.873  10.023  17.317  0.00  0.00    +0.000 A 
ATOM     24  C   UNL     1      -3.758  10.890  17.961  0.00  0.00    +0.000 A 
ATOM     25  C   UNL     1      -3.280  11.800  18.900  0.00  0.00    +0.000 A 
ATOM     26  C   UNL     1      -1.918  11.842  19.188  0.00  0.00    +0.000 A 
ATOM     27  F   UNL     1      -1.475  12.741  20.077  0.00  0.00    +0.000 F 
ENDBRANCH  20  21
ENDBRANCH  19  20
ENDBRANCH   4  19
TORSDOF 6
ENDMDL
