MODEL 1
REMARK VINA RESULT:      -7.2      0.000      0.000
REMARK  Name = 
REMARK  10 active torsions:
REMARK  status: ('A' for Active; 'I' for Inactive)
REMARK    1  A    between atoms: C_1  and  C_2
REMARK    2  A    between atoms: C_2  and  C_3
REMARK    3  A    between atoms: C_2  and  C_4
REMARK    4  A    between atoms: C_4  and  C_5
REMARK    5  A    between atoms: C_20  and  C_21
REMARK    6  A    between atoms: C_21  and  O_22
REMARK    7  A    between atoms: O_22  and  C_23
REMARK    8  A    between atoms: C_23  and  C_24
REMARK    9  A    between atoms: C_23  and  C_25
REMARK   10  A    between atoms: C_23  and  C_26
REMARK                            x       y       z     vdW  Elec       q    Type
REMARK                         _______ _______ _______ _____ _____    ______ ____
ROOT
ATOM      1  C   UNK A   2       2.184   6.971  20.050  0.00  0.00    +0.000 C 
ATOM      2  C   UNK A   2       3.135   6.540  18.944  0.00  0.00    +0.000 A 
ATOM      3  N   UNK A   2       3.866   5.383  18.912  0.00  0.00    +0.000 N 
ATOM      4  C   UNK A   2       4.446   5.209  17.679  0.00  0.00    +0.000 A 
ATOM      5  C   UNK A   2       5.105   4.097  17.148  0.00  0.00    +0.000 A 
ATOM      6  C   UNK A   2       5.660   4.231  15.875  0.00  0.00    +0.000 A 
ATOM      7  C   UNK A   2       5.575   5.437  15.179  0.00  0.00    +0.000 A 
ATOM      8  C   UNK A   2       4.897   6.535  15.726  0.00  0.00    +0.000 A 
ATOM      9  C   UNK A   2       4.298   6.411  16.995  0.00  0.00    +0.000 A 
ATOM     10  C   UNK A   2       3.505   7.253  17.820  0.00  0.00    +0.000 A 
ATOM     11  C   UNK A   2       3.035   8.637  17.588  0.00  0.00    +0.000 C 
ATOM     12  C   UNK A   2       2.434   9.215  18.884  0.00  0.00    +0.000 C 
ATOM     13  C   UNK A   2       1.858  10.598  18.529  0.00  0.00    +0.000 C 
ATOM     14  O   UNK A   2       2.380  11.386  17.742  0.00  0.00    +0.000 OA
ATOM     15  N   UNK A   1       0.813  11.020  19.307  0.00  0.00    +0.000 N 
ATOM     16  C   UNK A   1      -0.159  10.053  19.801  0.00  0.00    +0.000 C 
ATOM     17  C   UNK A   1       0.566   8.839  20.418  0.00  0.00    +0.000 C 
ATOM     18  O   UNK A   1       0.224   8.383  21.505  0.00  0.00    +0.000 OA
ATOM     19  N   UNK A   2       1.531   8.245  19.581  0.00  0.00    +0.000 N 
ATOM     20  H   UNK A   2       3.954   4.704  19.649  0.00  0.00    +0.000 HD
ATOM     21  H   UNK A   1       0.481  11.947  19.065  0.00  0.00    +0.000 HD
ENDROOT
BRANCH   1  22
ATOM     22  C   UNK A   2       1.178   5.825  20.419  0.00  0.00    +0.000 C 
BRANCH  22  24
ATOM     23  C   UNK A   2       2.135   3.791  21.663  0.00  0.00    +0.000 C 
ATOM     24  C   UNK A   2       1.718   4.371  20.309  0.00  0.00    +0.000 C 
ATOM     25  C   UNK A   2       0.722   3.437  19.620  0.00  0.00    +0.000 C 
ENDBRANCH  22  24
ENDBRANCH   1  22
BRANCH  16  26
ATOM     26  C   UNK A   1      -1.136   9.622  18.692  0.00  0.00    +0.000 C 
BRANCH  26  27
ATOM     27  O   UNK A   1      -1.592  10.754  17.954  0.00  0.00    +0.000 OA
BRANCH  27  28
ATOM     28  C   UNK A   1      -2.851  10.633  17.268  0.00  0.00    +0.000 C 
ATOM     29  C   UNK A   1      -2.676  10.553  15.746  0.00  0.00    +0.000 C 
ATOM     30  C   UNK A   1      -3.458   9.306  17.754  0.00  0.00    +0.000 C 
ATOM     31  C   UNK A   1      -3.802  11.772  17.654  0.00  0.00    +0.000 C 
ENDBRANCH  27  28
ENDBRANCH  26  27
ENDBRANCH  16  26
TORSDOF 5
ENDMDL
MODEL 2
REMARK VINA RESULT:      -7.1      7.209      8.392
REMARK  Name = 
REMARK  10 active torsions:
REMARK  status: ('A' for Active; 'I' for Inactive)
REMARK    1  A    between atoms: C_1  and  C_2
REMARK    2  A    between atoms: C_2  and  C_3
REMARK    3  A    between atoms: C_2  and  C_4
REMARK    4  A    between atoms: C_4  and  C_5
REMARK    5  A    between atoms: C_20  and  C_21
REMARK    6  A    between atoms: C_21  and  O_22
REMARK    7  A    between atoms: O_22  and  C_23
REMARK    8  A    between atoms: C_23  and  C_24
REMARK    9  A    between atoms: C_23  and  C_25
REMARK   10  A    between atoms: C_23  and  C_26
REMARK                            x       y       z     vdW  Elec       q    Type
REMARK                         _______ _______ _______ _____ _____    ______ ____
ROOT
ATOM      1  C   UNK A   2       7.343  13.399  22.526  0.00  0.00    +0.000 C 
ATOM      2  C   UNK A   2       8.407  13.247  21.451  0.00  0.00    +0.000 A 
ATOM      3  N   UNK A   2       9.594  12.575  21.575  0.00  0.00    +0.000 N 
ATOM      4  C   UNK A   2      10.213  12.450  20.356  0.00  0.00    +0.000 A 
ATOM      5  C   UNK A   2      11.324  11.686  19.989  0.00  0.00    +0.000 A 
ATOM      6  C   UNK A   2      11.778  11.809  18.675  0.00  0.00    +0.000 A 
ATOM      7  C   UNK A   2      11.155  12.679  17.779  0.00  0.00    +0.000 A 
ATOM      8  C   UNK A   2      10.033  13.424  18.166  0.00  0.00    +0.000 A 
ATOM      9  C   UNK A   2       9.535  13.289  19.477  0.00  0.00    +0.000 A 
ATOM     10  C   UNK A   2       8.425  13.815  20.191  0.00  0.00    +0.000 A 
ATOM     11  C   UNK A   2       7.369  14.751  19.745  0.00  0.00    +0.000 C 
ATOM     12  C   UNK A   2       6.543  15.228  20.956  0.00  0.00    +0.000 C 
ATOM     13  C   UNK A   2       5.395  16.091  20.398  0.00  0.00    +0.000 C 
ATOM     14  O   UNK A   2       5.506  16.860  19.444  0.00  0.00    +0.000 OA
ATOM     15  N   UNK A   1       4.259  16.128  21.161  0.00  0.00    +0.000 N 
ATOM     16  C   UNK A   1       3.840  14.939  21.894  0.00  0.00    +0.000 C 
ATOM     17  C   UNK A   1       5.034  14.343  22.666  0.00  0.00    +0.000 C 
ATOM     18  O   UNK A   1       4.922  14.003  23.840  0.00  0.00    +0.000 OA
ATOM     19  N   UNK A   2       6.181  14.109  21.882  0.00  0.00    +0.000 N 
ATOM     20  H   UNK A   2       9.973  12.172  22.416  0.00  0.00    +0.000 HD
ATOM     21  H   UNK A   1       3.538  16.730  20.779  0.00  0.00    +0.000 HD
ENDROOT
BRANCH   1  22
ATOM     22  C   UNK A   2       6.979  12.015  23.172  0.00  0.00    +0.000 C 
BRANCH  22  24
ATOM     23  C   UNK A   2       8.327  12.939  25.154  0.00  0.00    +0.000 C 
ATOM     24  C   UNK A   2       7.556  11.743  24.590  0.00  0.00    +0.000 C 
ATOM     25  C   UNK A   2       6.474  11.300  25.576  0.00  0.00    +0.000 C 
ENDBRANCH  22  24
ENDBRANCH   1  22
BRANCH  16  26
ATOM     26  C   UNK A   1       3.198  13.900  20.956  0.00  0.00    +0.000 C 
BRANCH  26  27
ATOM     27  O   UNK A   1       1.921  14.346  20.506  0.00  0.00    +0.000 OA
BRANCH  27  28
ATOM     28  C   UNK A   1       1.730  14.480  19.087  0.00  0.00    +0.000 C 
ATOM     29  C   UNK A   1       1.678  15.948  18.645  0.00  0.00    +0.000 C 
ATOM     30  C   UNK A   1       2.963  13.826  18.441  0.00  0.00    +0.000 C 
ATOM     31  C   UNK A   1       0.480  13.721  18.624  0.00  0.00    +0.000 C 
ENDBRANCH  27  28
ENDBRANCH  26  27
ENDBRANCH  16  26
TORSDOF 5
ENDMDL
MODEL 3
REMARK VINA RESULT:      -7.0      7.138      8.406
REMARK  Name = 
REMARK  10 active torsions:
REMARK  status: ('A' for Active; 'I' for Inactive)
REMARK    1  A    between atoms: C_1  and  C_2
REMARK    2  A    between atoms: C_2  and  C_3
REMARK    3  A    between atoms: C_2  and  C_4
REMARK    4  A    between atoms: C_4  and  C_5
REMARK    5  A    between atoms: C_20  and  C_21
REMARK    6  A    between atoms: C_21  and  O_22
REMARK    7  A    between atoms: O_22  and  C_23
REMARK    8  A    between atoms: C_23  and  C_24
REMARK    9  A    between atoms: C_23  and  C_25
REMARK   10  A    between atoms: C_23  and  C_26
REMARK                            x       y       z     vdW  Elec       q    Type
REMARK                         _______ _______ _______ _____ _____    ______ ____
ROOT
ATOM      1  C   UNK A   2       7.309  13.449  22.504  0.00  0.00    +0.000 C 
ATOM      2  C   UNK A   2       8.425  13.303  21.481  0.00  0.00    +0.000 A 
ATOM      3  N   UNK A   2       9.598  12.618  21.655  0.00  0.00    +0.000 N 
ATOM      4  C   UNK A   2      10.277  12.506  20.466  0.00  0.00    +0.000 A 
ATOM      5  C   UNK A   2      11.398  11.737  20.143  0.00  0.00    +0.000 A 
ATOM      6  C   UNK A   2      11.919  11.876  18.856  0.00  0.00    +0.000 A 
ATOM      7  C   UNK A   2      11.350  12.765  17.944  0.00  0.00    +0.000 A 
ATOM      8  C   UNK A   2      10.216  13.515  18.286  0.00  0.00    +0.000 A 
ATOM      9  C   UNK A   2       9.652  13.365  19.568  0.00  0.00    +0.000 A 
ATOM     10  C   UNK A   2       8.511  13.890  20.233  0.00  0.00    +0.000 A 
ATOM     11  C   UNK A   2       7.488  14.844  19.750  0.00  0.00    +0.000 C 
ATOM     12  C   UNK A   2       6.606  15.310  20.925  0.00  0.00    +0.000 C 
ATOM     13  C   UNK A   2       5.496  16.192  20.324  0.00  0.00    +0.000 C 
ATOM     14  O   UNK A   2       5.662  16.975  19.389  0.00  0.00    +0.000 OA
ATOM     15  N   UNK A   1       4.323  16.229  21.030  0.00  0.00    +0.000 N 
ATOM     16  C   UNK A   1       3.857  15.033  21.721  0.00  0.00    +0.000 C 
ATOM     17  C   UNK A   1       5.005  14.413  22.543  0.00  0.00    +0.000 C 
ATOM     18  O   UNK A   1       4.831  14.057  23.704  0.00  0.00    +0.000 OA
ATOM     19  N   UNK A   2       6.188  14.180  21.814  0.00  0.00    +0.000 N 
ATOM     20  H   UNK A   2       9.931  12.198  22.506  0.00  0.00    +0.000 HD
ATOM     21  H   UNK A   1       3.628  16.844  20.621  0.00  0.00    +0.000 HD
ENDROOT
BRANCH   1  22
ATOM     22  C   UNK A   2       6.902  12.059  23.108  0.00  0.00    +0.000 C 
BRANCH  22  24
ATOM     23  C   UNK A   2       8.218  12.906  25.145  0.00  0.00    +0.000 C 
ATOM     24  C   UNK A   2       7.453  11.734  24.525  0.00  0.00    +0.000 C 
ATOM     25  C   UNK A   2       6.353  11.262  25.477  0.00  0.00    +0.000 C 
ENDBRANCH  22  24
ENDBRANCH   1  22
BRANCH  16  26
ATOM     26  C   UNK A   1       3.254  14.015  20.736  0.00  0.00    +0.000 C 
BRANCH  26  27
ATOM     27  O   UNK A   1       2.397  13.100  21.417  0.00  0.00    +0.000 OA
BRANCH  27  28
ATOM     28  C   UNK A   1       1.046  12.981  20.939  0.00  0.00    +0.000 C 
ATOM     29  C   UNK A   1       0.046  13.722  21.838  0.00  0.00    +0.000 C 
ATOM     30  C   UNK A   1       1.037  13.651  19.555  0.00  0.00    +0.000 C 
ATOM     31  C   UNK A   1       0.648  11.510  20.769  0.00  0.00    +0.000 C 
ENDBRANCH  27  28
ENDBRANCH  26  27
ENDBRANCH  16  26
TORSDOF 5
ENDMDL
MODEL 4
REMARK VINA RESULT:      -7.0      5.148      9.342
REMARK  Name = 
REMARK  10 active torsions:
REMARK  status: ('A' for Active; 'I' for Inactive)
REMARK    1  A    between atoms: C_1  and  C_2
REMARK    2  A    between atoms: C_2  and  C_3
REMARK    3  A    between atoms: C_2  and  C_4
REMARK    4  A    between atoms: C_4  and  C_5
REMARK    5  A    between atoms: C_20  and  C_21
REMARK    6  A    between atoms: C_21  and  O_22
REMARK    7  A    between atoms: O_22  and  C_23
REMARK    8  A    between atoms: C_23  and  C_24
REMARK    9  A    between atoms: C_23  and  C_25
REMARK   10  A    between atoms: C_23  and  C_26
REMARK                            x       y       z     vdW  Elec       q    Type
REMARK                         _______ _______ _______ _____ _____    ______ ____
ROOT
ATOM      1  C   UNK A   2      -2.663  12.623  19.484  0.00  0.00    +0.000 C 
ATOM      2  C   UNK A   2      -3.770  12.734  20.522  0.00  0.00    +0.000 A 
ATOM      3  N   UNK A   2      -5.106  12.528  20.305  0.00  0.00    +0.000 N 
ATOM      4  C   UNK A   2      -5.793  12.495  21.494  0.00  0.00    +0.000 A 
ATOM      5  C   UNK A   2      -7.115  12.125  21.755  0.00  0.00    +0.000 A 
ATOM      6  C   UNK A   2      -7.567  12.256  23.069  0.00  0.00    +0.000 A 
ATOM      7  C   UNK A   2      -6.733  12.759  24.068  0.00  0.00    +0.000 A 
ATOM      8  C   UNK A   2      -5.406  13.109  23.784  0.00  0.00    +0.000 A 
ATOM      9  C   UNK A   2      -4.917  12.951  22.473  0.00  0.00    +0.000 A 
ATOM     10  C   UNK A   2      -3.658  13.136  21.839  0.00  0.00    +0.000 A 
ATOM     11  C   UNK A   2      -2.372  13.599  22.404  0.00  0.00    +0.000 C 
ATOM     12  C   UNK A   2      -1.371  13.889  21.268  0.00  0.00    +0.000 C 
ATOM     13  C   UNK A   2      -0.029  14.240  21.937  0.00  0.00    +0.000 C 
ATOM     14  O   UNK A   2       0.079  14.895  22.973  0.00  0.00    +0.000 OA
ATOM     15  N   UNK A   1       1.090  13.965  21.197  0.00  0.00    +0.000 N 
ATOM     16  C   UNK A   1       1.117  12.790  20.335  0.00  0.00    +0.000 C 
ATOM     17  C   UNK A   1      -0.167  12.726  19.484  0.00  0.00    +0.000 C 
ATOM     18  O   UNK A   1      -0.117  12.495  18.280  0.00  0.00    +0.000 OA
ATOM     19  N   UNK A   2      -1.364  12.818  20.221  0.00  0.00    +0.000 N 
ATOM     20  H   UNK A   2      -5.556  12.371  19.419  0.00  0.00    +0.000 HD
ATOM     21  H   UNK A   1       1.952  14.239  21.656  0.00  0.00    +0.000 HD
ENDROOT
BRANCH   1  22
ATOM     22  C   UNK A   2      -2.760  11.276  18.686  0.00  0.00    +0.000 C 
BRANCH  22  24
ATOM     23  C   UNK A   2      -2.471  10.325  16.317  0.00  0.00    +0.000 C 
ATOM     24  C   UNK A   2      -3.146  11.390  17.184  0.00  0.00    +0.000 C 
ATOM     25  C   UNK A   2      -4.661  11.356  16.975  0.00  0.00    +0.000 C 
ENDBRANCH  22  24
ENDBRANCH   1  22
BRANCH  16  26
ATOM     26  C   UNK A   1       1.318  11.500  21.152  0.00  0.00    +0.000 C 
BRANCH  26  27
ATOM     27  O   UNK A   1       0.236  10.595  20.940  0.00  0.00    +0.000 OA
BRANCH  27  28
ATOM     28  C   UNK A   1      -0.026   9.625  21.969  0.00  0.00    +0.000 C 
ATOM     29  C   UNK A   1      -0.692   8.359  21.416  0.00  0.00    +0.000 C 
ATOM     30  C   UNK A   1       1.352   9.238  22.532  0.00  0.00    +0.000 C 
ATOM     31  C   UNK A   1      -0.859  10.235  23.102  0.00  0.00    +0.000 C 
ENDBRANCH  27  28
ENDBRANCH  26  27
ENDBRANCH  16  26
TORSDOF 5
ENDMDL
MODEL 5
REMARK VINA RESULT:      -7.0      4.718      7.600
REMARK  Name = 
REMARK  10 active torsions:
REMARK  status: ('A' for Active; 'I' for Inactive)
REMARK    1  A    between atoms: C_1  and  C_2
REMARK    2  A    between atoms: C_2  and  C_3
REMARK    3  A    between atoms: C_2  and  C_4
REMARK    4  A    between atoms: C_4  and  C_5
REMARK    5  A    between atoms: C_20  and  C_21
REMARK    6  A    between atoms: C_21  and  O_22
REMARK    7  A    between atoms: O_22  and  C_23
REMARK    8  A    between atoms: C_23  and  C_24
REMARK    9  A    between atoms: C_23  and  C_25
REMARK   10  A    between atoms: C_23  and  C_26
REMARK                            x       y       z     vdW  Elec       q    Type
REMARK                         _______ _______ _______ _____ _____    ______ ____
ROOT
ATOM      1  C   UNK A   2      -0.570  12.885  19.198  0.00  0.00    +0.000 C 
ATOM      2  C   UNK A   2       0.035  11.490  19.214  0.00  0.00    +0.000 A 
ATOM      3  N   UNK A   2       0.629  10.853  18.157  0.00  0.00    +0.000 N 
ATOM      4  C   UNK A   2       1.257   9.704  18.571  0.00  0.00    +0.000 A 
ATOM      5  C   UNK A   2       2.134   8.863  17.881  0.00  0.00    +0.000 A 
ATOM      6  C   UNK A   2       2.570   7.714  18.542  0.00  0.00    +0.000 A 
ATOM      7  C   UNK A   2       2.126   7.415  19.830  0.00  0.00    +0.000 A 
ATOM      8  C   UNK A   2       1.258   8.282  20.508  0.00  0.00    +0.000 A 
ATOM      9  C   UNK A   2       0.833   9.466  19.874  0.00  0.00    +0.000 A 
ATOM     10  C   UNK A   2       0.032  10.578  20.252  0.00  0.00    +0.000 A 
ATOM     11  C   UNK A   2      -0.668  10.852  21.526  0.00  0.00    +0.000 C 
ATOM     12  C   UNK A   2      -1.620  12.053  21.356  0.00  0.00    +0.000 C 
ATOM     13  C   UNK A   2      -2.210  12.352  22.747  0.00  0.00    +0.000 C 
ATOM     14  O   UNK A   2      -2.519  11.491  23.569  0.00  0.00    +0.000 OA
ATOM     15  N   UNK A   1      -2.585  13.651  22.962  0.00  0.00    +0.000 N 
ATOM     16  C   UNK A   1      -1.811  14.736  22.372  0.00  0.00    +0.000 C 
ATOM     17  C   UNK A   1      -1.550  14.451  20.879  0.00  0.00    +0.000 C 
ATOM     18  O   UNK A   1      -1.722  15.320  20.030  0.00  0.00    +0.000 OA
ATOM     19  N   UNK A   2      -0.986  13.188  20.613  0.00  0.00    +0.000 N 
ATOM     20  H   UNK A   2       0.664  11.171  17.203  0.00  0.00    +0.000 HD
ATOM     21  H   UNK A   1      -2.998  13.803  23.877  0.00  0.00    +0.000 HD
ENDROOT
BRANCH   1  22
ATOM     22  C   UNK A   2       0.420  13.932  18.574  0.00  0.00    +0.000 C 
BRANCH  22  24
ATOM     23  C   UNK A   2       2.968  13.672  18.387  0.00  0.00    +0.000 C 
ATOM     24  C   UNK A   2       1.796  14.085  19.281  0.00  0.00    +0.000 C 
ATOM     25  C   UNK A   2       2.015  15.501  19.815  0.00  0.00    +0.000 C 
ENDBRANCH  22  24
ENDBRANCH   1  22
BRANCH  16  26
ATOM     26  C   UNK A   1      -0.496  14.969  23.140  0.00  0.00    +0.000 C 
BRANCH  26  27
ATOM     27  O   UNK A   1      -0.726  14.963  24.548  0.00  0.00    +0.000 OA
BRANCH  27  28
ATOM     28  C   UNK A   1      -0.762  16.236  25.216  0.00  0.00    +0.000 C 
ATOM     29  C   UNK A   1       0.084  17.294  24.495  0.00  0.00    +0.000 C 
ATOM     30  C   UNK A   1      -2.233  16.683  25.172  0.00  0.00    +0.000 C 
ATOM     31  C   UNK A   1      -0.340  16.101  26.684  0.00  0.00    +0.000 C 
ENDBRANCH  27  28
ENDBRANCH  26  27
ENDBRANCH  16  26
TORSDOF 5
ENDMDL
MODEL 6
REMARK VINA RESULT:      -6.9      6.367      9.927
REMARK  Name = 
REMARK  10 active torsions:
REMARK  status: ('A' for Active; 'I' for Inactive)
REMARK    1  A    between atoms: C_1  and  C_2
REMARK    2  A    between atoms: C_2  and  C_3
REMARK    3  A    between atoms: C_2  and  C_4
REMARK    4  A    between atoms: C_4  and  C_5
REMARK    5  A    between atoms: C_20  and  C_21
REMARK    6  A    between atoms: C_21  and  O_22
REMARK    7  A    between atoms: O_22  and  C_23
REMARK    8  A    between atoms: C_23  and  C_24
REMARK    9  A    between atoms: C_23  and  C_25
REMARK   10  A    between atoms: C_23  and  C_26
REMARK                            x       y       z     vdW  Elec       q    Type
REMARK                         _______ _______ _______ _____ _____    ______ ____
ROOT
ATOM      1  C   UNK A   2      -1.887  12.395  22.264  0.00  0.00    +0.000 C 
ATOM      2  C   UNK A   2      -3.402  12.529  22.257  0.00  0.00    +0.000 A 
ATOM      3  N   UNK A   2      -4.221  12.508  23.354  0.00  0.00    +0.000 N 
ATOM      4  C   UNK A   2      -5.500  12.872  23.014  0.00  0.00    +0.000 A 
ATOM      5  C   UNK A   2      -6.595  13.168  23.830  0.00  0.00    +0.000 A 
ATOM      6  C   UNK A   2      -7.807  13.446  23.197  0.00  0.00    +0.000 A 
ATOM      7  C   UNK A   2      -7.917  13.405  21.807  0.00  0.00    +0.000 A 
ATOM      8  C   UNK A   2      -6.800  13.120  21.008  0.00  0.00    +0.000 A 
ATOM      9  C   UNK A   2      -5.558  12.871  21.624  0.00  0.00    +0.000 A 
ATOM     10  C   UNK A   2      -4.239  12.614  21.162  0.00  0.00    +0.000 A 
ATOM     11  C   UNK A   2      -3.724  12.509  19.779  0.00  0.00    +0.000 C 
ATOM     12  C   UNK A   2      -2.285  11.956  19.793  0.00  0.00    +0.000 C 
ATOM     13  C   UNK A   2      -1.779  11.996  18.340  0.00  0.00    +0.000 C 
ATOM     14  O   UNK A   2      -2.475  11.749  17.355  0.00  0.00    +0.000 OA
ATOM     15  N   UNK A   1      -0.423  12.118  18.189  0.00  0.00    +0.000 N 
ATOM     16  C   UNK A   1       0.340  12.925  19.132  0.00  0.00    +0.000 C 
ATOM     17  C   UNK A   1      -0.049  12.560  20.580  0.00  0.00    +0.000 C 
ATOM     18  O   UNK A   1       0.809  12.370  21.437  0.00  0.00    +0.000 OA
ATOM     19  N   UNK A   2      -1.432  12.600  20.843  0.00  0.00    +0.000 N 
ATOM     20  H   UNK A   2      -3.953  12.305  24.303  0.00  0.00    +0.000 HD
ATOM     21  H   UNK A   1      -0.125  12.109  17.219  0.00  0.00    +0.000 HD
ENDROOT
BRANCH   1  22
ATOM     22  C   UNK A   2      -1.229  13.371  23.302  0.00  0.00    +0.000 C 
BRANCH  22  24
ATOM     23  C   UNK A   2      -2.217  15.493  24.361  0.00  0.00    +0.000 C 
ATOM     24  C   UNK A   2      -1.550  14.882  23.126  0.00  0.00    +0.000 C 
ATOM     25  C   UNK A   2      -0.311  15.693  22.743  0.00  0.00    +0.000 C 
ENDBRANCH  22  24
ENDBRANCH   1  22
BRANCH  16  26
ATOM     26  C   UNK A   1       0.156  14.430  18.861  0.00  0.00    +0.000 C 
BRANCH  26  27
ATOM     27  O   UNK A   1       1.415  15.057  18.623  0.00  0.00    +0.000 OA
BRANCH  27  28
ATOM     28  C   UNK A   1       1.434  16.493  18.552  0.00  0.00    +0.000 C 
ATOM     29  C   UNK A   1       0.054  17.075  18.219  0.00  0.00    +0.000 C 
ATOM     30  C   UNK A   1       1.831  16.970  19.959  0.00  0.00    +0.000 C 
ATOM     31  C   UNK A   1       2.493  16.983  17.556  0.00  0.00    +0.000 C 
ENDBRANCH  27  28
ENDBRANCH  26  27
ENDBRANCH  16  26
TORSDOF 5
ENDMDL
MODEL 7
REMARK VINA RESULT:      -6.8      5.166      9.097
REMARK  Name = 
REMARK  10 active torsions:
REMARK  status: ('A' for Active; 'I' for Inactive)
REMARK    1  A    between atoms: C_1  and  C_2
REMARK    2  A    between atoms: C_2  and  C_3
REMARK    3  A    between atoms: C_2  and  C_4
REMARK    4  A    between atoms: C_4  and  C_5
REMARK    5  A    between atoms: C_20  and  C_21
REMARK    6  A    between atoms: C_21  and  O_22
REMARK    7  A    between atoms: O_22  and  C_23
REMARK    8  A    between atoms: C_23  and  C_24
REMARK    9  A    between atoms: C_23  and  C_25
REMARK   10  A    between atoms: C_23  and  C_26
REMARK                            x       y       z     vdW  Elec       q    Type
REMARK                         _______ _______ _______ _____ _____    ______ ____
ROOT
ATOM      1  C   UNK A   2      -2.452  12.611  21.192  0.00  0.00    +0.000 C 
ATOM      2  C   UNK A   2      -3.708  12.583  20.335  0.00  0.00    +0.000 A 
ATOM      3  N   UNK A   2      -4.961  12.976  20.723  0.00  0.00    +0.000 N 
ATOM      4  C   UNK A   2      -5.811  13.027  19.645  0.00  0.00    +0.000 A 
ATOM      5  C   UNK A   2      -7.103  13.550  19.546  0.00  0.00    +0.000 A 
ATOM      6  C   UNK A   2      -7.761  13.399  18.324  0.00  0.00    +0.000 A 
ATOM      7  C   UNK A   2      -7.155  12.731  17.260  0.00  0.00    +0.000 A 
ATOM      8  C   UNK A   2      -5.852  12.227  17.379  0.00  0.00    +0.000 A 
ATOM      9  C   UNK A   2      -5.155  12.399  18.591  0.00  0.00    +0.000 A 
ATOM     10  C   UNK A   2      -3.847  12.090  19.052  0.00  0.00    +0.000 A 
ATOM     11  C   UNK A   2      -2.727  11.427  18.348  0.00  0.00    +0.000 C 
ATOM     12  C   UNK A   2      -1.608  11.078  19.350  0.00  0.00    +0.000 C 
ATOM     13  C   UNK A   2      -0.435  10.513  18.527  0.00  0.00    +0.000 C 
ATOM     14  O   UNK A   2      -0.565   9.787  17.542  0.00  0.00    +0.000 OA
ATOM     15  N   UNK A   1       0.808  10.683  19.076  0.00  0.00    +0.000 N 
ATOM     16  C   UNK A   1       1.107  11.895  19.828  0.00  0.00    +0.000 C 
ATOM     17  C   UNK A   1      -0.016  12.181  20.845  0.00  0.00    +0.000 C 
ATOM     18  O   UNK A   1       0.244  12.476  22.008  0.00  0.00    +0.000 OA
ATOM     19  N   UNK A   2      -1.313  12.201  20.296  0.00  0.00    +0.000 N 
ATOM     20  H   UNK A   2      -5.250  13.245  21.648  0.00  0.00    +0.000 HD
ATOM     21  H   UNK A   1       1.551  10.270  18.522  0.00  0.00    +0.000 HD
ENDROOT
BRANCH   1  22
ATOM     22  C   UNK A   2      -2.262  14.006  21.886  0.00  0.00    +0.000 C 
BRANCH  22  24
ATOM     23  C   UNK A   2      -3.190  12.762  23.933  0.00  0.00    +0.000 C 
ATOM     24  C   UNK A   2      -2.673  14.093  23.383  0.00  0.00    +0.000 C 
ATOM     25  C   UNK A   2      -1.537  14.620  24.262  0.00  0.00    +0.000 C 
ENDBRANCH  22  24
ENDBRANCH   1  22
BRANCH  16  26
ATOM     26  C   UNK A   1       1.337  13.095  18.890  0.00  0.00    +0.000 C 
BRANCH  26  27
ATOM     27  O   UNK A   1       1.905  14.192  19.603  0.00  0.00    +0.000 OA
BRANCH  27  28
ATOM     28  C   UNK A   1       1.223  15.455  19.525  0.00  0.00    +0.000 C 
ATOM     29  C   UNK A   1       2.037  16.506  18.759  0.00  0.00    +0.000 C 
ATOM     30  C   UNK A   1      -0.069  15.178  18.737  0.00  0.00    +0.000 C 
ATOM     31  C   UNK A   1       0.841  15.964  20.920  0.00  0.00    +0.000 C 
ENDBRANCH  27  28
ENDBRANCH  26  27
ENDBRANCH  16  26
TORSDOF 5
ENDMDL
MODEL 8
REMARK VINA RESULT:      -6.8      5.143      9.121
REMARK  Name = 
REMARK  10 active torsions:
REMARK  status: ('A' for Active; 'I' for Inactive)
REMARK    1  A    between atoms: C_1  and  C_2
REMARK    2  A    between atoms: C_2  and  C_3
REMARK    3  A    between atoms: C_2  and  C_4
REMARK    4  A    between atoms: C_4  and  C_5
REMARK    5  A    between atoms: C_20  and  C_21
REMARK    6  A    between atoms: C_21  and  O_22
REMARK    7  A    between atoms: O_22  and  C_23
REMARK    8  A    between atoms: C_23  and  C_24
REMARK    9  A    between atoms: C_23  and  C_25
REMARK   10  A    between atoms: C_23  and  C_26
REMARK                            x       y       z     vdW  Elec       q    Type
REMARK                         _______ _______ _______ _____ _____    ______ ____
ROOT
ATOM      1  C   UNK A   2      -2.313  12.581  21.309  0.00  0.00    +0.000 C 
ATOM      2  C   UNK A   2      -3.592  12.521  20.488  0.00  0.00    +0.000 A 
ATOM      3  N   UNK A   2      -4.843  12.880  20.913  0.00  0.00    +0.000 N 
ATOM      4  C   UNK A   2      -5.725  12.909  19.861  0.00  0.00    +0.000 A 
ATOM      5  C   UNK A   2      -7.033  13.398  19.800  0.00  0.00    +0.000 A 
ATOM      6  C   UNK A   2      -7.722  13.231  18.598  0.00  0.00    +0.000 A 
ATOM      7  C   UNK A   2      -7.129  12.582  17.515  0.00  0.00    +0.000 A 
ATOM      8  C   UNK A   2      -5.811  12.113  17.595  0.00  0.00    +0.000 A 
ATOM      9  C   UNK A   2      -5.083  12.302  18.787  0.00  0.00    +0.000 A 
ATOM     10  C   UNK A   2      -3.755  12.027  19.208  0.00  0.00    +0.000 A 
ATOM     11  C   UNK A   2      -2.638  11.396  18.471  0.00  0.00    +0.000 C 
ATOM     12  C   UNK A   2      -1.481  11.076  19.439  0.00  0.00    +0.000 C 
ATOM     13  C   UNK A   2      -0.318  10.544  18.581  0.00  0.00    +0.000 C 
ATOM     14  O   UNK A   2      -0.457   9.817  17.598  0.00  0.00    +0.000 OA
ATOM     15  N   UNK A   1       0.935  10.746  19.094  0.00  0.00    +0.000 N 
ATOM     16  C   UNK A   1       1.224  11.965  19.840  0.00  0.00    +0.000 C 
ATOM     17  C   UNK A   1       0.123  12.218  20.890  0.00  0.00    +0.000 C 
ATOM     18  O   UNK A   1       0.408  12.518  22.046  0.00  0.00    +0.000 OA
ATOM     19  N   UNK A   2      -1.190  12.204  20.379  0.00  0.00    +0.000 N 
ATOM     20  H   UNK A   2      -5.112  13.139  21.848  0.00  0.00    +0.000 HD
ATOM     21  H   UNK A   1       1.673  10.355  18.517  0.00  0.00    +0.000 HD
ENDROOT
BRANCH   1  22
ATOM     22  C   UNK A   2      -2.141  13.979  22.001  0.00  0.00    +0.000 C 
BRANCH  22  24
ATOM     23  C   UNK A   2      -1.249  14.900  24.227  0.00  0.00    +0.000 C 
ATOM     24  C   UNK A   2      -2.289  14.006  23.548  0.00  0.00    +0.000 C 
ATOM     25  C   UNK A   2      -3.698  14.413  23.985  0.00  0.00    +0.000 C 
ENDBRANCH  22  24
ENDBRANCH   1  22
BRANCH  16  26
ATOM     26  C   UNK A   1       1.393  13.172  18.899  0.00  0.00    +0.000 C 
BRANCH  26  27
ATOM     27  O   UNK A   1       1.866  14.310  19.618  0.00  0.00    +0.000 OA
BRANCH  27  28
ATOM     28  C   UNK A   1       1.112  15.528  19.497  0.00  0.00    +0.000 C 
ATOM     29  C   UNK A   1      -0.248  15.303  18.824  0.00  0.00    +0.000 C 
ATOM     30  C   UNK A   1       0.864  16.004  20.939  0.00  0.00    +0.000 C 
ATOM     31  C   UNK A   1       1.918  16.606  18.762  0.00  0.00    +0.000 C 
ENDBRANCH  27  28
ENDBRANCH  26  27
ENDBRANCH  16  26
TORSDOF 5
ENDMDL
MODEL 9
REMARK VINA RESULT:      -6.7      5.067      7.750
REMARK  Name = 
REMARK  10 active torsions:
REMARK  status: ('A' for Active; 'I' for Inactive)
REMARK    1  A    between atoms: C_1  and  C_2
REMARK    2  A    between atoms: C_2  and  C_3
REMARK    3  A    between atoms: C_2  and  C_4
REMARK    4  A    between atoms: C_4  and  C_5
REMARK    5  A    between atoms: C_20  and  C_21
REMARK    6  A    between atoms: C_21  and  O_22
REMARK    7  A    between atoms: O_22  and  C_23
REMARK    8  A    between atoms: C_23  and  C_24
REMARK    9  A    between atoms: C_23  and  C_25
REMARK   10  A    between atoms: C_23  and  C_26
REMARK                            x       y       z     vdW  Elec       q    Type
REMARK                         _______ _______ _______ _____ _____    ______ ____
ROOT
ATOM      1  C   UNK A   2       0.475  12.128  21.509  0.00  0.00    +0.000 C 
ATOM      2  C   UNK A   2       1.148  13.211  20.681  0.00  0.00    +0.000 A 
ATOM      3  N   UNK A   2       2.254  13.055  19.889  0.00  0.00    +0.000 N 
ATOM      4  C   UNK A   2       2.463  14.172  19.119  0.00  0.00    +0.000 A 
ATOM      5  C   UNK A   2       3.341  14.373  18.050  0.00  0.00    +0.000 A 
ATOM      6  C   UNK A   2       3.386  15.651  17.492  0.00  0.00    +0.000 A 
ATOM      7  C   UNK A   2       2.599  16.684  18.001  0.00  0.00    +0.000 A 
ATOM      8  C   UNK A   2       1.715  16.455  19.064  0.00  0.00    +0.000 A 
ATOM      9  C   UNK A   2       1.627  15.164  19.620  0.00  0.00    +0.000 A 
ATOM     10  C   UNK A   2       0.833  14.556  20.630  0.00  0.00    +0.000 A 
ATOM     11  C   UNK A   2      -0.223  15.140  21.486  0.00  0.00    +0.000 C 
ATOM     12  C   UNK A   2      -0.601  14.151  22.606  0.00  0.00    +0.000 C 
ATOM     13  C   UNK A   2      -1.784  14.775  23.369  0.00  0.00    +0.000 C 
ATOM     14  O   UNK A   2      -1.900  15.977  23.607  0.00  0.00    +0.000 OA
ATOM     15  N   UNK A   1      -2.629  13.887  23.978  0.00  0.00    +0.000 N 
ATOM     16  C   UNK A   1      -2.909  12.604  23.345  0.00  0.00    +0.000 C 
ATOM     17  C   UNK A   1      -1.593  11.934  22.897  0.00  0.00    +0.000 C 
ATOM     18  O   UNK A   1      -1.375  10.750  23.132  0.00  0.00    +0.000 OA
ATOM     19  N   UNK A   2      -0.761  12.749  22.105  0.00  0.00    +0.000 N 
ATOM     20  H   UNK A   2       2.833  12.235  19.817  0.00  0.00    +0.000 HD
ATOM     21  H   UNK A   1      -3.377  14.335  24.497  0.00  0.00    +0.000 HD
ENDROOT
BRANCH   1  22
ATOM     22  C   UNK A   2       0.205  10.839  20.656  0.00  0.00    +0.000 C 
BRANCH  22  24
ATOM     23  C   UNK A   2       0.205   9.952  18.245  0.00  0.00    +0.000 C 
ATOM     24  C   UNK A   2      -0.254  11.067  19.188  0.00  0.00    +0.000 C 
ATOM     25  C   UNK A   2      -1.768  11.257  19.081  0.00  0.00    +0.000 C 
ENDBRANCH  22  24
ENDBRANCH   1  22
BRANCH  16  26
ATOM     26  C   UNK A   1      -3.891  12.760  22.169  0.00  0.00    +0.000 C 
BRANCH  26  27
ATOM     27  O   UNK A   1      -5.150  12.166  22.480  0.00  0.00    +0.000 OA
BRANCH  27  28
ATOM     28  C   UNK A   1      -6.291  13.038  22.554  0.00  0.00    +0.000 C 
ATOM     29  C   UNK A   1      -7.434  12.573  21.643  0.00  0.00    +0.000 C 
ATOM     30  C   UNK A   1      -6.775  12.961  24.012  0.00  0.00    +0.000 C 
ATOM     31  C   UNK A   1      -5.898  14.488  22.249  0.00  0.00    +0.000 C 
ENDBRANCH  27  28
ENDBRANCH  26  27
ENDBRANCH  16  26
TORSDOF 5
ENDMDL
