MODEL 1
REMARK VINA RESULT:      -7.9      0.000      0.000
REMARK  Name = 
REMARK  8 active torsions:
REMARK  status: ('A' for Active; 'I' for Inactive)
REMARK    1  A    between atoms: C_1  and  C_2
REMARK    2  A    between atoms: C_2  and  O_3
REMARK    3  A    between atoms: O_3  and  C_4
REMARK    4  A    between atoms: C_4  and  C_6
REMARK    5  A    between atoms: C_6  and  C_7
REMARK    6  A    between atoms: N_10  and  C_11
REMARK    7  A    between atoms: C_11  and  C_12
REMARK    8  A    between atoms: C_19  and  C_20
REMARK                            x       y       z     vdW  Elec       q    Type
REMARK                         _______ _______ _______ _____ _____    ______ ____
ROOT
ATOM      1  C   UNL     1       3.317   4.925  19.908  0.00  0.00    +0.000 A 
ATOM      2  S   UNL     1       4.414   3.664  19.512  0.00  0.00    +0.000 S 
ATOM      3  C   UNL     1       5.155   4.667  18.332  0.00  0.00    +0.000 A 
ATOM      4  N   UNL     1       6.221   4.209  17.645  0.00  0.00    +0.000 N 
ATOM      5  N   UNL     1       4.628   5.862  18.211  0.00  0.00    +0.000 NA
ATOM      6  C   UNL     1       3.520   5.995  19.049  0.00  0.00    +0.000 A 
ATOM      7  H   UNL     1       6.143   3.288  17.219  0.00  0.00    +0.000 HD
ENDROOT
BRANCH   6   8
ATOM      8  C   UNL     1       2.678   7.193  19.010  0.00  0.00    +0.000 A 
ATOM      9  C   UNL     1       1.988   7.613  20.142  0.00  0.00    +0.000 A 
ATOM     10  C   UNL     1       1.208   8.766  20.066  0.00  0.00    +0.000 A 
ATOM     11  C   UNL     1       1.150   9.473  18.871  0.00  0.00    +0.000 A 
ATOM     12  C   UNL     1       1.877   8.996  17.797  0.00  0.00    +0.000 A 
ATOM     13  N   UNL     1       2.631   7.876  17.836  0.00  0.00    +0.000 NA
ENDBRANCH   6   8
BRANCH   1  14
ATOM     14  C   UNL     1       2.334   4.740  21.022  0.00  0.00    +0.000 C 
BRANCH  14  15
ATOM     15  C   UNL     1       1.466   3.529  20.762  0.00  0.00    +0.000 C 
ATOM     16  O   UNL     1       1.252   2.628  21.563  0.00  0.00    +0.000 OA
BRANCH  15  17
ATOM     17  O   UNL     1       0.885   3.617  19.529  0.00  0.00    +0.000 OA
BRANCH  17  19
ATOM     18  C   UNL     1       1.952   2.229  17.848  0.00  0.00    +0.000 C 
ATOM     19  C   UNL     1       0.795   2.373  18.820  0.00  0.00    +0.000 C 
ENDBRANCH  17  19
ENDBRANCH  15  17
ENDBRANCH  14  15
ENDBRANCH   1  14
BRANCH   4  20
ATOM     20  C   UNL     1       7.014   5.144  16.859  0.00  0.00    +0.000 C 
BRANCH  20  21
ATOM     21  C   UNL     1       6.960   4.816  15.373  0.00  0.00    +0.000 A 
ATOM     22  N   UNL     1       6.031   3.921  14.955  0.00  0.00    +0.000 NA
ATOM     23  C   UNL     1       5.994   3.670  13.633  0.00  0.00    +0.000 A 
ATOM     24  C   UNL     1       6.830   4.269  12.720  0.00  0.00    +0.000 A 
ATOM     25  C   UNL     1       7.732   5.166  13.241  0.00  0.00    +0.000 A 
ATOM     26  N   UNL     1       7.815   5.461  14.551  0.00  0.00    +0.000 NA
ENDBRANCH  20  21
ENDBRANCH   4  20
TORSDOF 7
ENDMDL
MODEL 2
REMARK VINA RESULT:      -7.9      0.722      1.455
REMARK  Name = 
REMARK  8 active torsions:
REMARK  status: ('A' for Active; 'I' for Inactive)
REMARK    1  A    between atoms: C_1  and  C_2
REMARK    2  A    between atoms: C_2  and  O_3
REMARK    3  A    between atoms: O_3  and  C_4
REMARK    4  A    between atoms: C_4  and  C_6
REMARK    5  A    between atoms: C_6  and  C_7
REMARK    6  A    between atoms: N_10  and  C_11
REMARK    7  A    between atoms: C_11  and  C_12
REMARK    8  A    between atoms: C_19  and  C_20
REMARK                            x       y       z     vdW  Elec       q    Type
REMARK                         _______ _______ _______ _____ _____    ______ ____
ROOT
ATOM      1  C   UNL     1       3.282   4.932  19.895  0.00  0.00    +0.000 A 
ATOM      2  S   UNL     1       4.363   3.658  19.499  0.00  0.00    +0.000 S 
ATOM      3  C   UNL     1       5.120   4.654  18.323  0.00  0.00    +0.000 A 
ATOM      4  N   UNL     1       6.182   4.185  17.638  0.00  0.00    +0.000 N 
ATOM      5  N   UNL     1       4.609   5.857  18.204  0.00  0.00    +0.000 NA
ATOM      6  C   UNL     1       3.500   6.001  19.039  0.00  0.00    +0.000 A 
ATOM      7  H   UNL     1       6.093   3.266  17.209  0.00  0.00    +0.000 HD
ENDROOT
BRANCH   6   8
ATOM      8  C   UNL     1       2.674   7.211  19.002  0.00  0.00    +0.000 A 
ATOM      9  C   UNL     1       2.522   7.930  17.822  0.00  0.00    +0.000 A 
ATOM     10  C   UNL     1       1.718   9.069  17.827  0.00  0.00    +0.000 A 
ATOM     11  C   UNL     1       1.079   9.448  19.002  0.00  0.00    +0.000 A 
ATOM     12  C   UNL     1       1.272   8.670  20.128  0.00  0.00    +0.000 A 
ATOM     13  N   UNL     1       2.054   7.570  20.157  0.00  0.00    +0.000 NA
ENDBRANCH   6   8
BRANCH   1  14
ATOM     14  C   UNL     1       2.293   4.756  21.007  0.00  0.00    +0.000 C 
BRANCH  14  15
ATOM     15  C   UNL     1       2.084   3.287  21.297  0.00  0.00    +0.000 C 
ATOM     16  O   UNL     1       2.869   2.567  21.900  0.00  0.00    +0.000 OA
BRANCH  15  17
ATOM     17  O   UNL     1       0.853   2.887  20.860  0.00  0.00    +0.000 OA
BRANCH  17  19
ATOM     18  C   UNL     1       1.361   1.900  18.702  0.00  0.00    +0.000 C 
ATOM     19  C   UNL     1       0.649   3.016  19.446  0.00  0.00    +0.000 C 
ENDBRANCH  17  19
ENDBRANCH  15  17
ENDBRANCH  14  15
ENDBRANCH   1  14
BRANCH   4  20
ATOM     20  C   UNL     1       6.989   5.111  16.856  0.00  0.00    +0.000 C 
BRANCH  20  21
ATOM     21  C   UNL     1       6.905   4.811  15.366  0.00  0.00    +0.000 A 
ATOM     22  N   UNL     1       7.784   5.434  14.542  0.00  0.00    +0.000 NA
ATOM     23  C   UNL     1       7.697   5.130  13.234  0.00  0.00    +0.000 A 
ATOM     24  C   UNL     1       6.787   4.238  12.718  0.00  0.00    +0.000 A 
ATOM     25  C   UNL     1       5.944   3.654  13.633  0.00  0.00    +0.000 A 
ATOM     26  N   UNL     1       5.983   3.915  14.952  0.00  0.00    +0.000 NA
ENDBRANCH  20  21
ENDBRANCH   4  20
TORSDOF 7
ENDMDL
MODEL 3
REMARK VINA RESULT:      -7.7      3.533      7.195
REMARK  Name = 
REMARK  8 active torsions:
REMARK  status: ('A' for Active; 'I' for Inactive)
REMARK    1  A    between atoms: C_1  and  C_2
REMARK    2  A    between atoms: C_2  and  O_3
REMARK    3  A    between atoms: O_3  and  C_4
REMARK    4  A    between atoms: C_4  and  C_6
REMARK    5  A    between atoms: C_6  and  C_7
REMARK    6  A    between atoms: N_10  and  C_11
REMARK    7  A    between atoms: C_11  and  C_12
REMARK    8  A    between atoms: C_19  and  C_20
REMARK                            x       y       z     vdW  Elec       q    Type
REMARK                         _______ _______ _______ _____ _____    ______ ____
ROOT
ATOM      1  C   UNL     1       3.668   5.877  17.848  0.00  0.00    +0.000 A 
ATOM      2  S   UNL     1       3.796   7.395  17.056  0.00  0.00    +0.000 S 
ATOM      3  C   UNL     1       2.585   8.045  18.086  0.00  0.00    +0.000 A 
ATOM      4  N   UNL     1       2.245   9.344  17.975  0.00  0.00    +0.000 N 
ATOM      5  N   UNL     1       2.092   7.200  18.961  0.00  0.00    +0.000 NA
ATOM      6  C   UNL     1       2.642   5.931  18.780  0.00  0.00    +0.000 A 
ATOM      7  H   UNL     1       2.036   9.695  17.043  0.00  0.00    +0.000 HD
ENDROOT
BRANCH   6   8
ATOM      8  C   UNL     1       2.165   4.780  19.550  0.00  0.00    +0.000 A 
ATOM      9  C   UNL     1       1.371   3.807  18.953  0.00  0.00    +0.000 A 
ATOM     10  C   UNL     1       0.948   2.720  19.719  0.00  0.00    +0.000 A 
ATOM     11  C   UNL     1       1.339   2.630  21.050  0.00  0.00    +0.000 A 
ATOM     12  C   UNL     1       2.140   3.633  21.562  0.00  0.00    +0.000 A 
ATOM     13  N   UNL     1       2.555   4.702  20.850  0.00  0.00    +0.000 NA
ENDBRANCH   6   8
BRANCH   1  14
ATOM     14  C   UNL     1       4.580   4.752  17.464  0.00  0.00    +0.000 C 
BRANCH  14  15
ATOM     15  C   UNL     1       5.815   4.756  18.337  0.00  0.00    +0.000 C 
ATOM     16  O   UNL     1       5.887   4.278  19.461  0.00  0.00    +0.000 OA
BRANCH  15  17
ATOM     17  O   UNL     1       6.872   5.297  17.662  0.00  0.00    +0.000 OA
BRANCH  17  19
ATOM     18  C   UNL     1       7.629   7.602  17.586  0.00  0.00    +0.000 C 
ATOM     19  C   UNL     1       7.586   6.311  18.384  0.00  0.00    +0.000 C 
ENDBRANCH  17  19
ENDBRANCH  15  17
ENDBRANCH  14  15
ENDBRANCH   1  14
BRANCH   4  20
ATOM     20  C   UNL     1       1.436   9.958  19.019  0.00  0.00    +0.000 C 
BRANCH  20  21
ATOM     21  C   UNL     1       0.142  10.536  18.460  0.00  0.00    +0.000 A 
ATOM     22  N   UNL     1      -0.675   9.707  17.766  0.00  0.00    +0.000 NA
ATOM     23  C   UNL     1      -1.821  10.243  17.305  0.00  0.00    +0.000 A 
ATOM     24  C   UNL     1      -2.184  11.554  17.508  0.00  0.00    +0.000 A 
ATOM     25  C   UNL     1      -1.292  12.312  18.228  0.00  0.00    +0.000 A 
ATOM     26  N   UNL     1      -0.134  11.833  18.718  0.00  0.00    +0.000 NA
ENDBRANCH  20  21
ENDBRANCH   4  20
TORSDOF 7
ENDMDL
MODEL 4
REMARK VINA RESULT:      -7.7      3.503      7.169
REMARK  Name = 
REMARK  8 active torsions:
REMARK  status: ('A' for Active; 'I' for Inactive)
REMARK    1  A    between atoms: C_1  and  C_2
REMARK    2  A    between atoms: C_2  and  O_3
REMARK    3  A    between atoms: O_3  and  C_4
REMARK    4  A    between atoms: C_4  and  C_6
REMARK    5  A    between atoms: C_6  and  C_7
REMARK    6  A    between atoms: N_10  and  C_11
REMARK    7  A    between atoms: C_11  and  C_12
REMARK    8  A    between atoms: C_19  and  C_20
REMARK                            x       y       z     vdW  Elec       q    Type
REMARK                         _______ _______ _______ _____ _____    ______ ____
ROOT
ATOM      1  C   UNL     1       3.660   6.021  18.031  0.00  0.00    +0.000 A 
ATOM      2  S   UNL     1       3.743   7.551  17.254  0.00  0.00    +0.000 S 
ATOM      3  C   UNL     1       2.458   8.129  18.235  0.00  0.00    +0.000 A 
ATOM      4  N   UNL     1       2.057   9.410  18.117  0.00  0.00    +0.000 N 
ATOM      5  N   UNL     1       1.973   7.254  19.084  0.00  0.00    +0.000 NA
ATOM      6  C   UNL     1       2.595   6.015  18.919  0.00  0.00    +0.000 A 
ATOM      7  H   UNL     1       1.869   9.757  17.179  0.00  0.00    +0.000 HD
ENDROOT
BRANCH   6   8
ATOM      8  C   UNL     1       2.146   4.836  19.662  0.00  0.00    +0.000 A 
ATOM      9  C   UNL     1       2.501   4.658  20.994  0.00  0.00    +0.000 A 
ATOM     10  C   UNL     1       2.042   3.526  21.668  0.00  0.00    +0.000 A 
ATOM     11  C   UNL     1       1.233   2.615  20.999  0.00  0.00    +0.000 A 
ATOM     12  C   UNL     1       0.915   2.874  19.680  0.00  0.00    +0.000 A 
ATOM     13  N   UNL     1       1.354   3.953  18.997  0.00  0.00    +0.000 NA
ENDBRANCH   6   8
BRANCH   1  14
ATOM     14  C   UNL     1       4.644   4.948  17.679  0.00  0.00    +0.000 C 
BRANCH  14  15
ATOM     15  C   UNL     1       5.534   4.642  18.864  0.00  0.00    +0.000 C 
ATOM     16  O   UNL     1       5.606   3.560  19.432  0.00  0.00    +0.000 OA
BRANCH  15  17
ATOM     17  O   UNL     1       6.312   5.723  19.165  0.00  0.00    +0.000 OA
BRANCH  17  19
ATOM     18  C   UNL     1       7.579   7.131  17.648  0.00  0.00    +0.000 C 
ATOM     19  C   UNL     1       7.525   5.816  18.405  0.00  0.00    +0.000 C 
ENDBRANCH  17  19
ENDBRANCH  15  17
ENDBRANCH  14  15
ENDBRANCH   1  14
BRANCH   4  20
ATOM     20  C   UNL     1       1.174   9.974  19.129  0.00  0.00    +0.000 C 
BRANCH  20  21
ATOM     21  C   UNL     1      -0.146  10.439  18.528  0.00  0.00    +0.000 A 
ATOM     22  N   UNL     1      -0.634  11.641  18.922  0.00  0.00    +0.000 NA
ATOM     23  C   UNL     1      -1.790  12.032  18.355  0.00  0.00    +0.000 A 
ATOM     24  C   UNL     1      -2.470  11.289  17.419  0.00  0.00    +0.000 A 
ATOM     25  C   UNL     1      -1.892  10.089  17.081  0.00  0.00    +0.000 A 
ATOM     26  N   UNL     1      -0.737   9.645  17.610  0.00  0.00    +0.000 NA
ENDBRANCH  20  21
ENDBRANCH   4  20
TORSDOF 7
ENDMDL
MODEL 5
REMARK VINA RESULT:      -7.6      0.405      1.026
REMARK  Name = 
REMARK  8 active torsions:
REMARK  status: ('A' for Active; 'I' for Inactive)
REMARK    1  A    between atoms: C_1  and  C_2
REMARK    2  A    between atoms: C_2  and  O_3
REMARK    3  A    between atoms: O_3  and  C_4
REMARK    4  A    between atoms: C_4  and  C_6
REMARK    5  A    between atoms: C_6  and  C_7
REMARK    6  A    between atoms: N_10  and  C_11
REMARK    7  A    between atoms: C_11  and  C_12
REMARK    8  A    between atoms: C_19  and  C_20
REMARK                            x       y       z     vdW  Elec       q    Type
REMARK                         _______ _______ _______ _____ _____    ______ ____
ROOT
ATOM      1  C   UNL     1       3.223   5.205  19.861  0.00  0.00    +0.000 A 
ATOM      2  S   UNL     1       4.311   3.963  19.387  0.00  0.00    +0.000 S 
ATOM      3  C   UNL     1       4.927   4.968  18.138  0.00  0.00    +0.000 A 
ATOM      4  N   UNL     1       5.941   4.525  17.369  0.00  0.00    +0.000 N 
ATOM      5  N   UNL     1       4.364   6.150  18.051  0.00  0.00    +0.000 NA
ATOM      6  C   UNL     1       3.328   6.269  18.977  0.00  0.00    +0.000 A 
ATOM      7  H   UNL     1       5.848   3.598  16.960  0.00  0.00    +0.000 HD
ENDROOT
BRANCH   6   8
ATOM      8  C   UNL     1       2.459   7.448  18.998  0.00  0.00    +0.000 A 
ATOM      9  C   UNL     1       1.856   7.865  20.180  0.00  0.00    +0.000 A 
ATOM     10  C   UNL     1       1.046   9.000  20.158  0.00  0.00    +0.000 A 
ATOM     11  C   UNL     1       0.874   9.692  18.965  0.00  0.00    +0.000 A 
ATOM     12  C   UNL     1       1.519   9.219  17.839  0.00  0.00    +0.000 A 
ATOM     13  N   UNL     1       2.299   8.117  17.826  0.00  0.00    +0.000 NA
ENDBRANCH   6   8
BRANCH   1  14
ATOM     14  C   UNL     1       2.340   5.012  21.056  0.00  0.00    +0.000 C 
BRANCH  14  15
ATOM     15  C   UNL     1       1.687   3.648  21.012  0.00  0.00    +0.000 C 
ATOM     16  O   UNL     1       1.904   2.735  21.797  0.00  0.00    +0.000 OA
BRANCH  15  17
ATOM     17  O   UNL     1       0.753   3.601  20.016  0.00  0.00    +0.000 OA
BRANCH  17  19
ATOM     18  C   UNL     1       1.681   2.343  18.160  0.00  0.00    +0.000 C 
ATOM     19  C   UNL     1       0.692   2.353  19.312  0.00  0.00    +0.000 C 
ENDBRANCH  17  19
ENDBRANCH  15  17
ENDBRANCH  14  15
ENDBRANCH   1  14
BRANCH   4  20
ATOM     20  C   UNL     1       6.645   5.468  16.510  0.00  0.00    +0.000 C 
BRANCH  20  21
ATOM     21  C   UNL     1       6.705   4.977  15.069  0.00  0.00    +0.000 A 
ATOM     22  N   UNL     1       7.676   5.481  14.268  0.00  0.00    +0.000 NA
ATOM     23  C   UNL     1       7.716   5.011  13.008  0.00  0.00    +0.000 A 
ATOM     24  C   UNL     1       6.844   4.067  12.518  0.00  0.00    +0.000 A 
ATOM     25  C   UNL     1       5.901   3.613  13.409  0.00  0.00    +0.000 A 
ATOM     26  N   UNL     1       5.812   4.042  14.681  0.00  0.00    +0.000 NA
ENDBRANCH  20  21
ENDBRANCH   4  20
TORSDOF 7
ENDMDL
MODEL 6
REMARK VINA RESULT:      -7.5      3.574      7.278
REMARK  Name = 
REMARK  8 active torsions:
REMARK  status: ('A' for Active; 'I' for Inactive)
REMARK    1  A    between atoms: C_1  and  C_2
REMARK    2  A    between atoms: C_2  and  O_3
REMARK    3  A    between atoms: O_3  and  C_4
REMARK    4  A    between atoms: C_4  and  C_6
REMARK    5  A    between atoms: C_6  and  C_7
REMARK    6  A    between atoms: N_10  and  C_11
REMARK    7  A    between atoms: C_11  and  C_12
REMARK    8  A    between atoms: C_19  and  C_20
REMARK                            x       y       z     vdW  Elec       q    Type
REMARK                         _______ _______ _______ _____ _____    ______ ____
ROOT
ATOM      1  C   UNL     1       3.830   5.994  17.961  0.00  0.00    +0.000 A 
ATOM      2  S   UNL     1       3.962   7.494  17.136  0.00  0.00    +0.000 S 
ATOM      3  C   UNL     1       2.611   8.102  18.005  0.00  0.00    +0.000 A 
ATOM      4  N   UNL     1       2.216   9.376  17.813  0.00  0.00    +0.000 N 
ATOM      5  N   UNL     1       2.071   7.255  18.850  0.00  0.00    +0.000 NA
ATOM      6  C   UNL     1       2.706   6.015  18.774  0.00  0.00    +0.000 A 
ATOM      7  H   UNL     1       2.093   9.687  16.852  0.00  0.00    +0.000 HD
ENDROOT
BRANCH   6   8
ATOM      8  C   UNL     1       2.209   4.861  19.526  0.00  0.00    +0.000 A 
ATOM      9  C   UNL     1       1.385   3.919  18.920  0.00  0.00    +0.000 A 
ATOM     10  C   UNL     1       0.944   2.829  19.669  0.00  0.00    +0.000 A 
ATOM     11  C   UNL     1       1.348   2.702  20.992  0.00  0.00    +0.000 A 
ATOM     12  C   UNL     1       2.179   3.674  21.515  0.00  0.00    +0.000 A 
ATOM     13  N   UNL     1       2.612   4.747  20.819  0.00  0.00    +0.000 NA
ENDBRANCH   6   8
BRANCH   1  14
ATOM     14  C   UNL     1       4.838   4.913  17.717  0.00  0.00    +0.000 C 
BRANCH  14  15
ATOM     15  C   UNL     1       6.018   5.076  18.649  0.00  0.00    +0.000 C 
ATOM     16  O   UNL     1       6.004   4.854  19.852  0.00  0.00    +0.000 OA
BRANCH  15  17
ATOM     17  O   UNL     1       7.134   5.429  17.945  0.00  0.00    +0.000 OA
BRANCH  17  19
ATOM     18  C   UNL     1       7.679   7.761  17.548  0.00  0.00    +0.000 C 
ATOM     19  C   UNL     1       7.837   6.564  18.469  0.00  0.00    +0.000 C 
ENDBRANCH  17  19
ENDBRANCH  15  17
ENDBRANCH  14  15
ENDBRANCH   1  14
BRANCH   4  20
ATOM     20  C   UNL     1       1.265   9.972  18.741  0.00  0.00    +0.000 C 
BRANCH  20  21
ATOM     21  C   UNL     1       1.445  11.481  18.839  0.00  0.00    +0.000 A 
ATOM     22  N   UNL     1       2.442  12.048  18.116  0.00  0.00    +0.000 NA
ATOM     23  C   UNL     1       2.561  13.386  18.206  0.00  0.00    +0.000 A 
ATOM     24  C   UNL     1       1.735  14.174  18.973  0.00  0.00    +0.000 A 
ATOM     25  C   UNL     1       0.752  13.506  19.663  0.00  0.00    +0.000 A 
ATOM     26  N   UNL     1       0.580  12.173  19.611  0.00  0.00    +0.000 NA
ENDBRANCH  20  21
ENDBRANCH   4  20
TORSDOF 7
ENDMDL
MODEL 7
REMARK VINA RESULT:      -7.5      3.982      6.758
REMARK  Name = 
REMARK  8 active torsions:
REMARK  status: ('A' for Active; 'I' for Inactive)
REMARK    1  A    between atoms: C_1  and  C_2
REMARK    2  A    between atoms: C_2  and  O_3
REMARK    3  A    between atoms: O_3  and  C_4
REMARK    4  A    between atoms: C_4  and  C_6
REMARK    5  A    between atoms: C_6  and  C_7
REMARK    6  A    between atoms: N_10  and  C_11
REMARK    7  A    between atoms: C_11  and  C_12
REMARK    8  A    between atoms: C_19  and  C_20
REMARK                            x       y       z     vdW  Elec       q    Type
REMARK                         _______ _______ _______ _____ _____    ______ ____
ROOT
ATOM      1  C   UNL     1       6.319   4.887  17.287  0.00  0.00    +0.000 A 
ATOM      2  S   UNL     1       6.712   5.735  18.727  0.00  0.00    +0.000 S 
ATOM      3  C   UNL     1       7.501   6.951  17.806  0.00  0.00    +0.000 A 
ATOM      4  N   UNL     1       8.028   8.022  18.432  0.00  0.00    +0.000 N 
ATOM      5  N   UNL     1       7.498   6.752  16.509  0.00  0.00    +0.000 NA
ATOM      6  C   UNL     1       6.897   5.530  16.203  0.00  0.00    +0.000 A 
ATOM      7  H   UNL     1       8.628   7.847  19.235  0.00  0.00    +0.000 HD
ENDROOT
BRANCH   6   8
ATOM      8  C   UNL     1       6.879   5.015  14.832  0.00  0.00    +0.000 A 
ATOM      9  C   UNL     1       5.924   4.086  14.435  0.00  0.00    +0.000 A 
ATOM     10  C   UNL     1       5.935   3.631  13.116  0.00  0.00    +0.000 A 
ATOM     11  C   UNL     1       6.886   4.125  12.232  0.00  0.00    +0.000 A 
ATOM     12  C   UNL     1       7.791   5.057  12.703  0.00  0.00    +0.000 A 
ATOM     13  N   UNL     1       7.814   5.507  13.976  0.00  0.00    +0.000 NA
ENDBRANCH   6   8
BRANCH   1  14
ATOM     14  C   UNL     1       5.487   3.642  17.354  0.00  0.00    +0.000 C 
BRANCH  14  15
ATOM     15  C   UNL     1       4.198   3.911  18.097  0.00  0.00    +0.000 C 
ATOM     16  O   UNL     1       3.946   3.534  19.234  0.00  0.00    +0.000 OA
BRANCH  15  17
ATOM     17  O   UNL     1       3.377   4.707  17.350  0.00  0.00    +0.000 OA
BRANCH  17  19
ATOM     18  C   UNL     1       3.219   7.040  18.001  0.00  0.00    +0.000 C 
ATOM     19  C   UNL     1       2.610   5.653  18.108  0.00  0.00    +0.000 C 
ENDBRANCH  17  19
ENDBRANCH  15  17
ENDBRANCH  14  15
ENDBRANCH   1  14
BRANCH   4  20
ATOM     20  C   UNL     1       8.440   9.174  17.642  0.00  0.00    +0.000 C 
BRANCH  20  21
ATOM     21  C   UNL     1       9.195  10.193  18.486  0.00  0.00    +0.000 A 
ATOM     22  N   UNL     1       9.962  11.107  17.842  0.00  0.00    +0.000 NA
ATOM     23  C   UNL     1      10.598  12.006  18.615  0.00  0.00    +0.000 A 
ATOM     24  C   UNL     1      10.501  12.037  19.986  0.00  0.00    +0.000 A 
ATOM     25  C   UNL     1       9.695  11.073  20.545  0.00  0.00    +0.000 A 
ATOM     26  N   UNL     1       9.031  10.150  19.825  0.00  0.00    +0.000 NA
ENDBRANCH  20  21
ENDBRANCH   4  20
TORSDOF 7
ENDMDL
MODEL 8
REMARK VINA RESULT:      -7.5      3.483      7.255
REMARK  Name = 
REMARK  8 active torsions:
REMARK  status: ('A' for Active; 'I' for Inactive)
REMARK    1  A    between atoms: C_1  and  C_2
REMARK    2  A    between atoms: C_2  and  O_3
REMARK    3  A    between atoms: O_3  and  C_4
REMARK    4  A    between atoms: C_4  and  C_6
REMARK    5  A    between atoms: C_6  and  C_7
REMARK    6  A    between atoms: N_10  and  C_11
REMARK    7  A    between atoms: C_11  and  C_12
REMARK    8  A    between atoms: C_19  and  C_20
REMARK                            x       y       z     vdW  Elec       q    Type
REMARK                         _______ _______ _______ _____ _____    ______ ____
ROOT
ATOM      1  C   UNL     1       3.921   5.902  17.969  0.00  0.00    +0.000 A 
ATOM      2  S   UNL     1       4.000   7.415  17.160  0.00  0.00    +0.000 S 
ATOM      3  C   UNL     1       2.630   7.965  18.037  0.00  0.00    +0.000 A 
ATOM      4  N   UNL     1       2.190   9.226  17.858  0.00  0.00    +0.000 N 
ATOM      5  N   UNL     1       2.121   7.092  18.873  0.00  0.00    +0.000 NA
ATOM      6  C   UNL     1       2.798   5.875  18.783  0.00  0.00    +0.000 A 
ATOM      7  H   UNL     1       2.055   9.544  16.901  0.00  0.00    +0.000 HD
ENDROOT
BRANCH   6   8
ATOM      8  C   UNL     1       2.343   4.696  19.524  0.00  0.00    +0.000 A 
ATOM      9  C   UNL     1       2.531   4.606  20.899  0.00  0.00    +0.000 A 
ATOM     10  C   UNL     1       2.072   3.472  21.568  0.00  0.00    +0.000 A 
ATOM     11  C   UNL     1       1.429   2.470  20.850  0.00  0.00    +0.000 A 
ATOM     12  C   UNL     1       1.270   2.645  19.489  0.00  0.00    +0.000 A 
ATOM     13  N   UNL     1       1.715   3.724  18.811  0.00  0.00    +0.000 NA
ENDBRANCH   6   8
BRANCH   1  14
ATOM     14  C   UNL     1       4.966   4.859  17.713  0.00  0.00    +0.000 C 
BRANCH  14  15
ATOM     15  C   UNL     1       6.122   5.027  18.674  0.00  0.00    +0.000 C 
ATOM     16  O   UNL     1       6.084   4.788  19.874  0.00  0.00    +0.000 OA
BRANCH  15  17
ATOM     17  O   UNL     1       7.248   5.408  18.001  0.00  0.00    +0.000 OA
BRANCH  17  19
ATOM     18  C   UNL     1       7.703   7.743  17.518  0.00  0.00    +0.000 C 
ATOM     19  C   UNL     1       7.871   6.599  18.503  0.00  0.00    +0.000 C 
ENDBRANCH  17  19
ENDBRANCH  15  17
ENDBRANCH  14  15
ENDBRANCH   1  14
BRANCH   4  20
ATOM     20  C   UNL     1       1.220   9.779  18.793  0.00  0.00    +0.000 C 
BRANCH  20  21
ATOM     21  C   UNL     1       1.203  11.302  18.751  0.00  0.00    +0.000 A 
ATOM     22  N   UNL     1       2.326  11.937  18.333  0.00  0.00    +0.000 NA
ATOM     23  C   UNL     1       2.271  13.281  18.286  0.00  0.00    +0.000 A 
ATOM     24  C   UNL     1       1.157  14.010  18.629  0.00  0.00    +0.000 A 
ATOM     25  C   UNL     1       0.069  13.276  19.035  0.00  0.00    +0.000 A 
ATOM     26  N   UNL     1       0.061  11.931  19.099  0.00  0.00    +0.000 NA
ENDBRANCH  20  21
ENDBRANCH   4  20
TORSDOF 7
ENDMDL
MODEL 9
REMARK VINA RESULT:      -7.4      0.792      1.123
REMARK  Name = 
REMARK  8 active torsions:
REMARK  status: ('A' for Active; 'I' for Inactive)
REMARK    1  A    between atoms: C_1  and  C_2
REMARK    2  A    between atoms: C_2  and  O_3
REMARK    3  A    between atoms: O_3  and  C_4
REMARK    4  A    between atoms: C_4  and  C_6
REMARK    5  A    between atoms: C_6  and  C_7
REMARK    6  A    between atoms: N_10  and  C_11
REMARK    7  A    between atoms: C_11  and  C_12
REMARK    8  A    between atoms: C_19  and  C_20
REMARK                            x       y       z     vdW  Elec       q    Type
REMARK                         _______ _______ _______ _____ _____    ______ ____
ROOT
ATOM      1  C   UNL     1       3.514   4.790  19.768  0.00  0.00    +0.000 A 
ATOM      2  S   UNL     1       4.606   3.549  19.302  0.00  0.00    +0.000 S 
ATOM      3  C   UNL     1       5.294   4.586  18.119  0.00  0.00    +0.000 A 
ATOM      4  N   UNL     1       6.337   4.154  17.383  0.00  0.00    +0.000 N 
ATOM      5  N   UNL     1       4.753   5.779  18.047  0.00  0.00    +0.000 NA
ATOM      6  C   UNL     1       3.675   5.882  18.927  0.00  0.00    +0.000 A 
ATOM      7  H   UNL     1       6.251   3.243  16.939  0.00  0.00    +0.000 HD
ENDROOT
BRANCH   6   8
ATOM      8  C   UNL     1       2.823   7.073  18.949  0.00  0.00    +0.000 A 
ATOM      9  C   UNL     1       2.642   7.837  17.801  0.00  0.00    +0.000 A 
ATOM     10  C   UNL     1       1.813   8.957  17.861  0.00  0.00    +0.000 A 
ATOM     11  C   UNL     1       1.180   9.273  19.057  0.00  0.00    +0.000 A 
ATOM     12  C   UNL     1       1.402   8.453  20.148  0.00  0.00    +0.000 A 
ATOM     13  N   UNL     1       2.208   7.371  20.124  0.00  0.00    +0.000 NA
ENDBRANCH   6   8
BRANCH   1  14
ATOM     14  C   UNL     1       2.574   4.570  20.913  0.00  0.00    +0.000 C 
BRANCH  14  15
ATOM     15  C   UNL     1       2.210   3.106  21.020  0.00  0.00    +0.000 C 
ATOM     16  O   UNL     1       1.981   2.509  22.063  0.00  0.00    +0.000 OA
BRANCH  15  17
ATOM     17  O   UNL     1       2.090   2.554  19.776  0.00  0.00    +0.000 OA
BRANCH  17  19
ATOM     18  C   UNL     1       0.923   3.596  17.920  0.00  0.00    +0.000 C 
ATOM     19  C   UNL     1       0.806   2.732  19.164  0.00  0.00    +0.000 C 
ENDBRANCH  17  19
ENDBRANCH  15  17
ENDBRANCH  14  15
ENDBRANCH   1  14
BRANCH   4  20
ATOM     20  C   UNL     1       7.093   5.115  16.591  0.00  0.00    +0.000 C 
BRANCH  20  21
ATOM     21  C   UNL     1       7.033   4.788  15.104  0.00  0.00    +0.000 A 
ATOM     22  N   UNL     1       6.133   3.860  14.695  0.00  0.00    +0.000 NA
ATOM     23  C   UNL     1       6.090   3.611  13.373  0.00  0.00    +0.000 A 
ATOM     24  C   UNL     1       6.892   4.243  12.452  0.00  0.00    +0.000 A 
ATOM     25  C   UNL     1       7.767   5.170  12.964  0.00  0.00    +0.000 A 
ATOM     26  N   UNL     1       7.854   5.466  14.274  0.00  0.00    +0.000 NA
ENDBRANCH  20  21
ENDBRANCH   4  20
TORSDOF 7
ENDMDL
