MODEL 1
REMARK VINA RESULT:      -6.9      0.000      0.000
REMARK  Name = 
REMARK  4 active torsions:
REMARK  status: ('A' for Active; 'I' for Inactive)
REMARK    1  A    between atoms: N_1  and  C_2
REMARK    2  A    between atoms: C_2  and  C_3
REMARK    3  A    between atoms: C_5  and  N_6
REMARK    4  A    between atoms: C_17  and  O_18
REMARK                            x       y       z     vdW  Elec       q    Type
REMARK                         _______ _______ _______ _____ _____    ______ ____
ROOT
ATOM      1  C   UNL     1       2.704   2.369  19.995  0.00  0.00    +0.000 C 
ATOM      2  O   UNL     1       3.423   3.621  19.884  0.00  0.00    +0.000 OA
ATOM      3  C   UNL     1       3.081   4.229  18.624  0.00  0.00    +0.000 C 
ATOM      4  C   UNL     1       2.212   3.241  17.836  0.00  0.00    +0.000 C 
ATOM      5  F   UNL     1       0.900   3.595  17.947  0.00  0.00    +0.000 F 
ATOM      6  C   UNL     1       2.413   1.925  18.562  0.00  0.00    +0.000 C 
ENDROOT
BRANCH   3   7
ATOM      7  N   UNL     1       4.298   4.607  17.910  0.00  0.00    +0.000 N 
ATOM      8  C   UNL     1       4.536   4.196  16.614  0.00  0.00    +0.000 A 
ATOM      9  C   UNL     1       5.594   4.621  15.922  0.00  0.00    +0.000 A 
ATOM     10  I   UNL     1       5.964   4.086  13.997  0.00  0.00    +0.000 I 
ATOM     11  C   UNL     1       6.501   5.545  16.668  0.00  0.00    +0.000 A 
ATOM     12  N   UNL     1       7.642   6.053  16.097  0.00  0.00    +0.000 N 
ATOM     13  N   UNL     1       6.278   5.927  17.891  0.00  0.00    +0.000 NA
ATOM     14  C   UNL     1       5.153   5.506  18.557  0.00  0.00    +0.000 A 
ATOM     15  O   UNL     1       4.887   5.927  19.679  0.00  0.00    +0.000 OA
ATOM     16  H   UNL     1       8.060   5.524  15.340  0.00  0.00    +0.000 HD
ATOM     17  H   UNL     1       8.304   6.415  16.774  0.00  0.00    +0.000 HD
ENDBRANCH   3   7
BRANCH   6  18
ATOM     18  O   UNL     1       3.523   1.169  18.055  0.00  0.00    +0.000 OA
ATOM     19  H   UNL     1       3.770   1.483  17.168  0.00  0.00    +0.000 HD
ENDBRANCH   6  18
BRANCH   1  20
ATOM     20  C   UNL     1       1.418   2.597  20.816  0.00  0.00    +0.000 C 
BRANCH  20  21
ATOM     21  N   UNL     1       1.721   2.742  22.243  0.00  0.00    +0.000 NA
ATOM     22  H   UNL     1       2.307   3.563  22.388  0.00  0.00    +0.000 HD
ATOM     23  H   UNL     1       2.275   1.934  22.538  0.00  0.00    +0.000 HD
ENDBRANCH  20  21
ENDBRANCH   1  20
TORSDOF 4
ENDMDL
MODEL 2
REMARK VINA RESULT:      -6.8      1.625      1.877
REMARK  Name = 
REMARK  4 active torsions:
REMARK  status: ('A' for Active; 'I' for Inactive)
REMARK    1  A    between atoms: N_1  and  C_2
REMARK    2  A    between atoms: C_2  and  C_3
REMARK    3  A    between atoms: C_5  and  N_6
REMARK    4  A    between atoms: C_17  and  O_18
REMARK                            x       y       z     vdW  Elec       q    Type
REMARK                         _______ _______ _______ _____ _____    ______ ____
ROOT
ATOM      1  C   UNL     1       3.876   3.355  19.341  0.00  0.00    +0.000 C 
ATOM      2  O   UNL     1       4.612   4.469  18.782  0.00  0.00    +0.000 OA
ATOM      3  C   UNL     1       4.067   4.764  17.481  0.00  0.00    +0.000 C 
ATOM      4  C   UNL     1       3.028   3.688  17.142  0.00  0.00    +0.000 C 
ATOM      5  F   UNL     1       1.774   4.171  17.374  0.00  0.00    +0.000 F 
ATOM      6  C   UNL     1       3.307   2.587  18.148  0.00  0.00    +0.000 C 
ENDROOT
BRANCH   3   7
ATOM      7  N   UNL     1       5.145   4.839  16.498  0.00  0.00    +0.000 N 
ATOM      8  C   UNL     1       5.076   4.172  15.293  0.00  0.00    +0.000 A 
ATOM      9  C   UNL     1       6.008   4.318  14.350  0.00  0.00    +0.000 A 
ATOM     10  I   UNL     1       5.929   3.396  12.542  0.00  0.00    +0.000 I 
ATOM     11  C   UNL     1       7.130   5.235  14.716  0.00  0.00    +0.000 A 
ATOM     12  N   UNL     1       8.176   5.473  13.858  0.00  0.00    +0.000 N 
ATOM     13  N   UNL     1       7.196   5.859  15.855  0.00  0.00    +0.000 NA
ATOM     14  C   UNL     1       6.194   5.720  16.784  0.00  0.00    +0.000 A 
ATOM     15  O   UNL     1       6.201   6.371  17.824  0.00  0.00    +0.000 OA
ATOM     16  H   UNL     1       8.380   4.764  13.162  0.00  0.00    +0.000 HD
ATOM     17  H   UNL     1       8.992   5.862  14.316  0.00  0.00    +0.000 HD
ENDBRANCH   3   7
BRANCH   6  18
ATOM     18  O   UNL     1       4.272   1.633  17.681  0.00  0.00    +0.000 OA
ATOM     19  H   UNL     1       4.731   1.219  18.431  0.00  0.00    +0.000 HD
ENDBRANCH   6  18
BRANCH   1  20
ATOM     20  C   UNL     1       2.774   3.895  20.276  0.00  0.00    +0.000 C 
BRANCH  20  21
ATOM     21  N   UNL     1       2.954   5.327  20.532  0.00  0.00    +0.000 NA
ATOM     22  H   UNL     1       3.517   5.458  21.371  0.00  0.00    +0.000 HD
ATOM     23  H   UNL     1       2.038   5.737  20.729  0.00  0.00    +0.000 HD
ENDBRANCH  20  21
ENDBRANCH   1  20
TORSDOF 4
ENDMDL
MODEL 3
REMARK VINA RESULT:      -6.6      1.598      1.791
REMARK  Name = 
REMARK  4 active torsions:
REMARK  status: ('A' for Active; 'I' for Inactive)
REMARK    1  A    between atoms: N_1  and  C_2
REMARK    2  A    between atoms: C_2  and  C_3
REMARK    3  A    between atoms: C_5  and  N_6
REMARK    4  A    between atoms: C_17  and  O_18
REMARK                            x       y       z     vdW  Elec       q    Type
REMARK                         _______ _______ _______ _____ _____    ______ ____
ROOT
ATOM      1  C   UNL     1       2.579   2.724  19.015  0.00  0.00    +0.000 C 
ATOM      2  O   UNL     1       4.019   2.732  18.862  0.00  0.00    +0.000 OA
ATOM      3  C   UNL     1       4.469   4.100  18.898  0.00  0.00    +0.000 C 
ATOM      4  C   UNL     1       3.235   5.010  18.930  0.00  0.00    +0.000 C 
ATOM      5  F   UNL     1       3.012   5.434  20.207  0.00  0.00    +0.000 F 
ATOM      6  C   UNL     1       2.098   4.090  18.528  0.00  0.00    +0.000 C 
ENDROOT
BRANCH   3   7
ATOM      7  N   UNL     1       5.337   4.366  17.752  0.00  0.00    +0.000 N 
ATOM      8  C   UNL     1       5.027   3.913  16.486  0.00  0.00    +0.000 A 
ATOM      9  C   UNL     1       5.759   4.238  15.421  0.00  0.00    +0.000 A 
ATOM     10  I   UNL     1       5.320   3.637  13.530  0.00  0.00    +0.000 I 
ATOM     11  C   UNL     1       6.943   5.102  15.715  0.00  0.00    +0.000 A 
ATOM     12  N   UNL     1       7.805   5.506  14.725  0.00  0.00    +0.000 N 
ATOM     13  N   UNL     1       7.237   5.524  16.909  0.00  0.00    +0.000 NA
ATOM     14  C   UNL     1       6.433   5.206  17.977  0.00  0.00    +0.000 A 
ATOM     15  O   UNL     1       6.650   5.670  19.092  0.00  0.00    +0.000 OA
ATOM     16  H   UNL     1       7.862   4.930  13.891  0.00  0.00    +0.000 HD
ATOM     17  H   UNL     1       8.700   5.828  15.076  0.00  0.00    +0.000 HD
ENDBRANCH   3   7
BRANCH   6  18
ATOM     18  O   UNL     1       1.883   4.051  17.110  0.00  0.00    +0.000 OA
ATOM     19  H   UNL     1       1.874   3.132  16.794  0.00  0.00    +0.000 HD
ENDBRANCH   6  18
BRANCH   1  20
ATOM     20  C   UNL     1       2.230   2.467  20.496  0.00  0.00    +0.000 C 
BRANCH  20  21
ATOM     21  N   UNL     1       0.893   2.974  20.819  0.00  0.00    +0.000 NA
ATOM     22  H   UNL     1       0.444   3.320  19.973  0.00  0.00    +0.000 HD
ATOM     23  H   UNL     1       0.996   3.778  21.443  0.00  0.00    +0.000 HD
ENDBRANCH  20  21
ENDBRANCH   1  20
TORSDOF 4
ENDMDL
MODEL 4
REMARK VINA RESULT:      -6.6      3.479      5.595
REMARK  Name = 
REMARK  4 active torsions:
REMARK  status: ('A' for Active; 'I' for Inactive)
REMARK    1  A    between atoms: N_1  and  C_2
REMARK    2  A    between atoms: C_2  and  C_3
REMARK    3  A    between atoms: C_5  and  N_6
REMARK    4  A    between atoms: C_17  and  O_18
REMARK                            x       y       z     vdW  Elec       q    Type
REMARK                         _______ _______ _______ _____ _____    ______ ____
ROOT
ATOM      1  C   UNL     1       6.167   4.057  15.932  0.00  0.00    +0.000 C 
ATOM      2  O   UNL     1       4.792   4.489  16.065  0.00  0.00    +0.000 OA
ATOM      3  C   UNL     1       4.782   5.772  16.720  0.00  0.00    +0.000 C 
ATOM      4  C   UNL     1       6.217   6.100  17.152  0.00  0.00    +0.000 C 
ATOM      5  F   UNL     1       6.777   6.968  16.261  0.00  0.00    +0.000 F 
ATOM      6  C   UNL     1       6.940   4.771  17.041  0.00  0.00    +0.000 C 
ENDROOT
BRANCH   3   7
ATOM      7  N   UNL     1       3.846   5.748  17.841  0.00  0.00    +0.000 N 
ATOM      8  C   UNL     1       3.631   4.605  18.584  0.00  0.00    +0.000 A 
ATOM      9  C   UNL     1       2.858   4.604  19.670  0.00  0.00    +0.000 A 
ATOM     10  I   UNL     1       2.547   2.961  20.825  0.00  0.00    +0.000 I 
ATOM     11  C   UNL     1       2.230   5.921  19.994  0.00  0.00    +0.000 A 
ATOM     12  N   UNL     1       1.392   6.075  21.071  0.00  0.00    +0.000 N 
ATOM     13  N   UNL     1       2.429   6.996  19.290  0.00  0.00    +0.000 NA
ATOM     14  C   UNL     1       3.270   6.971  18.204  0.00  0.00    +0.000 A 
ATOM     15  O   UNL     1       3.534   7.997  17.584  0.00  0.00    +0.000 OA
ATOM     16  H   UNL     1       0.909   5.250  21.409  0.00  0.00    +0.000 HD
ATOM     17  H   UNL     1       0.816   6.908  21.017  0.00  0.00    +0.000 HD
ENDBRANCH   3   7
BRANCH   6  18
ATOM     18  O   UNL     1       6.881   3.998  18.248  0.00  0.00    +0.000 OA
ATOM     19  H   UNL     1       6.086   4.228  18.759  0.00  0.00    +0.000 HD
ENDBRANCH   6  18
BRANCH   1  20
ATOM     20  C   UNL     1       6.679   4.424  14.524  0.00  0.00    +0.000 C 
BRANCH  20  21
ATOM     21  N   UNL     1       6.242   3.438  13.530  0.00  0.00    +0.000 NA
ATOM     22  H   UNL     1       5.333   3.063  13.795  0.00  0.00    +0.000 HD
ATOM     23  H   UNL     1       6.897   2.653  13.547  0.00  0.00    +0.000 HD
ENDBRANCH  20  21
ENDBRANCH   1  20
TORSDOF 4
ENDMDL
MODEL 5
REMARK VINA RESULT:      -6.4      1.657      1.930
REMARK  Name = 
REMARK  4 active torsions:
REMARK  status: ('A' for Active; 'I' for Inactive)
REMARK    1  A    between atoms: N_1  and  C_2
REMARK    2  A    between atoms: C_2  and  C_3
REMARK    3  A    between atoms: C_5  and  N_6
REMARK    4  A    between atoms: C_17  and  O_18
REMARK                            x       y       z     vdW  Elec       q    Type
REMARK                         _______ _______ _______ _____ _____    ______ ____
ROOT
ATOM      1  C   UNL     1       3.115   2.807  18.820  0.00  0.00    +0.000 C 
ATOM      2  O   UNL     1       4.513   3.157  18.681  0.00  0.00    +0.000 OA
ATOM      3  C   UNL     1       4.597   4.546  18.309  0.00  0.00    +0.000 C 
ATOM      4  C   UNL     1       3.174   5.062  18.060  0.00  0.00    +0.000 C 
ATOM      5  F   UNL     1       2.741   5.757  19.149  0.00  0.00    +0.000 F 
ATOM      6  C   UNL     1       2.347   3.795  17.943  0.00  0.00    +0.000 C 
ENDROOT
BRANCH   3   7
ATOM      7  N   UNL     1       5.465   4.695  17.143  0.00  0.00    +0.000 N 
ATOM      8  C   UNL     1       5.155   4.116  15.929  0.00  0.00    +0.000 A 
ATOM      9  C   UNL     1       5.888   4.333  14.836  0.00  0.00    +0.000 A 
ATOM     10  I   UNL     1       5.449   3.544  13.016  0.00  0.00    +0.000 I 
ATOM     11  C   UNL     1       7.071   5.223  15.042  0.00  0.00    +0.000 A 
ATOM     12  N   UNL     1       7.933   5.525  14.016  0.00  0.00    +0.000 N 
ATOM     13  N   UNL     1       7.364   5.763  16.187  0.00  0.00    +0.000 NA
ATOM     14  C   UNL     1       6.560   5.555  17.281  0.00  0.00    +0.000 A 
ATOM     15  O   UNL     1       6.777   6.129  18.344  0.00  0.00    +0.000 OA
ATOM     16  H   UNL     1       7.990   4.869  13.245  0.00  0.00    +0.000 HD
ATOM     17  H   UNL     1       8.827   5.881  14.333  0.00  0.00    +0.000 HD
ENDBRANCH   3   7
BRANCH   6  18
ATOM     18  O   UNL     1       2.273   3.296  16.600  0.00  0.00    +0.000 OA
ATOM     19  H   UNL     1       2.264   4.032  15.965  0.00  0.00    +0.000 HD
ENDBRANCH   6  18
BRANCH   1  20
ATOM     20  C   UNL     1       2.716   2.901  20.307  0.00  0.00    +0.000 C 
BRANCH  20  21
ATOM     21  N   UNL     1       3.772   2.365  21.171  0.00  0.00    +0.000 NA
ATOM     22  H   UNL     1       4.491   1.922  20.601  0.00  0.00    +0.000 HD
ATOM     23  H   UNL     1       3.368   1.627  21.754  0.00  0.00    +0.000 HD
ENDBRANCH  20  21
ENDBRANCH   1  20
TORSDOF 4
ENDMDL
MODEL 6
REMARK VINA RESULT:      -6.4      1.085      1.135
REMARK  Name = 
REMARK  4 active torsions:
REMARK  status: ('A' for Active; 'I' for Inactive)
REMARK    1  A    between atoms: N_1  and  C_2
REMARK    2  A    between atoms: C_2  and  C_3
REMARK    3  A    between atoms: C_5  and  N_6
REMARK    4  A    between atoms: C_17  and  O_18
REMARK                            x       y       z     vdW  Elec       q    Type
REMARK                         _______ _______ _______ _____ _____    ______ ____
ROOT
ATOM      1  C   UNL     1       2.954   2.844  20.433  0.00  0.00    +0.000 C 
ATOM      2  O   UNL     1       3.134   4.086  19.711  0.00  0.00    +0.000 OA
ATOM      3  C   UNL     1       3.256   3.781  18.308  0.00  0.00    +0.000 C 
ATOM      4  C   UNL     1       3.300   2.255  18.153  0.00  0.00    +0.000 C 
ATOM      5  F   UNL     1       2.073   1.798  17.772  0.00  0.00    +0.000 F 
ATOM      6  C   UNL     1       3.578   1.757  19.559  0.00  0.00    +0.000 C 
ENDROOT
BRANCH   3   7
ATOM      7  N   UNL     1       4.440   4.439  17.760  0.00  0.00    +0.000 N 
ATOM      8  C   UNL     1       4.917   4.141  16.500  0.00  0.00    +0.000 A 
ATOM      9  C   UNL     1       5.933   4.810  15.953  0.00  0.00    +0.000 A 
ATOM     10  I   UNL     1       6.643   4.444  14.085  0.00  0.00    +0.000 I 
ATOM     11  C   UNL     1       6.518   5.878  16.820  0.00  0.00    +0.000 A 
ATOM     12  N   UNL     1       7.582   6.641  16.406  0.00  0.00    +0.000 N 
ATOM     13  N   UNL     1       6.070   6.154  18.010  0.00  0.00    +0.000 NA
ATOM     14  C   UNL     1       4.992   5.475  18.522  0.00  0.00    +0.000 A 
ATOM     15  O   UNL     1       4.506   5.784  19.605  0.00  0.00    +0.000 OA
ATOM     16  H   UNL     1       8.195   6.245  15.702  0.00  0.00    +0.000 HD
ATOM     17  H   UNL     1       8.062   7.111  17.166  0.00  0.00    +0.000 HD
ENDBRANCH   3   7
BRANCH   6  18
ATOM     18  O   UNL     1       4.979   1.648  19.847  0.00  0.00    +0.000 OA
ATOM     19  H   UNL     1       5.496   2.188  19.226  0.00  0.00    +0.000 HD
ENDBRANCH   6  18
BRANCH   1  20
ATOM     20  C   UNL     1       1.448   2.616  20.677  0.00  0.00    +0.000 C 
BRANCH  20  21
ATOM     21  N   UNL     1       0.692   3.861  20.514  0.00  0.00    +0.000 NA
ATOM     22  H   UNL     1       1.258   4.649  20.824  0.00  0.00    +0.000 HD
ATOM     23  H   UNL     1      -0.122   3.827  21.133  0.00  0.00    +0.000 HD
ENDBRANCH  20  21
ENDBRANCH   1  20
TORSDOF 4
ENDMDL
MODEL 7
REMARK VINA RESULT:      -6.3      1.615      1.622
REMARK  Name = 
REMARK  4 active torsions:
REMARK  status: ('A' for Active; 'I' for Inactive)
REMARK    1  A    between atoms: N_1  and  C_2
REMARK    2  A    between atoms: C_2  and  C_3
REMARK    3  A    between atoms: C_5  and  N_6
REMARK    4  A    between atoms: C_17  and  O_18
REMARK                            x       y       z     vdW  Elec       q    Type
REMARK                         _______ _______ _______ _____ _____    ______ ____
ROOT
ATOM      1  C   UNL     1       2.678   2.259  20.114  0.00  0.00    +0.000 C 
ATOM      2  O   UNL     1       3.462   3.476  20.093  0.00  0.00    +0.000 OA
ATOM      3  C   UNL     1       2.682   4.506  19.457  0.00  0.00    +0.000 C 
ATOM      4  C   UNL     1       1.394   3.869  18.920  0.00  0.00    +0.000 C 
ATOM      5  F   UNL     1       0.364   4.125  19.775  0.00  0.00    +0.000 F 
ATOM      6  C   UNL     1       1.685   2.380  18.958  0.00  0.00    +0.000 C 
ENDROOT
BRANCH   3   7
ATOM      7  N   UNL     1       3.472   5.151  18.411  0.00  0.00    +0.000 N 
ATOM      8  C   UNL     1       4.270   4.424  17.552  0.00  0.00    +0.000 A 
ATOM      9  C   UNL     1       4.913   4.995  16.532  0.00  0.00    +0.000 A 
ATOM     10  I   UNL     1       6.062   3.963  15.211  0.00  0.00    +0.000 I 
ATOM     11  C   UNL     1       4.718   6.472  16.417  0.00  0.00    +0.000 A 
ATOM     12  N   UNL     1       5.329   7.205  15.429  0.00  0.00    +0.000 N 
ATOM     13  N   UNL     1       3.969   7.156  17.230  0.00  0.00    +0.000 NA
ATOM     14  C   UNL     1       3.285   6.528  18.242  0.00  0.00    +0.000 A 
ATOM     15  O   UNL     1       2.508   7.148  18.961  0.00  0.00    +0.000 OA
ATOM     16  H   UNL     1       6.182   6.830  15.029  0.00  0.00    +0.000 HD
ATOM     17  H   UNL     1       5.358   8.200  15.625  0.00  0.00    +0.000 HD
ENDBRANCH   3   7
BRANCH   6  18
ATOM     18  O   UNL     1       2.288   1.896  17.749  0.00  0.00    +0.000 OA
ATOM     19  H   UNL     1       1.609   1.542  17.150  0.00  0.00    +0.000 HD
ENDBRANCH   6  18
BRANCH   1  20
ATOM     20  C   UNL     1       1.978   2.132  21.483  0.00  0.00    +0.000 C 
BRANCH  20  21
ATOM     21  N   UNL     1       2.316   3.262  22.355  0.00  0.00    +0.000 NA
ATOM     22  H   UNL     1       1.462   3.721  22.668  0.00  0.00    +0.000 HD
ATOM     23  H   UNL     1       2.831   3.951  21.803  0.00  0.00    +0.000 HD
ENDBRANCH  20  21
ENDBRANCH   1  20
TORSDOF 4
ENDMDL
MODEL 8
REMARK VINA RESULT:      -6.1      2.063      2.434
REMARK  Name = 
REMARK  4 active torsions:
REMARK  status: ('A' for Active; 'I' for Inactive)
REMARK    1  A    between atoms: N_1  and  C_2
REMARK    2  A    between atoms: C_2  and  C_3
REMARK    3  A    between atoms: C_5  and  N_6
REMARK    4  A    between atoms: C_17  and  O_18
REMARK                            x       y       z     vdW  Elec       q    Type
REMARK                         _______ _______ _______ _____ _____    ______ ____
ROOT
ATOM      1  C   UNL     1       3.912   5.001  19.489  0.00  0.00    +0.000 C 
ATOM      2  O   UNL     1       4.172   5.748  18.277  0.00  0.00    +0.000 OA
ATOM      3  C   UNL     1       3.933   4.881  17.152  0.00  0.00    +0.000 C 
ATOM      4  C   UNL     1       3.649   3.471  17.685  0.00  0.00    +0.000 C 
ATOM      5  F   UNL     1       2.305   3.242  17.680  0.00  0.00    +0.000 F 
ATOM      6  C   UNL     1       4.116   3.530  19.127  0.00  0.00    +0.000 C 
ENDROOT
BRANCH   3   7
ATOM      7  N   UNL     1       5.078   4.921  16.244  0.00  0.00    +0.000 N 
ATOM      8  C   UNL     1       5.080   4.237  15.046  0.00  0.00    +0.000 A 
ATOM      9  C   UNL     1       6.077   4.352  14.168  0.00  0.00    +0.000 A 
ATOM     10  I   UNL     1       6.105   3.404  12.372  0.00  0.00    +0.000 I 
ATOM     11  C   UNL     1       7.189   5.253  14.599  0.00  0.00    +0.000 A 
ATOM     12  N   UNL     1       8.295   5.459  13.812  0.00  0.00    +0.000 N 
ATOM     13  N   UNL     1       7.188   5.893  15.730  0.00  0.00    +0.000 NA
ATOM     14  C   UNL     1       6.122   5.787  16.590  0.00  0.00    +0.000 A 
ATOM     15  O   UNL     1       6.071   6.453  17.619  0.00  0.00    +0.000 OA
ATOM     16  H   UNL     1       8.534   4.735  13.142  0.00  0.00    +0.000 HD
ATOM     17  H   UNL     1       9.086   5.839  14.320  0.00  0.00    +0.000 HD
ENDBRANCH   3   7
BRANCH   6  18
ATOM     18  O   UNL     1       5.499   3.180  19.282  0.00  0.00    +0.000 OA
ATOM     19  H   UNL     1       5.959   3.228  18.427  0.00  0.00    +0.000 HD
ENDBRANCH   6  18
BRANCH   1  20
ATOM     20  C   UNL     1       2.477   5.299  19.969  0.00  0.00    +0.000 C 
BRANCH  20  21
ATOM     21  N   UNL     1       2.385   6.637  20.560  0.00  0.00    +0.000 NA
ATOM     22  H   UNL     1       2.833   6.640  21.475  0.00  0.00    +0.000 HD
ATOM     23  H   UNL     1       1.397   6.852  20.719  0.00  0.00    +0.000 HD
ENDBRANCH  20  21
ENDBRANCH   1  20
TORSDOF 4
ENDMDL
MODEL 9
REMARK VINA RESULT:      -6.1      1.983      2.450
REMARK  Name = 
REMARK  4 active torsions:
REMARK  status: ('A' for Active; 'I' for Inactive)
REMARK    1  A    between atoms: N_1  and  C_2
REMARK    2  A    between atoms: C_2  and  C_3
REMARK    3  A    between atoms: C_5  and  N_6
REMARK    4  A    between atoms: C_17  and  O_18
REMARK                            x       y       z     vdW  Elec       q    Type
REMARK                         _______ _______ _______ _____ _____    ______ ____
ROOT
ATOM      1  C   UNL     1       1.989   2.851  19.593  0.00  0.00    +0.000 C 
ATOM      2  O   UNL     1       3.416   3.096  19.596  0.00  0.00    +0.000 OA
ATOM      3  C   UNL     1       3.630   4.518  19.509  0.00  0.00    +0.000 C 
ATOM      4  C   UNL     1       2.271   5.196  19.294  0.00  0.00    +0.000 C 
ATOM      5  F   UNL     1       1.821   5.705  20.476  0.00  0.00    +0.000 F 
ATOM      6  C   UNL     1       1.358   4.053  18.890  0.00  0.00    +0.000 C 
ENDROOT
BRANCH   3   7
ATOM      7  N   UNL     1       4.582   4.810  18.439  0.00  0.00    +0.000 N 
ATOM      8  C   UNL     1       5.394   5.925  18.475  0.00  0.00    +0.000 A 
ATOM      9  C   UNL     1       6.336   6.143  17.556  0.00  0.00    +0.000 A 
ATOM     10  I   UNL     1       7.588   7.742  17.589  0.00  0.00    +0.000 I 
ATOM     11  C   UNL     1       6.417   5.104  16.485  0.00  0.00    +0.000 A 
ATOM     12  N   UNL     1       7.323   5.197  15.457  0.00  0.00    +0.000 N 
ATOM     13  N   UNL     1       5.648   4.056  16.450  0.00  0.00    +0.000 NA
ATOM     14  C   UNL     1       4.720   3.841  17.439  0.00  0.00    +0.000 A 
ATOM     15  O   UNL     1       4.049   2.814  17.465  0.00  0.00    +0.000 OA
ATOM     16  H   UNL     1       7.663   6.122  15.216  0.00  0.00    +0.000 HD
ATOM     17  H   UNL     1       7.092   4.612  14.662  0.00  0.00    +0.000 HD
ENDBRANCH   3   7
BRANCH   6  18
ATOM     18  O   UNL     1       1.336   3.828  17.473  0.00  0.00    +0.000 OA
ATOM     19  H   UNL     1       1.236   2.880  17.282  0.00  0.00    +0.000 HD
ENDBRANCH   6  18
BRANCH   1  20
ATOM     20  C   UNL     1       1.500   2.694  21.048  0.00  0.00    +0.000 C 
BRANCH  20  21
ATOM     21  N   UNL     1       2.628   2.500  21.965  0.00  0.00    +0.000 NA
ATOM     22  H   UNL     1       3.468   2.917  21.569  0.00  0.00    +0.000 HD
ATOM     23  H   UNL     1       2.810   1.497  22.044  0.00  0.00    +0.000 HD
ENDBRANCH  20  21
ENDBRANCH   1  20
TORSDOF 4
ENDMDL
