MODEL 1
REMARK VINA RESULT:      -6.4      0.000      0.000
REMARK  Name = 
REMARK  5 active torsions:
REMARK  status: ('A' for Active; 'I' for Inactive)
REMARK    1  A    between atoms: C_1  and  C_2
REMARK    2  A    between atoms: C_2  and  C_3
REMARK    3  A    between atoms: C_8  and  O_9
REMARK    4  A    between atoms: C_10  and  C_11
REMARK    5  A    between atoms: C_10  and  C_12
REMARK                            x       y       z     vdW  Elec       q    Type
REMARK                         _______ _______ _______ _____ _____    ______ ____
ROOT
ATOM      1  C   UNL     1       2.772   6.425  19.878  0.00  0.00    +0.000 C 
ATOM      2  C   UNL     1       2.772   6.187  18.361  0.00  0.00    +0.000 C 
ATOM      3  C   UNL     1       2.304   7.536  17.745  0.00  0.00    +0.000 C 
ATOM      4  C   UNL     1       1.775   5.116  17.956  0.00  0.00    +0.000 C 
ATOM      5  C   UNL     1       1.964   3.799  17.777  0.00  0.00    +0.000 C 
ATOM      6  C   UNL     1       3.204   3.022  18.038  0.00  0.00    +0.000 C 
ATOM      7  O   UNL     1       3.312   1.888  17.564  0.00  0.00    +0.000 OA
ATOM      8  C   UNL     1       4.287   3.599  18.951  0.00  0.00    +0.000 C 
ATOM      9  C   UNL     1       5.062   4.757  18.301  0.00  0.00    +0.000 C 
ATOM     10  C   UNL     1       6.011   5.423  19.311  0.00  0.00    +0.000 C 
ATOM     11  C   UNL     1       5.940   4.194  17.150  0.00  0.00    +0.000 C 
ATOM     12  C   UNL     1       4.153   5.861  17.727  0.00  0.00    +0.000 C 
ATOM     13  O   UNL     1       4.528   6.480  16.721  0.00  0.00    +0.000 OA
ENDROOT
BRANCH   8  14
ATOM     14  O   UNL     1       5.191   2.563  19.354  0.00  0.00    +0.000 OA
ATOM     15  H   UNL     1       6.083   2.845  19.065  0.00  0.00    +0.000 HD
ENDBRANCH   8  14
TORSDOF 1
ENDMDL
MODEL 2
REMARK VINA RESULT:      -6.3      1.964      3.520
REMARK  Name = 
REMARK  5 active torsions:
REMARK  status: ('A' for Active; 'I' for Inactive)
REMARK    1  A    between atoms: C_1  and  C_2
REMARK    2  A    between atoms: C_2  and  C_3
REMARK    3  A    between atoms: C_8  and  O_9
REMARK    4  A    between atoms: C_10  and  C_11
REMARK    5  A    between atoms: C_10  and  C_12
REMARK                            x       y       z     vdW  Elec       q    Type
REMARK                         _______ _______ _______ _____ _____    ______ ____
ROOT
ATOM      1  C   UNL     1       3.313   7.045  17.927  0.00  0.00    +0.000 C 
ATOM      2  C   UNL     1       3.618   5.550  18.093  0.00  0.00    +0.000 C 
ATOM      3  C   UNL     1       2.227   4.869  18.224  0.00  0.00    +0.000 C 
ATOM      4  C   UNL     1       4.400   5.270  19.364  0.00  0.00    +0.000 C 
ATOM      5  C   UNL     1       5.726   5.170  19.546  0.00  0.00    +0.000 C 
ATOM      6  C   UNL     1       6.795   5.419  18.542  0.00  0.00    +0.000 C 
ATOM      7  O   UNL     1       7.939   5.018  18.773  0.00  0.00    +0.000 OA
ATOM      8  C   UNL     1       6.486   6.235  17.286  0.00  0.00    +0.000 C 
ATOM      9  C   UNL     1       5.616   5.470  16.276  0.00  0.00    +0.000 C 
ATOM     10  C   UNL     1       5.180   6.383  15.118  0.00  0.00    +0.000 C 
ATOM     11  C   UNL     1       6.453   4.316  15.659  0.00  0.00    +0.000 C 
ATOM     12  C   UNL     1       4.338   4.870  16.894  0.00  0.00    +0.000 C 
ATOM     13  O   UNL     1       3.896   3.806  16.437  0.00  0.00    +0.000 OA
ENDROOT
BRANCH   8  14
ATOM     14  O   UNL     1       7.706   6.660  16.666  0.00  0.00    +0.000 OA
ATOM     15  H   UNL     1       7.539   7.558  16.311  0.00  0.00    +0.000 HD
ENDBRANCH   8  14
TORSDOF 1
ENDMDL
MODEL 3
REMARK VINA RESULT:      -6.2      2.051      3.622
REMARK  Name = 
REMARK  5 active torsions:
REMARK  status: ('A' for Active; 'I' for Inactive)
REMARK    1  A    between atoms: C_1  and  C_2
REMARK    2  A    between atoms: C_2  and  C_3
REMARK    3  A    between atoms: C_8  and  O_9
REMARK    4  A    between atoms: C_10  and  C_11
REMARK    5  A    between atoms: C_10  and  C_12
REMARK                            x       y       z     vdW  Elec       q    Type
REMARK                         _______ _______ _______ _____ _____    ______ ____
ROOT
ATOM      1  C   UNL     1       2.273   5.545  17.661  0.00  0.00    +0.000 C 
ATOM      2  C   UNL     1       2.748   5.631  19.118  0.00  0.00    +0.000 C 
ATOM      3  C   UNL     1       2.425   7.086  19.559  0.00  0.00    +0.000 C 
ATOM      4  C   UNL     1       4.248   5.426  19.237  0.00  0.00    +0.000 C 
ATOM      5  C   UNL     1       4.939   4.301  19.479  0.00  0.00    +0.000 C 
ATOM      6  C   UNL     1       4.401   2.920  19.590  0.00  0.00    +0.000 C 
ATOM      7  O   UNL     1       5.108   2.040  20.089  0.00  0.00    +0.000 OA
ATOM      8  C   UNL     1       3.024   2.589  19.014  0.00  0.00    +0.000 C 
ATOM      9  C   UNL     1       1.872   3.181  19.842  0.00  0.00    +0.000 C 
ATOM     10  C   UNL     1       0.522   2.981  19.134  0.00  0.00    +0.000 C 
ATOM     11  C   UNL     1       1.791   2.435  21.201  0.00  0.00    +0.000 C 
ATOM     12  C   UNL     1       2.026   4.689  20.121  0.00  0.00    +0.000 C 
ATOM     13  O   UNL     1       1.584   5.148  21.184  0.00  0.00    +0.000 OA
ENDROOT
BRANCH   8  14
ATOM     14  O   UNL     1       2.871   1.169  18.896  0.00  0.00    +0.000 OA
ATOM     15  H   UNL     1       3.474   0.769  19.557  0.00  0.00    +0.000 HD
ENDBRANCH   8  14
TORSDOF 1
ENDMDL
MODEL 4
REMARK VINA RESULT:      -6.1      1.775      3.770
REMARK  Name = 
REMARK  5 active torsions:
REMARK  status: ('A' for Active; 'I' for Inactive)
REMARK    1  A    between atoms: C_1  and  C_2
REMARK    2  A    between atoms: C_2  and  C_3
REMARK    3  A    between atoms: C_8  and  O_9
REMARK    4  A    between atoms: C_10  and  C_11
REMARK    5  A    between atoms: C_10  and  C_12
REMARK                            x       y       z     vdW  Elec       q    Type
REMARK                         _______ _______ _______ _____ _____    ______ ____
ROOT
ATOM      1  C   UNL     1       5.469   4.600  15.302  0.00  0.00    +0.000 C 
ATOM      2  C   UNL     1       5.409   5.902  16.113  0.00  0.00    +0.000 C 
ATOM      3  C   UNL     1       5.024   6.998  15.081  0.00  0.00    +0.000 C 
ATOM      4  C   UNL     1       6.762   6.265  16.701  0.00  0.00    +0.000 C 
ATOM      5  C   UNL     1       7.269   5.983  17.912  0.00  0.00    +0.000 C 
ATOM      6  C   UNL     1       6.660   5.134  18.969  0.00  0.00    +0.000 C 
ATOM      7  O   UNL     1       7.105   5.197  20.118  0.00  0.00    +0.000 OA
ATOM      8  C   UNL     1       5.555   4.140  18.606  0.00  0.00    +0.000 C 
ATOM      9  C   UNL     1       4.217   4.824  18.284  0.00  0.00    +0.000 C 
ATOM     10  C   UNL     1       3.191   3.811  17.753  0.00  0.00    +0.000 C 
ATOM     11  C   UNL     1       3.631   5.427  19.590  0.00  0.00    +0.000 C 
ATOM     12  C   UNL     1       4.338   5.949  17.238  0.00  0.00    +0.000 C 
ATOM     13  O   UNL     1       3.575   6.924  17.318  0.00  0.00    +0.000 OA
ENDROOT
BRANCH   8  14
ATOM     14  O   UNL     1       5.384   3.191  19.667  0.00  0.00    +0.000 OA
ATOM     15  H   UNL     1       4.471   3.311  20.001  0.00  0.00    +0.000 HD
ENDBRANCH   8  14
TORSDOF 1
ENDMDL
MODEL 5
REMARK VINA RESULT:      -6.1      2.221      3.182
REMARK  Name = 
REMARK  5 active torsions:
REMARK  status: ('A' for Active; 'I' for Inactive)
REMARK    1  A    between atoms: C_1  and  C_2
REMARK    2  A    between atoms: C_2  and  C_3
REMARK    3  A    between atoms: C_8  and  O_9
REMARK    4  A    between atoms: C_10  and  C_11
REMARK    5  A    between atoms: C_10  and  C_12
REMARK                            x       y       z     vdW  Elec       q    Type
REMARK                         _______ _______ _______ _____ _____    ______ ____
ROOT
ATOM      1  C   UNL     1       4.182   3.542  18.688  0.00  0.00    +0.000 C 
ATOM      2  C   UNL     1       4.021   4.676  17.666  0.00  0.00    +0.000 C 
ATOM      3  C   UNL     1       2.582   5.218  17.892  0.00  0.00    +0.000 C 
ATOM      4  C   UNL     1       4.112   4.168  16.238  0.00  0.00    +0.000 C 
ATOM      5  C   UNL     1       5.177   4.099  15.423  0.00  0.00    +0.000 C 
ATOM      6  C   UNL     1       6.590   4.415  15.758  0.00  0.00    +0.000 C 
ATOM      7  O   UNL     1       7.401   4.576  14.842  0.00  0.00    +0.000 OA
ATOM      8  C   UNL     1       7.036   4.454  17.220  0.00  0.00    +0.000 C 
ATOM      9  C   UNL     1       6.507   5.685  17.974  0.00  0.00    +0.000 C 
ATOM     10  C   UNL     1       6.825   5.593  19.476  0.00  0.00    +0.000 C 
ATOM     11  C   UNL     1       7.219   6.954  17.432  0.00  0.00    +0.000 C 
ATOM     12  C   UNL     1       4.985   5.882  17.837  0.00  0.00    +0.000 C 
ATOM     13  O   UNL     1       4.530   7.036  17.839  0.00  0.00    +0.000 OA
ENDROOT
BRANCH   8  14
ATOM     14  O   UNL     1       8.467   4.403  17.297  0.00  0.00    +0.000 OA
ATOM     15  H   UNL     1       8.729   5.033  18.000  0.00  0.00    +0.000 HD
ENDBRANCH   8  14
TORSDOF 1
ENDMDL
MODEL 6
REMARK VINA RESULT:      -6.0      1.668      2.641
REMARK  Name = 
REMARK  5 active torsions:
REMARK  status: ('A' for Active; 'I' for Inactive)
REMARK    1  A    between atoms: C_1  and  C_2
REMARK    2  A    between atoms: C_2  and  C_3
REMARK    3  A    between atoms: C_8  and  O_9
REMARK    4  A    between atoms: C_10  and  C_11
REMARK    5  A    between atoms: C_10  and  C_12
REMARK                            x       y       z     vdW  Elec       q    Type
REMARK                         _______ _______ _______ _____ _____    ______ ____
ROOT
ATOM      1  C   UNL     1       4.066   6.462  18.437  0.00  0.00    +0.000 C 
ATOM      2  C   UNL     1       2.659   5.873  18.608  0.00  0.00    +0.000 C 
ATOM      3  C   UNL     1       1.711   6.895  17.921  0.00  0.00    +0.000 C 
ATOM      4  C   UNL     1       2.261   5.772  20.070  0.00  0.00    +0.000 C 
ATOM      5  C   UNL     1       2.382   4.738  20.917  0.00  0.00    +0.000 C 
ATOM      6  C   UNL     1       3.047   3.434  20.659  0.00  0.00    +0.000 C 
ATOM      7  O   UNL     1       2.834   2.491  21.426  0.00  0.00    +0.000 OA
ATOM      8  C   UNL     1       4.045   3.302  19.508  0.00  0.00    +0.000 C 
ATOM      9  C   UNL     1       3.369   3.311  18.127  0.00  0.00    +0.000 C 
ATOM     10  C   UNL     1       4.413   3.359  17.000  0.00  0.00    +0.000 C 
ATOM     11  C   UNL     1       2.564   1.995  17.950  0.00  0.00    +0.000 C 
ATOM     12  C   UNL     1       2.413   4.501  17.919  0.00  0.00    +0.000 C 
ATOM     13  O   UNL     1       1.411   4.345  17.205  0.00  0.00    +0.000 OA
ENDROOT
BRANCH   8  14
ATOM     14  O   UNL     1       4.824   2.109  19.670  0.00  0.00    +0.000 OA
ATOM     15  H   UNL     1       5.660   2.381  20.102  0.00  0.00    +0.000 HD
ENDBRANCH   8  14
TORSDOF 1
ENDMDL
MODEL 7
REMARK VINA RESULT:      -6.0      1.768      3.823
REMARK  Name = 
REMARK  5 active torsions:
REMARK  status: ('A' for Active; 'I' for Inactive)
REMARK    1  A    between atoms: C_1  and  C_2
REMARK    2  A    between atoms: C_2  and  C_3
REMARK    3  A    between atoms: C_8  and  O_9
REMARK    4  A    between atoms: C_10  and  C_11
REMARK    5  A    between atoms: C_10  and  C_12
REMARK                            x       y       z     vdW  Elec       q    Type
REMARK                         _______ _______ _______ _____ _____    ______ ____
ROOT
ATOM      1  C   UNL     1       3.902   2.883  17.373  0.00  0.00    +0.000 C 
ATOM      2  C   UNL     1       4.245   3.768  18.579  0.00  0.00    +0.000 C 
ATOM      3  C   UNL     1       4.371   2.784  19.776  0.00  0.00    +0.000 C 
ATOM      4  C   UNL     1       3.132   4.752  18.895  0.00  0.00    +0.000 C 
ATOM      5  C   UNL     1       2.976   6.022  18.490  0.00  0.00    +0.000 C 
ATOM      6  C   UNL     1       3.821   6.771  17.524  0.00  0.00    +0.000 C 
ATOM      7  O   UNL     1       3.723   8.000  17.469  0.00  0.00    +0.000 OA
ATOM      8  C   UNL     1       4.734   6.011  16.560  0.00  0.00    +0.000 C 
ATOM      9  C   UNL     1       5.955   5.390  17.258  0.00  0.00    +0.000 C 
ATOM     10  C   UNL     1       6.744   4.488  16.294  0.00  0.00    +0.000 C 
ATOM     11  C   UNL     1       6.912   6.527  17.708  0.00  0.00    +0.000 C 
ATOM     12  C   UNL     1       5.592   4.539  18.491  0.00  0.00    +0.000 C 
ATOM     13  O   UNL     1       6.388   4.495  19.440  0.00  0.00    +0.000 OA
ENDROOT
BRANCH   8  14
ATOM     14  O   UNL     1       5.156   6.878  15.500  0.00  0.00    +0.000 OA
ATOM     15  H   UNL     1       6.014   7.260  15.780  0.00  0.00    +0.000 HD
ENDBRANCH   8  14
TORSDOF 1
ENDMDL
MODEL 8
REMARK VINA RESULT:      -6.0      1.925      3.812
REMARK  Name = 
REMARK  5 active torsions:
REMARK  status: ('A' for Active; 'I' for Inactive)
REMARK    1  A    between atoms: C_1  and  C_2
REMARK    2  A    between atoms: C_2  and  C_3
REMARK    3  A    between atoms: C_8  and  O_9
REMARK    4  A    between atoms: C_10  and  C_11
REMARK    5  A    between atoms: C_10  and  C_12
REMARK                            x       y       z     vdW  Elec       q    Type
REMARK                         _______ _______ _______ _____ _____    ______ ____
ROOT
ATOM      1  C   UNL     1       5.966   4.481  18.147  0.00  0.00    +0.000 C 
ATOM      2  C   UNL     1       4.746   4.738  17.251  0.00  0.00    +0.000 C 
ATOM      3  C   UNL     1       5.141   4.161  15.862  0.00  0.00    +0.000 C 
ATOM      4  C   UNL     1       4.470   6.222  17.081  0.00  0.00    +0.000 C 
ATOM      5  C   UNL     1       3.647   7.021  17.779  0.00  0.00    +0.000 C 
ATOM      6  C   UNL     1       2.858   6.668  18.988  0.00  0.00    +0.000 C 
ATOM      7  O   UNL     1       1.943   7.415  19.345  0.00  0.00    +0.000 OA
ATOM      8  C   UNL     1       3.239   5.440  19.816  0.00  0.00    +0.000 C 
ATOM      9  C   UNL     1       2.893   4.116  19.115  0.00  0.00    +0.000 C 
ATOM     10  C   UNL     1       3.454   2.914  19.894  0.00  0.00    +0.000 C 
ATOM     11  C   UNL     1       1.349   3.955  19.074  0.00  0.00    +0.000 C 
ATOM     12  C   UNL     1       3.433   4.023  17.675  0.00  0.00    +0.000 C 
ATOM     13  O   UNL     1       2.784   3.382  16.834  0.00  0.00    +0.000 OA
ENDROOT
BRANCH   8  14
ATOM     14  O   UNL     1       2.608   5.500  21.100  0.00  0.00    +0.000 OA
ATOM     15  H   UNL     1       2.098   4.670  21.198  0.00  0.00    +0.000 HD
ENDBRANCH   8  14
TORSDOF 1
ENDMDL
MODEL 9
REMARK VINA RESULT:      -6.0      2.035      3.949
REMARK  Name = 
REMARK  5 active torsions:
REMARK  status: ('A' for Active; 'I' for Inactive)
REMARK    1  A    between atoms: C_1  and  C_2
REMARK    2  A    between atoms: C_2  and  C_3
REMARK    3  A    between atoms: C_8  and  O_9
REMARK    4  A    between atoms: C_10  and  C_11
REMARK    5  A    between atoms: C_10  and  C_12
REMARK                            x       y       z     vdW  Elec       q    Type
REMARK                         _______ _______ _______ _____ _____    ______ ____
ROOT
ATOM      1  C   UNL     1       0.644   2.691  19.423  0.00  0.00    +0.000 C 
ATOM      2  C   UNL     1       1.629   3.271  20.447  0.00  0.00    +0.000 C 
ATOM      3  C   UNL     1       1.303   2.537  21.778  0.00  0.00    +0.000 C 
ATOM      4  C   UNL     1       1.410   4.758  20.665  0.00  0.00    +0.000 C 
ATOM      5  C   UNL     1       2.004   5.804  20.070  0.00  0.00    +0.000 C 
ATOM      6  C   UNL     1       2.977   5.769  18.946  0.00  0.00    +0.000 C 
ATOM      7  O   UNL     1       3.642   6.779  18.699  0.00  0.00    +0.000 OA
ATOM      8  C   UNL     1       3.080   4.523  18.066  0.00  0.00    +0.000 C 
ATOM      9  C   UNL     1       3.754   3.341  18.780  0.00  0.00    +0.000 C 
ATOM     10  C   UNL     1       3.675   2.062  17.930  0.00  0.00    +0.000 C 
ATOM     11  C   UNL     1       5.259   3.664  18.982  0.00  0.00    +0.000 C 
ATOM     12  C   UNL     1       3.135   3.018  20.154  0.00  0.00    +0.000 C 
ATOM     13  O   UNL     1       3.867   2.572  21.049  0.00  0.00    +0.000 OA
ENDROOT
BRANCH   8  14
ATOM     14  O   UNL     1       3.781   4.836  16.856  0.00  0.00    +0.000 OA
ATOM     15  H   UNL     1       3.135   4.736  16.127  0.00  0.00    +0.000 HD
ENDBRANCH   8  14
TORSDOF 1
ENDMDL
