MODEL 1
REMARK VINA RESULT:      -8.2      0.000      0.000
REMARK  Name = 
REMARK  7 active torsions:
REMARK  status: ('A' for Active; 'I' for Inactive)
REMARK    1  A    between atoms: C_2  and  C_20
REMARK    2  A    between atoms: N_3  and  C_4
REMARK    3  A    between atoms: C_4  and  C_5
REMARK    4  A    between atoms: C_5  and  C_6
REMARK    5  A    between atoms: C_6  and  N_7
REMARK    6  A    between atoms: N_10  and  C_11
REMARK    7  A    between atoms: N_25  and  C_26
REMARK                            x       y       z     vdW  Elec       q    Type
REMARK                         _______ _______ _______ _____ _____    ______ ____
ROOT
ATOM      1  O   UNL     1       2.323   7.399  19.900  0.00  0.00    +0.000 OA
ATOM      2  C   UNL     1       2.446   7.195  18.689  0.00  0.00    +0.000 C 
ATOM      3  N   UNL     1       2.403   8.201  17.748  0.00  0.00    +0.000 N 
ATOM      4  H   UNL     1       2.657   7.974  16.792  0.00  0.00    +0.000 HD
ENDROOT
BRANCH   2   5
ATOM      5  C   UNL     1       2.813   5.813  18.144  0.00  0.00    +0.000 C 
ATOM      6  C   UNL     1       2.057   4.742  18.916  0.00  0.00    +0.000 C 
ATOM      7  C   UNL     1       2.984   3.551  18.884  0.00  0.00    +0.000 C 
ATOM      8  C   UNL     1       4.346   4.184  18.858  0.00  0.00    +0.000 C 
ATOM      9  O   UNL     1       5.350   3.577  19.174  0.00  0.00    +0.000 OA
ATOM     10  N   UNL     1       4.222   5.476  18.352  0.00  0.00    +0.000 N 
BRANCH  10  11
ATOM     11  C   UNL     1       5.279   6.313  17.742  0.00  0.00    +0.000 C 
ATOM     12  C   UNL     1       6.715   5.896  18.087  0.00  0.00    +0.000 C 
ATOM     13  C   UNL     1       7.219   4.688  17.316  0.00  0.00    +0.000 C 
ATOM     14  C   UNL     1       6.950   4.779  15.814  0.00  0.00    +0.000 C 
ATOM     15  C   UNL     1       5.568   5.296  15.417  0.00  0.00    +0.000 C 
ATOM     16  C   UNL     1       5.116   6.500  16.230  0.00  0.00    +0.000 C 
ENDBRANCH  10  11
ENDBRANCH   2   5
BRANCH   3  17
ATOM     17  C   UNL     1       2.018   9.547  18.083  0.00  0.00    +0.000 C 
BRANCH  17  18
ATOM     18  C   UNL     1       0.512   9.734  17.943  0.00  0.00    +0.000 C 
BRANCH  18  19
ATOM     19  C   UNL     1      -0.153  10.018  19.293  0.00  0.00    +0.000 C 
BRANCH  19  20
ATOM     20  N   UNL     1       0.331  11.260  19.913  0.00  0.00    +0.000 NA
ATOM     21  C   UNL     1      -0.618  12.392  19.749  0.00  0.00    +0.000 C 
ATOM     22  C   UNL     1      -1.939  12.230  20.526  0.00  0.00    +0.000 C 
ATOM     23  N   UNL     1      -1.703  11.936  21.947  0.00  0.00    +0.000 N 
ATOM     24  C   UNL     1      -0.675  10.916  22.240  0.00  0.00    +0.000 C 
ATOM     25  C   UNL     1       0.586  11.097  21.361  0.00  0.00    +0.000 C 
BRANCH  23  26
ATOM     26  C   UNL     1      -2.042  12.849  22.937  0.00  0.00    +0.000 A 
ATOM     27  C   UNL     1      -3.267  12.704  23.614  0.00  0.00    +0.000 A 
ATOM     28  C   UNL     1      -3.668  13.594  24.616  0.00  0.00    +0.000 A 
ATOM     29  C   UNL     1      -2.853  14.663  24.967  0.00  0.00    +0.000 A 
ATOM     30  C   UNL     1      -1.642  14.846  24.304  0.00  0.00    +0.000 A 
ATOM     31  C   UNL     1      -1.251  13.953  23.306  0.00  0.00    +0.000 A 
ATOM     32  F   UNL     1      -0.055  14.167  22.733  0.00  0.00    +0.000 F 
ENDBRANCH  23  26
ENDBRANCH  19  20
ENDBRANCH  18  19
ENDBRANCH  17  18
ENDBRANCH   3  17
TORSDOF 7
ENDMDL
MODEL 2
REMARK VINA RESULT:      -8.1      0.845      1.204
REMARK  Name = 
REMARK  7 active torsions:
REMARK  status: ('A' for Active; 'I' for Inactive)
REMARK    1  A    between atoms: C_2  and  C_20
REMARK    2  A    between atoms: N_3  and  C_4
REMARK    3  A    between atoms: C_4  and  C_5
REMARK    4  A    between atoms: C_5  and  C_6
REMARK    5  A    between atoms: C_6  and  N_7
REMARK    6  A    between atoms: N_10  and  C_11
REMARK    7  A    between atoms: N_25  and  C_26
REMARK                            x       y       z     vdW  Elec       q    Type
REMARK                         _______ _______ _______ _____ _____    ______ ____
ROOT
ATOM      1  O   UNL     1       2.326   7.410  19.893  0.00  0.00    +0.000 OA
ATOM      2  C   UNL     1       2.443   7.194  18.685  0.00  0.00    +0.000 C 
ATOM      3  N   UNL     1       2.382   8.189  17.732  0.00  0.00    +0.000 N 
ATOM      4  H   UNL     1       2.632   7.955  16.777  0.00  0.00    +0.000 HD
ENDROOT
BRANCH   2   5
ATOM      5  C   UNL     1       2.821   5.810  18.152  0.00  0.00    +0.000 C 
ATOM      6  C   UNL     1       2.078   4.740  18.937  0.00  0.00    +0.000 C 
ATOM      7  C   UNL     1       3.017   3.558  18.914  0.00  0.00    +0.000 C 
ATOM      8  C   UNL     1       4.372   4.203  18.877  0.00  0.00    +0.000 C 
ATOM      9  O   UNL     1       5.383   3.609  19.196  0.00  0.00    +0.000 OA
ATOM     10  N   UNL     1       4.234   5.489  18.359  0.00  0.00    +0.000 N 
BRANCH  10  11
ATOM     11  C   UNL     1       5.281   6.330  17.736  0.00  0.00    +0.000 C 
ATOM     12  C   UNL     1       6.721   5.950  18.105  0.00  0.00    +0.000 C 
ATOM     13  C   UNL     1       7.255   4.732  17.370  0.00  0.00    +0.000 C 
ATOM     14  C   UNL     1       6.998   4.779  15.863  0.00  0.00    +0.000 C 
ATOM     15  C   UNL     1       5.610   5.259  15.441  0.00  0.00    +0.000 C 
ATOM     16  C   UNL     1       5.128   6.475  16.219  0.00  0.00    +0.000 C 
ENDBRANCH  10  11
ENDBRANCH   2   5
BRANCH   3  17
ATOM     17  C   UNL     1       1.985   9.535  18.055  0.00  0.00    +0.000 C 
BRANCH  17  18
ATOM     18  C   UNL     1       0.471   9.690  17.973  0.00  0.00    +0.000 C 
BRANCH  18  19
ATOM     19  C   UNL     1      -0.146   9.967  19.347  0.00  0.00    +0.000 C 
BRANCH  19  20
ATOM     20  N   UNL     1       0.451  11.135  20.012  0.00  0.00    +0.000 NA
ATOM     21  C   UNL     1      -0.332  12.380  19.799  0.00  0.00    +0.000 C 
ATOM     22  C   UNL     1      -1.711  12.389  20.486  0.00  0.00    +0.000 C 
ATOM     23  N   UNL     1      -1.609  12.062  21.916  0.00  0.00    +0.000 N 
ATOM     24  C   UNL     1      -0.743  10.917  22.264  0.00  0.00    +0.000 C 
ATOM     25  C   UNL     1       0.586  10.936  21.471  0.00  0.00    +0.000 C 
BRANCH  23  26
ATOM     26  C   UNL     1      -1.893  13.009  22.892  0.00  0.00    +0.000 A 
ATOM     27  C   UNL     1      -0.970  14.044  23.133  0.00  0.00    +0.000 A 
ATOM     28  C   UNL     1      -1.195  15.024  24.105  0.00  0.00    +0.000 A 
ATOM     29  C   UNL     1      -2.354  14.993  24.872  0.00  0.00    +0.000 A 
ATOM     30  C   UNL     1      -3.280  13.973  24.671  0.00  0.00    +0.000 A 
ATOM     31  C   UNL     1      -3.046  13.000  23.699  0.00  0.00    +0.000 A 
ATOM     32  F   UNL     1      -3.997  12.066  23.532  0.00  0.00    +0.000 F 
ENDBRANCH  23  26
ENDBRANCH  19  20
ENDBRANCH  18  19
ENDBRANCH  17  18
ENDBRANCH   3  17
TORSDOF 7
ENDMDL
MODEL 3
REMARK VINA RESULT:      -8.0      7.027      9.446
REMARK  Name = 
REMARK  7 active torsions:
REMARK  status: ('A' for Active; 'I' for Inactive)
REMARK    1  A    between atoms: C_2  and  C_20
REMARK    2  A    between atoms: N_3  and  C_4
REMARK    3  A    between atoms: C_4  and  C_5
REMARK    4  A    between atoms: C_5  and  C_6
REMARK    5  A    between atoms: C_6  and  N_7
REMARK    6  A    between atoms: N_10  and  C_11
REMARK    7  A    between atoms: N_25  and  C_26
REMARK                            x       y       z     vdW  Elec       q    Type
REMARK                         _______ _______ _______ _____ _____    ______ ____
ROOT
ATOM      1  O   UNL     1       8.068   5.259  19.861  0.00  0.00    +0.000 OA
ATOM      2  C   UNL     1       7.647   5.517  18.730  0.00  0.00    +0.000 C 
ATOM      3  N   UNL     1       7.834   6.738  18.118  0.00  0.00    +0.000 N 
ATOM      4  H   UNL     1       7.589   6.825  17.137  0.00  0.00    +0.000 HD
ENDROOT
BRANCH   2   5
ATOM      5  C   UNL     1       7.012   4.440  17.848  0.00  0.00    +0.000 C 
ATOM      6  C   UNL     1       7.327   4.727  16.387  0.00  0.00    +0.000 C 
ATOM      7  C   UNL     1       6.131   4.178  15.646  0.00  0.00    +0.000 C 
ATOM      8  C   UNL     1       5.009   4.373  16.625  0.00  0.00    +0.000 C 
ATOM      9  O   UNL     1       3.843   4.381  16.283  0.00  0.00    +0.000 OA
ATOM     10  N   UNL     1       5.550   4.448  17.906  0.00  0.00    +0.000 N 
BRANCH  10  11
ATOM     11  C   UNL     1       4.862   4.204  19.194  0.00  0.00    +0.000 C 
ATOM     12  C   UNL     1       3.796   5.243  19.565  0.00  0.00    +0.000 C 
ATOM     13  C   UNL     1       2.479   5.083  18.825  0.00  0.00    +0.000 C 
ATOM     14  C   UNL     1       1.961   3.644  18.826  0.00  0.00    +0.000 C 
ATOM     15  C   UNL     1       3.008   2.562  18.570  0.00  0.00    +0.000 C 
ATOM     16  C   UNL     1       4.306   2.783  19.332  0.00  0.00    +0.000 C 
ENDBRANCH  10  11
ENDBRANCH   2   5
BRANCH   3  17
ATOM     17  C   UNL     1       8.365   7.875  18.824  0.00  0.00    +0.000 C 
BRANCH  17  18
ATOM     18  C   UNL     1       8.282   9.134  17.969  0.00  0.00    +0.000 C 
BRANCH  18  19
ATOM     19  C   UNL     1       8.969  10.325  18.643  0.00  0.00    +0.000 C 
BRANCH  19  20
ATOM     20  N   UNL     1       9.455  11.321  17.677  0.00  0.00    +0.000 NA
ATOM     21  C   UNL     1       8.730  12.615  17.771  0.00  0.00    +0.000 C 
ATOM     22  C   UNL     1       8.988  13.394  19.075  0.00  0.00    +0.000 C 
ATOM     23  N   UNL     1      10.426  13.571  19.328  0.00  0.00    +0.000 N 
ATOM     24  C   UNL     1      11.274  12.377  19.133  0.00  0.00    +0.000 C 
ATOM     25  C   UNL     1      10.897  11.604  17.847  0.00  0.00    +0.000 C 
BRANCH  23  26
ATOM     26  C   UNL     1      11.015  14.827  19.280  0.00  0.00    +0.000 A 
ATOM     27  C   UNL     1      11.318  15.490  20.484  0.00  0.00    +0.000 A 
ATOM     28  C   UNL     1      11.905  16.759  20.503  0.00  0.00    +0.000 A 
ATOM     29  C   UNL     1      12.205  17.407  19.310  0.00  0.00    +0.000 A 
ATOM     30  C   UNL     1      11.903  16.787  18.101  0.00  0.00    +0.000 A 
ATOM     31  C   UNL     1      11.316  15.521  18.093  0.00  0.00    +0.000 A 
ATOM     32  F   UNL     1      11.085  14.965  16.892  0.00  0.00    +0.000 F 
ENDBRANCH  23  26
ENDBRANCH  19  20
ENDBRANCH  18  19
ENDBRANCH  17  18
ENDBRANCH   3  17
TORSDOF 7
ENDMDL
MODEL 4
REMARK VINA RESULT:      -8.0      0.972      1.579
REMARK  Name = 
REMARK  7 active torsions:
REMARK  status: ('A' for Active; 'I' for Inactive)
REMARK    1  A    between atoms: C_2  and  C_20
REMARK    2  A    between atoms: N_3  and  C_4
REMARK    3  A    between atoms: C_4  and  C_5
REMARK    4  A    between atoms: C_5  and  C_6
REMARK    5  A    between atoms: C_6  and  N_7
REMARK    6  A    between atoms: N_10  and  C_11
REMARK    7  A    between atoms: N_25  and  C_26
REMARK                            x       y       z     vdW  Elec       q    Type
REMARK                         _______ _______ _______ _____ _____    ______ ____
ROOT
ATOM      1  O   UNL     1       2.475   7.427  19.823  0.00  0.00    +0.000 OA
ATOM      2  C   UNL     1       2.521   7.217  18.608  0.00  0.00    +0.000 C 
ATOM      3  N   UNL     1       2.405   8.217  17.666  0.00  0.00    +0.000 N 
ATOM      4  H   UNL     1       2.599   7.987  16.697  0.00  0.00    +0.000 HD
ENDROOT
BRANCH   2   5
ATOM      5  C   UNL     1       2.867   5.835  18.048  0.00  0.00    +0.000 C 
ATOM      6  C   UNL     1       2.044   4.774  18.762  0.00  0.00    +0.000 C 
ATOM      7  C   UNL     1       2.933   3.554  18.743  0.00  0.00    +0.000 C 
ATOM      8  C   UNL     1       4.314   4.142  18.789  0.00  0.00    +0.000 C 
ATOM      9  O   UNL     1       5.284   3.496  19.134  0.00  0.00    +0.000 OA
ATOM     10  N   UNL     1       4.253   5.448  18.309  0.00  0.00    +0.000 N 
BRANCH  10  11
ATOM     11  C   UNL     1       5.362   6.263  17.763  0.00  0.00    +0.000 C 
ATOM     12  C   UNL     1       6.768   5.724  18.060  0.00  0.00    +0.000 C 
ATOM     13  C   UNL     1       7.189   4.556  17.184  0.00  0.00    +0.000 C 
ATOM     14  C   UNL     1       6.923   4.793  15.697  0.00  0.00    +0.000 C 
ATOM     15  C   UNL     1       5.577   5.432  15.358  0.00  0.00    +0.000 C 
ATOM     16  C   UNL     1       5.208   6.589  16.274  0.00  0.00    +0.000 C 
ENDBRANCH  10  11
ENDBRANCH   2   5
BRANCH   3  17
ATOM     17  C   UNL     1       2.028   9.561  18.018  0.00  0.00    +0.000 C 
BRANCH  17  18
ATOM     18  C   UNL     1       0.512   9.708  18.057  0.00  0.00    +0.000 C 
BRANCH  18  19
ATOM     19  C   UNL     1       0.086  11.024  18.714  0.00  0.00    +0.000 C 
BRANCH  19  20
ATOM     20  N   UNL     1      -1.128  10.884  19.532  0.00  0.00    +0.000 NA
ATOM     21  C   UNL     1      -0.829  10.567  20.953  0.00  0.00    +0.000 C 
ATOM     22  C   UNL     1      -0.144  11.710  21.728  0.00  0.00    +0.000 C 
ATOM     23  N   UNL     1      -0.890  12.971  21.609  0.00  0.00    +0.000 N 
ATOM     24  C   UNL     1      -1.359  13.327  20.255  0.00  0.00    +0.000 C 
ATOM     25  C   UNL     1      -1.958  12.108  19.512  0.00  0.00    +0.000 C 
BRANCH  23  26
ATOM     26  C   UNL     1      -1.520  13.540  22.708  0.00  0.00    +0.000 A 
ATOM     27  C   UNL     1      -0.896  14.605  23.383  0.00  0.00    +0.000 A 
ATOM     28  C   UNL     1      -1.475  15.216  24.499  0.00  0.00    +0.000 A 
ATOM     29  C   UNL     1      -2.703  14.772  24.978  0.00  0.00    +0.000 A 
ATOM     30  C   UNL     1      -3.340  13.709  24.345  0.00  0.00    +0.000 A 
ATOM     31  C   UNL     1      -2.753  13.106  23.232  0.00  0.00    +0.000 A 
ATOM     32  F   UNL     1      -3.438  12.111  22.646  0.00  0.00    +0.000 F 
ENDBRANCH  23  26
ENDBRANCH  19  20
ENDBRANCH  18  19
ENDBRANCH  17  18
ENDBRANCH   3  17
TORSDOF 7
ENDMDL
MODEL 5
REMARK VINA RESULT:      -7.9      7.003     10.416
REMARK  Name = 
REMARK  7 active torsions:
REMARK  status: ('A' for Active; 'I' for Inactive)
REMARK    1  A    between atoms: C_2  and  C_20
REMARK    2  A    between atoms: N_3  and  C_4
REMARK    3  A    between atoms: C_4  and  C_5
REMARK    4  A    between atoms: C_5  and  C_6
REMARK    5  A    between atoms: C_6  and  N_7
REMARK    6  A    between atoms: N_10  and  C_11
REMARK    7  A    between atoms: N_25  and  C_26
REMARK                            x       y       z     vdW  Elec       q    Type
REMARK                         _______ _______ _______ _____ _____    ______ ____
ROOT
ATOM      1  O   UNL     1      10.329  10.932  17.499  0.00  0.00    +0.000 OA
ATOM      2  C   UNL     1       9.635  10.927  18.519  0.00  0.00    +0.000 C 
ATOM      3  N   UNL     1       8.620  10.019  18.734  0.00  0.00    +0.000 N 
ATOM      4  H   UNL     1       8.194   9.986  19.654  0.00  0.00    +0.000 HD
ENDROOT
BRANCH   2   5
ATOM      5  C   UNL     1       9.948  11.842  19.705  0.00  0.00    +0.000 C 
ATOM      6  C   UNL     1       9.496  11.176  20.996  0.00  0.00    +0.000 C 
ATOM      7  C   UNL     1       9.124  12.336  21.889  0.00  0.00    +0.000 C 
ATOM      8  C   UNL     1       8.639  13.371  20.915  0.00  0.00    +0.000 C 
ATOM      9  O   UNL     1       7.937  14.303  21.254  0.00  0.00    +0.000 OA
ATOM     10  N   UNL     1       9.196  13.097  19.668  0.00  0.00    +0.000 N 
BRANCH  10  11
ATOM     11  C   UNL     1       9.374  14.031  18.533  0.00  0.00    +0.000 C 
ATOM     12  C   UNL     1       8.074  14.614  17.964  0.00  0.00    +0.000 C 
ATOM     13  C   UNL     1       7.472  15.733  18.798  0.00  0.00    +0.000 C 
ATOM     14  C   UNL     1       8.494  16.794  19.206  0.00  0.00    +0.000 C 
ATOM     15  C   UNL     1       9.849  16.265  19.676  0.00  0.00    +0.000 C 
ATOM     16  C   UNL     1      10.394  15.141  18.808  0.00  0.00    +0.000 C 
ENDBRANCH  10  11
ENDBRANCH   2   5
BRANCH   3  17
ATOM     17  C   UNL     1       8.162   9.124  17.703  0.00  0.00    +0.000 C 
BRANCH  17  18
ATOM     18  C   UNL     1       8.120   7.687  18.209  0.00  0.00    +0.000 C 
BRANCH  18  19
ATOM     19  C   UNL     1       7.379   6.765  17.237  0.00  0.00    +0.000 C 
BRANCH  19  20
ATOM     20  N   UNL     1       7.183   5.411  17.776  0.00  0.00    +0.000 NA
ATOM     21  C   UNL     1       6.424   5.406  19.054  0.00  0.00    +0.000 C 
ATOM     22  C   UNL     1       4.949   5.830  18.919  0.00  0.00    +0.000 C 
ATOM     23  N   UNL     1       4.252   5.052  17.883  0.00  0.00    +0.000 N 
ATOM     24  C   UNL     1       4.973   4.874  16.606  0.00  0.00    +0.000 C 
ATOM     25  C   UNL     1       6.466   4.532  16.828  0.00  0.00    +0.000 C 
BRANCH  23  26
ATOM     26  C   UNL     1       3.241   4.159  18.213  0.00  0.00    +0.000 A 
ATOM     27  C   UNL     1       3.332   2.826  17.774  0.00  0.00    +0.000 A 
ATOM     28  C   UNL     1       2.345   1.880  18.068  0.00  0.00    +0.000 A 
ATOM     29  C   UNL     1       1.228   2.246  18.810  0.00  0.00    +0.000 A 
ATOM     30  C   UNL     1       1.097   3.562  19.246  0.00  0.00    +0.000 A 
ATOM     31  C   UNL     1       2.088   4.498  18.947  0.00  0.00    +0.000 A 
ATOM     32  F   UNL     1       1.918   5.740  19.429  0.00  0.00    +0.000 F 
ENDBRANCH  23  26
ENDBRANCH  19  20
ENDBRANCH  18  19
ENDBRANCH  17  18
ENDBRANCH   3  17
TORSDOF 7
ENDMDL
MODEL 6
REMARK VINA RESULT:      -7.9      0.640      1.109
REMARK  Name = 
REMARK  7 active torsions:
REMARK  status: ('A' for Active; 'I' for Inactive)
REMARK    1  A    between atoms: C_2  and  C_20
REMARK    2  A    between atoms: N_3  and  C_4
REMARK    3  A    between atoms: C_4  and  C_5
REMARK    4  A    between atoms: C_5  and  C_6
REMARK    5  A    between atoms: C_6  and  N_7
REMARK    6  A    between atoms: N_10  and  C_11
REMARK    7  A    between atoms: N_25  and  C_26
REMARK                            x       y       z     vdW  Elec       q    Type
REMARK                         _______ _______ _______ _____ _____    ______ ____
ROOT
ATOM      1  O   UNL     1       2.459   7.452  19.812  0.00  0.00    +0.000 OA
ATOM      2  C   UNL     1       2.578   7.193  18.612  0.00  0.00    +0.000 C 
ATOM      3  N   UNL     1       2.525   8.156  17.626  0.00  0.00    +0.000 N 
ATOM      4  H   UNL     1       2.776   7.887  16.680  0.00  0.00    +0.000 HD
ENDROOT
BRANCH   2   5
ATOM      5  C   UNL     1       2.949   5.790  18.128  0.00  0.00    +0.000 C 
ATOM      6  C   UNL     1       2.177   4.753  18.929  0.00  0.00    +0.000 C 
ATOM      7  C   UNL     1       3.100   3.559  18.960  0.00  0.00    +0.000 C 
ATOM      8  C   UNL     1       4.465   4.186  18.932  0.00  0.00    +0.000 C 
ATOM      9  O   UNL     1       5.461   3.590  19.289  0.00  0.00    +0.000 OA
ATOM     10  N   UNL     1       4.353   5.457  18.374  0.00  0.00    +0.000 N 
BRANCH  10  11
ATOM     11  C   UNL     1       5.423   6.267  17.748  0.00  0.00    +0.000 C 
ATOM     12  C   UNL     1       6.851   5.781  18.030  0.00  0.00    +0.000 C 
ATOM     13  C   UNL     1       7.276   4.575  17.208  0.00  0.00    +0.000 C 
ATOM     14  C   UNL     1       6.958   4.721  15.719  0.00  0.00    +0.000 C 
ATOM     15  C   UNL     1       5.586   5.307  15.387  0.00  0.00    +0.000 C 
ATOM     16  C   UNL     1       5.215   6.505  16.249  0.00  0.00    +0.000 C 
ENDBRANCH  10  11
ENDBRANCH   2   5
BRANCH   3  17
ATOM     17  C   UNL     1       2.135   9.514  17.901  0.00  0.00    +0.000 C 
BRANCH  17  18
ATOM     18  C   UNL     1       0.619   9.638  17.985  0.00  0.00    +0.000 C 
BRANCH  18  19
ATOM     19  C   UNL     1       0.194  10.870  18.789  0.00  0.00    +0.000 C 
BRANCH  19  20
ATOM     20  N   UNL     1      -1.037  10.646  19.562  0.00  0.00    +0.000 NA
ATOM     21  C   UNL     1      -0.769  10.340  20.991  0.00  0.00    +0.000 C 
ATOM     22  C   UNL     1      -0.188  11.518  21.796  0.00  0.00    +0.000 C 
ATOM     23  N   UNL     1      -1.008  12.730  21.656  0.00  0.00    +0.000 N 
ATOM     24  C   UNL     1      -1.451  13.064  20.287  0.00  0.00    +0.000 C 
ATOM     25  C   UNL     1      -1.943  11.814  19.518  0.00  0.00    +0.000 C 
BRANCH  23  26
ATOM     26  C   UNL     1      -1.713  13.250  22.734  0.00  0.00    +0.000 A 
ATOM     27  C   UNL     1      -2.945  12.671  23.092  0.00  0.00    +0.000 A 
ATOM     28  C   UNL     1      -3.705  13.152  24.163  0.00  0.00    +0.000 A 
ATOM     29  C   UNL     1      -3.253  14.234  24.909  0.00  0.00    +0.000 A 
ATOM     30  C   UNL     1      -2.046  14.841  24.571  0.00  0.00    +0.000 A 
ATOM     31  C   UNL     1      -1.295  14.354  23.500  0.00  0.00    +0.000 A 
ATOM     32  F   UNL     1      -0.124  14.962  23.252  0.00  0.00    +0.000 F 
ENDBRANCH  23  26
ENDBRANCH  19  20
ENDBRANCH  18  19
ENDBRANCH  17  18
ENDBRANCH   3  17
TORSDOF 7
ENDMDL
MODEL 7
REMARK VINA RESULT:      -7.9      7.012      9.261
REMARK  Name = 
REMARK  7 active torsions:
REMARK  status: ('A' for Active; 'I' for Inactive)
REMARK    1  A    between atoms: C_2  and  C_20
REMARK    2  A    between atoms: N_3  and  C_4
REMARK    3  A    between atoms: C_4  and  C_5
REMARK    4  A    between atoms: C_5  and  C_6
REMARK    5  A    between atoms: C_6  and  N_7
REMARK    6  A    between atoms: N_10  and  C_11
REMARK    7  A    between atoms: N_25  and  C_26
REMARK                            x       y       z     vdW  Elec       q    Type
REMARK                         _______ _______ _______ _____ _____    ______ ____
ROOT
ATOM      1  O   UNL     1       7.682   5.428  20.145  0.00  0.00    +0.000 OA
ATOM      2  C   UNL     1       7.502   5.591  18.935  0.00  0.00    +0.000 C 
ATOM      3  N   UNL     1       7.905   6.724  18.261  0.00  0.00    +0.000 N 
ATOM      4  H   UNL     1       7.854   6.722  17.247  0.00  0.00    +0.000 HD
ENDROOT
BRANCH   2   5
ATOM      5  C   UNL     1       6.948   4.473  18.050  0.00  0.00    +0.000 C 
ATOM      6  C   UNL     1       7.393   4.693  16.612  0.00  0.00    +0.000 C 
ATOM      7  C   UNL     1       6.268   4.107  15.793  0.00  0.00    +0.000 C 
ATOM      8  C   UNL     1       5.062   4.342  16.657  0.00  0.00    +0.000 C 
ATOM      9  O   UNL     1       3.932   4.330  16.211  0.00  0.00    +0.000 OA
ATOM     10  N   UNL     1       5.486   4.478  17.976  0.00  0.00    +0.000 N 
BRANCH  10  11
ATOM     11  C   UNL     1       4.685   4.291  19.207  0.00  0.00    +0.000 C 
ATOM     12  C   UNL     1       3.486   5.238  19.348  0.00  0.00    +0.000 C 
ATOM     13  C   UNL     1       2.283   4.856  18.501  0.00  0.00    +0.000 C 
ATOM     14  C   UNL     1       1.915   3.376  18.612  0.00  0.00    +0.000 C 
ATOM     15  C   UNL     1       3.087   2.397  18.588  0.00  0.00    +0.000 C 
ATOM     16  C   UNL     1       4.263   2.839  19.448  0.00  0.00    +0.000 C 
ENDBRANCH  10  11
ENDBRANCH   2   5
BRANCH   3  17
ATOM     17  C   UNL     1       8.396   7.891  18.948  0.00  0.00    +0.000 C 
BRANCH  17  18
ATOM     18  C   UNL     1       8.356   9.114  18.040  0.00  0.00    +0.000 C 
BRANCH  18  19
ATOM     19  C   UNL     1       9.057  10.317  18.677  0.00  0.00    +0.000 C 
BRANCH  19  20
ATOM     20  N   UNL     1       9.527  11.292  17.683  0.00  0.00    +0.000 NA
ATOM     21  C   UNL     1       8.675  12.508  17.622  0.00  0.00    +0.000 C 
ATOM     22  C   UNL     1       8.742  13.394  18.881  0.00  0.00    +0.000 C 
ATOM     23  N   UNL     1      10.128  13.733  19.236  0.00  0.00    +0.000 N 
ATOM     24  C   UNL     1      11.101  12.622  19.199  0.00  0.00    +0.000 C 
ATOM     25  C   UNL     1      10.915  11.732  17.946  0.00  0.00    +0.000 C 
BRANCH  23  26
ATOM     26  C   UNL     1      10.595  15.037  19.143  0.00  0.00    +0.000 A 
ATOM     27  C   UNL     1      10.622  15.669  17.885  0.00  0.00    +0.000 A 
ATOM     28  C   UNL     1      11.086  16.978  17.724  0.00  0.00    +0.000 A 
ATOM     29  C   UNL     1      11.545  17.696  18.823  0.00  0.00    +0.000 A 
ATOM     30  C   UNL     1      11.548  17.095  20.079  0.00  0.00    +0.000 A 
ATOM     31  C   UNL     1      11.083  15.788  20.229  0.00  0.00    +0.000 A 
ATOM     32  F   UNL     1      11.080  15.281  21.473  0.00  0.00    +0.000 F 
ENDBRANCH  23  26
ENDBRANCH  19  20
ENDBRANCH  18  19
ENDBRANCH  17  18
ENDBRANCH   3  17
TORSDOF 7
ENDMDL
MODEL 8
REMARK VINA RESULT:      -7.8      2.449      3.484
REMARK  Name = 
REMARK  7 active torsions:
REMARK  status: ('A' for Active; 'I' for Inactive)
REMARK    1  A    between atoms: C_2  and  C_20
REMARK    2  A    between atoms: N_3  and  C_4
REMARK    3  A    between atoms: C_4  and  C_5
REMARK    4  A    between atoms: C_5  and  C_6
REMARK    5  A    between atoms: C_6  and  N_7
REMARK    6  A    between atoms: N_10  and  C_11
REMARK    7  A    between atoms: N_25  and  C_26
REMARK                            x       y       z     vdW  Elec       q    Type
REMARK                         _______ _______ _______ _____ _____    ______ ____
ROOT
ATOM      1  O   UNL     1       2.471   8.182  18.391  0.00  0.00    +0.000 OA
ATOM      2  C   UNL     1       2.410   7.171  19.095  0.00  0.00    +0.000 C 
ATOM      3  N   UNL     1       1.916   7.178  20.382  0.00  0.00    +0.000 N 
ATOM      4  H   UNL     1       1.763   6.287  20.841  0.00  0.00    +0.000 HD
ENDROOT
BRANCH   2   5
ATOM      5  C   UNL     1       2.740   5.785  18.535  0.00  0.00    +0.000 C 
ATOM      6  C   UNL     1       2.049   4.719  19.373  0.00  0.00    +0.000 C 
ATOM      7  C   UNL     1       2.976   3.531  19.280  0.00  0.00    +0.000 C 
ATOM      8  C   UNL     1       4.329   4.168  19.144  0.00  0.00    +0.000 C 
ATOM      9  O   UNL     1       5.357   3.567  19.388  0.00  0.00    +0.000 OA
ATOM     10  N   UNL     1       4.162   5.454  18.638  0.00  0.00    +0.000 N 
BRANCH  10  11
ATOM     11  C   UNL     1       5.166   6.290  17.941  0.00  0.00    +0.000 C 
ATOM     12  C   UNL     1       6.627   5.927  18.237  0.00  0.00    +0.000 C 
ATOM     13  C   UNL     1       7.129   4.698  17.499  0.00  0.00    +0.000 C 
ATOM     14  C   UNL     1       6.789   4.711  16.008  0.00  0.00    +0.000 C 
ATOM     15  C   UNL     1       5.376   5.172  15.654  0.00  0.00    +0.000 C 
ATOM     16  C   UNL     1       4.928   6.401  16.432  0.00  0.00    +0.000 C 
ENDBRANCH  10  11
ENDBRANCH   2   5
BRANCH   3  17
ATOM     17  C   UNL     1       1.611   8.401  21.078  0.00  0.00    +0.000 C 
BRANCH  17  18
ATOM     18  C   UNL     1       0.112   8.678  21.059  0.00  0.00    +0.000 C 
BRANCH  18  19
ATOM     19  C   UNL     1      -0.196  10.104  20.594  0.00  0.00    +0.000 C 
BRANCH  19  20
ATOM     20  N   UNL     1       1.005  10.830  20.155  0.00  0.00    +0.000 NA
ATOM     21  C   UNL     1       0.907  11.309  18.752  0.00  0.00    +0.000 C 
ATOM     22  C   UNL     1      -0.140  12.417  18.531  0.00  0.00    +0.000 C 
ATOM     23  N   UNL     1       0.048  13.538  19.464  0.00  0.00    +0.000 N 
ATOM     24  C   UNL     1       0.291  13.178  20.876  0.00  0.00    +0.000 C 
ATOM     25  C   UNL     1       1.290  12.003  21.009  0.00  0.00    +0.000 C 
BRANCH  23  26
ATOM     26  C   UNL     1       0.446  14.790  19.013  0.00  0.00    +0.000 A 
ATOM     27  C   UNL     1      -0.528  15.779  18.785  0.00  0.00    +0.000 A 
ATOM     28  C   UNL     1      -0.192  17.057  18.326  0.00  0.00    +0.000 A 
ATOM     29  C   UNL     1       1.136  17.381  18.075  0.00  0.00    +0.000 A 
ATOM     30  C   UNL     1       2.124  16.420  18.274  0.00  0.00    +0.000 A 
ATOM     31  C   UNL     1       1.778  15.148  18.732  0.00  0.00    +0.000 A 
ATOM     32  F   UNL     1       2.783  14.281  18.938  0.00  0.00    +0.000 F 
ENDBRANCH  23  26
ENDBRANCH  19  20
ENDBRANCH  18  19
ENDBRANCH  17  18
ENDBRANCH   3  17
TORSDOF 7
ENDMDL
MODEL 9
REMARK VINA RESULT:      -7.8      7.434     11.167
REMARK  Name = 
REMARK  7 active torsions:
REMARK  status: ('A' for Active; 'I' for Inactive)
REMARK    1  A    between atoms: C_2  and  C_20
REMARK    2  A    between atoms: N_3  and  C_4
REMARK    3  A    between atoms: C_4  and  C_5
REMARK    4  A    between atoms: C_5  and  C_6
REMARK    5  A    between atoms: C_6  and  N_7
REMARK    6  A    between atoms: N_10  and  C_11
REMARK    7  A    between atoms: N_25  and  C_26
REMARK                            x       y       z     vdW  Elec       q    Type
REMARK                         _______ _______ _______ _____ _____    ______ ____
ROOT
ATOM      1  O   UNL     1      11.144  11.049  18.909  0.00  0.00    +0.000 OA
ATOM      2  C   UNL     1      10.176  11.551  18.330  0.00  0.00    +0.000 C 
ATOM      3  N   UNL     1       8.960  10.913  18.207  0.00  0.00    +0.000 N 
ATOM      4  H   UNL     1       8.174  11.446  17.849  0.00  0.00    +0.000 HD
ENDROOT
BRANCH   2   5
ATOM      5  C   UNL     1      10.203  12.997  17.832  0.00  0.00    +0.000 C 
ATOM      6  C   UNL     1      11.330  13.169  16.825  0.00  0.00    +0.000 C 
ATOM      7  C   UNL     1      11.755  14.607  17.002  0.00  0.00    +0.000 C 
ATOM      8  C   UNL     1      11.483  14.864  18.456  0.00  0.00    +0.000 C 
ATOM      9  O   UNL     1      12.005  15.779  19.063  0.00  0.00    +0.000 OA
ATOM     10  N   UNL     1      10.520  13.957  18.891  0.00  0.00    +0.000 N 
BRANCH  10  11
ATOM     11  C   UNL     1       9.631  14.077  20.068  0.00  0.00    +0.000 C 
ATOM     12  C   UNL     1       9.975  15.227  21.024  0.00  0.00    +0.000 C 
ATOM     13  C   UNL     1       9.530  16.597  20.541  0.00  0.00    +0.000 C 
ATOM     14  C   UNL     1       8.083  16.620  20.048  0.00  0.00    +0.000 C 
ATOM     15  C   UNL     1       7.659  15.436  19.181  0.00  0.00    +0.000 C 
ATOM     16  C   UNL     1       8.141  14.094  19.711  0.00  0.00    +0.000 C 
ENDBRANCH  10  11
ENDBRANCH   2   5
BRANCH   3  17
ATOM     17  C   UNL     1       8.778   9.533  18.574  0.00  0.00    +0.000 C 
BRANCH  17  18
ATOM     18  C   UNL     1       7.691   8.883  17.725  0.00  0.00    +0.000 C 
BRANCH  18  19
ATOM     19  C   UNL     1       7.864   7.363  17.649  0.00  0.00    +0.000 C 
BRANCH  19  20
ATOM     20  N   UNL     1       6.882   6.724  16.760  0.00  0.00    +0.000 NA
ATOM     21  C   UNL     1       7.041   5.248  16.696  0.00  0.00    +0.000 C 
ATOM     22  C   UNL     1       6.695   4.515  18.006  0.00  0.00    +0.000 C 
ATOM     23  N   UNL     1       5.362   4.886  18.502  0.00  0.00    +0.000 N 
ATOM     24  C   UNL     1       5.038   6.326  18.487  0.00  0.00    +0.000 C 
ATOM     25  C   UNL     1       5.491   7.007  17.173  0.00  0.00    +0.000 C 
BRANCH  23  26
ATOM     26  C   UNL     1       4.323   3.965  18.529  0.00  0.00    +0.000 A 
ATOM     27  C   UNL     1       3.889   3.454  19.766  0.00  0.00    +0.000 A 
ATOM     28  C   UNL     1       2.853   2.520  19.860  0.00  0.00    +0.000 A 
ATOM     29  C   UNL     1       2.219   2.064  18.709  0.00  0.00    +0.000 A 
ATOM     30  C   UNL     1       2.634   2.536  17.467  0.00  0.00    +0.000 A 
ATOM     31  C   UNL     1       3.670   3.467  17.385  0.00  0.00    +0.000 A 
ATOM     32  F   UNL     1       3.996   3.908  16.159  0.00  0.00    +0.000 F 
ENDBRANCH  23  26
ENDBRANCH  19  20
ENDBRANCH  18  19
ENDBRANCH  17  18
ENDBRANCH   3  17
TORSDOF 7
ENDMDL
