MODEL 1
REMARK VINA RESULT:      -8.4      0.000      0.000
REMARK  Name = 
REMARK  5 active torsions:
REMARK  status: ('A' for Active; 'I' for Inactive)
REMARK    1  A    between atoms: C_2  and  O_3
REMARK    2  A    between atoms: C_2  and  C_4
REMARK    3  A    between atoms: C_4  and  N_5
REMARK    4  A    between atoms: N_14  and  C_15
REMARK    5  A    between atoms: C_15  and  C_16
REMARK                            x       y       z     vdW  Elec       q    Type
REMARK                         _______ _______ _______ _____ _____    ______ ____
ROOT
ATOM      1  N   UNL     1      -0.132  11.093  19.411  0.00  0.00    +0.000 N 
ATOM      2  C   UNL     1      -0.545  11.039  20.742  0.00  0.00    +0.000 A 
ATOM      3  C   UNL     1      -1.404  11.875  21.429  0.00  0.00    +0.000 A 
ATOM      4  C   UNL     1      -1.700  11.577  22.767  0.00  0.00    +0.000 A 
ATOM      5  C   UNL     1      -1.130  10.463  23.413  0.00  0.00    +0.000 A 
ATOM      6  C   UNL     1      -0.248   9.620  22.735  0.00  0.00    +0.000 A 
ATOM      7  C   UNL     1       0.020   9.929  21.416  0.00  0.00    +0.000 A 
ATOM      8  C   UNL     1       0.843   9.244  20.431  0.00  0.00    +0.000 A 
ATOM      9  N   UNL     1       1.582   8.192  20.527  0.00  0.00    +0.000 NA
ATOM     10  N   UNL     1       2.195   7.831  19.325  0.00  0.00    +0.000 N 
ATOM     11  C   UNL     1       2.017   8.511  18.101  0.00  0.00    +0.000 A 
ATOM     12  O   UNL     1       2.485   8.071  17.053  0.00  0.00    +0.000 OA
ATOM     13  N   UNL     1       1.292   9.689  18.075  0.00  0.00    +0.000 NA
ATOM     14  C   UNL     1       0.696  10.024  19.157  0.00  0.00    +0.000 A 
ENDROOT
BRANCH   1  15
ATOM     15  C   UNL     1      -0.569  12.075  18.437  0.00  0.00    +0.000 C 
BRANCH  15  17
ATOM     16  O   UNL     1      -2.703  10.949  18.249  0.00  0.00    +0.000 OA
ATOM     17  C   UNL     1      -1.824  11.613  17.718  0.00  0.00    +0.000 C 
BRANCH  17  18
ATOM     18  O   UNL     1      -1.885  11.983  16.416  0.00  0.00    +0.000 OA
ATOM     19  H   UNL     1      -1.550  12.893  16.247  0.00  0.00    +0.000 HD
ENDBRANCH  17  18
ENDBRANCH  15  17
ENDBRANCH   1  15
BRANCH  10  20
ATOM     20  C   UNL     1       3.056   6.648  19.357  0.00  0.00    +0.000 C 
BRANCH  20  21
ATOM     21  C   UNL     1       2.259   5.361  19.367  0.00  0.00    +0.000 A 
ATOM     22  C   UNL     1       1.811   4.814  20.578  0.00  0.00    +0.000 A 
ATOM     23  C   UNL     1       1.138   3.591  20.599  0.00  0.00    +0.000 A 
ATOM     24  C   UNL     1       0.904   2.902  19.411  0.00  0.00    +0.000 A 
ATOM     25  C   UNL     1       1.324   3.445  18.198  0.00  0.00    +0.000 A 
ATOM     26  C   UNL     1       1.997   4.668  18.175  0.00  0.00    +0.000 A 
ENDBRANCH  20  21
ENDBRANCH  10  20
TORSDOF 5
ENDMDL
MODEL 2
REMARK VINA RESULT:      -8.3      1.463      1.564
REMARK  Name = 
REMARK  5 active torsions:
REMARK  status: ('A' for Active; 'I' for Inactive)
REMARK    1  A    between atoms: C_2  and  O_3
REMARK    2  A    between atoms: C_2  and  C_4
REMARK    3  A    between atoms: C_4  and  N_5
REMARK    4  A    between atoms: N_14  and  C_15
REMARK    5  A    between atoms: C_15  and  C_16
REMARK                            x       y       z     vdW  Elec       q    Type
REMARK                         _______ _______ _______ _____ _____    ______ ____
ROOT
ATOM      1  N   UNL     1       0.388  11.056  19.413  0.00  0.00    +0.000 N 
ATOM      2  C   UNL     1      -0.117  10.940  20.707  0.00  0.00    +0.000 A 
ATOM      3  C   UNL     1      -0.949  11.794  21.405  0.00  0.00    +0.000 A 
ATOM      4  C   UNL     1      -1.359  11.425  22.694  0.00  0.00    +0.000 A 
ATOM      5  C   UNL     1      -0.929  10.220  23.282  0.00  0.00    +0.000 A 
ATOM      6  C   UNL     1      -0.076   9.355  22.594  0.00  0.00    +0.000 A 
ATOM      7  C   UNL     1       0.306   9.737  21.324  0.00  0.00    +0.000 A 
ATOM      8  C   UNL     1       1.134   9.057  20.339  0.00  0.00    +0.000 A 
ATOM      9  N   UNL     1       1.775   7.940  20.396  0.00  0.00    +0.000 NA
ATOM     10  N   UNL     1       2.437   7.617  19.210  0.00  0.00    +0.000 N 
ATOM     11  C   UNL     1       2.400   8.400  18.035  0.00  0.00    +0.000 A 
ATOM     12  O   UNL     1       2.900   8.000  16.986  0.00  0.00    +0.000 OA
ATOM     13  N   UNL     1       1.779   9.635  18.059  0.00  0.00    +0.000 NA
ATOM     14  C   UNL     1       1.141   9.940  19.126  0.00  0.00    +0.000 A 
ENDROOT
BRANCH   1  15
ATOM     15  C   UNL     1       0.103  12.142  18.495  0.00  0.00    +0.000 C 
BRANCH  15  17
ATOM     16  O   UNL     1       1.386  14.097  19.122  0.00  0.00    +0.000 OA
ATOM     17  C   UNL     1       1.271  13.109  18.411  0.00  0.00    +0.000 C 
BRANCH  17  18
ATOM     18  O   UNL     1       2.182  12.796  17.457  0.00  0.00    +0.000 OA
ATOM     19  H   UNL     1       1.801  12.732  16.552  0.00  0.00    +0.000 HD
ENDBRANCH  17  18
ENDBRANCH  15  17
ENDBRANCH   1  15
BRANCH  10  20
ATOM     20  C   UNL     1       3.192   6.364  19.199  0.00  0.00    +0.000 C 
BRANCH  20  21
ATOM     21  C   UNL     1       2.290   5.152  19.302  0.00  0.00    +0.000 A 
ATOM     22  C   UNL     1       1.919   4.649  20.558  0.00  0.00    +0.000 A 
ATOM     23  C   UNL     1       1.147   3.491  20.659  0.00  0.00    +0.000 A 
ATOM     24  C   UNL     1       0.736   2.822  19.508  0.00  0.00    +0.000 A 
ATOM     25  C   UNL     1       1.080   3.323  18.254  0.00  0.00    +0.000 A 
ATOM     26  C   UNL     1       1.851   4.482  18.150  0.00  0.00    +0.000 A 
ENDBRANCH  20  21
ENDBRANCH  10  20
TORSDOF 5
ENDMDL
MODEL 3
REMARK VINA RESULT:      -8.0      0.548      1.130
REMARK  Name = 
REMARK  5 active torsions:
REMARK  status: ('A' for Active; 'I' for Inactive)
REMARK    1  A    between atoms: C_2  and  O_3
REMARK    2  A    between atoms: C_2  and  C_4
REMARK    3  A    between atoms: C_4  and  N_5
REMARK    4  A    between atoms: N_14  and  C_15
REMARK    5  A    between atoms: C_15  and  C_16
REMARK                            x       y       z     vdW  Elec       q    Type
REMARK                         _______ _______ _______ _____ _____    ______ ____
ROOT
ATOM      1  N   UNL     1       0.089  10.914  19.443  0.00  0.00    +0.000 N 
ATOM      2  C   UNL     1      -0.306  10.790  20.774  0.00  0.00    +0.000 A 
ATOM      3  C   UNL     1      -1.140  11.599  21.522  0.00  0.00    +0.000 A 
ATOM      4  C   UNL     1      -1.422  11.229  22.844  0.00  0.00    +0.000 A 
ATOM      5  C   UNL     1      -0.866  10.068  23.416  0.00  0.00    +0.000 A 
ATOM      6  C   UNL     1      -0.009   9.251  22.676  0.00  0.00    +0.000 A 
ATOM      7  C   UNL     1       0.246   9.631  21.374  0.00  0.00    +0.000 A 
ATOM      8  C   UNL     1       1.042   8.990  20.338  0.00  0.00    +0.000 A 
ATOM      9  N   UNL     1       1.761   7.921  20.361  0.00  0.00    +0.000 NA
ATOM     10  N   UNL     1       2.351   7.619  19.132  0.00  0.00    +0.000 N 
ATOM     11  C   UNL     1       2.169   8.374  17.952  0.00  0.00    +0.000 A 
ATOM     12  O   UNL     1       2.614   7.988  16.873  0.00  0.00    +0.000 OA
ATOM     13  N   UNL     1       1.467   9.564  18.006  0.00  0.00    +0.000 NA
ATOM     14  C   UNL     1       0.893   9.846  19.115  0.00  0.00    +0.000 A 
ENDROOT
BRANCH   1  15
ATOM     15  C   UNL     1      -0.341  11.959  18.535  0.00  0.00    +0.000 C 
BRANCH  15  17
ATOM     16  O   UNL     1      -1.789  10.642  17.111  0.00  0.00    +0.000 OA
ATOM     17  C   UNL     1      -1.654  11.596  17.864  0.00  0.00    +0.000 C 
BRANCH  17  18
ATOM     18  O   UNL     1      -2.677  12.436  18.155  0.00  0.00    +0.000 OA
ATOM     19  H   UNL     1      -2.402  13.234  18.662  0.00  0.00    +0.000 HD
ENDBRANCH  17  18
ENDBRANCH  15  17
ENDBRANCH   1  15
BRANCH  10  20
ATOM     20  C   UNL     1       3.189   6.421  19.081  0.00  0.00    +0.000 C 
BRANCH  20  21
ATOM     21  C   UNL     1       2.404   5.162  19.382  0.00  0.00    +0.000 A 
ATOM     22  C   UNL     1       1.893   4.379  18.338  0.00  0.00    +0.000 A 
ATOM     23  C   UNL     1       1.108   3.257  18.609  0.00  0.00    +0.000 A 
ATOM     24  C   UNL     1       0.825   2.905  19.927  0.00  0.00    +0.000 A 
ATOM     25  C   UNL     1       1.344   3.663  20.976  0.00  0.00    +0.000 A 
ATOM     26  C   UNL     1       2.130   4.784  20.706  0.00  0.00    +0.000 A 
ENDBRANCH  20  21
ENDBRANCH  10  20
TORSDOF 5
ENDMDL
MODEL 4
REMARK VINA RESULT:      -7.6      2.650      7.266
REMARK  Name = 
REMARK  5 active torsions:
REMARK  status: ('A' for Active; 'I' for Inactive)
REMARK    1  A    between atoms: C_2  and  O_3
REMARK    2  A    between atoms: C_2  and  C_4
REMARK    3  A    between atoms: C_4  and  N_5
REMARK    4  A    between atoms: N_14  and  C_15
REMARK    5  A    between atoms: C_15  and  C_16
REMARK                            x       y       z     vdW  Elec       q    Type
REMARK                         _______ _______ _______ _____ _____    ______ ____
ROOT
ATOM      1  N   UNL     1       2.906   5.293  19.653  0.00  0.00    +0.000 N 
ATOM      2  C   UNL     1       3.681   5.367  18.496  0.00  0.00    +0.000 A 
ATOM      3  C   UNL     1       4.448   4.391  17.889  0.00  0.00    +0.000 A 
ATOM      4  C   UNL     1       5.105   4.705  16.691  0.00  0.00    +0.000 A 
ATOM      5  C   UNL     1       5.006   5.987  16.115  0.00  0.00    +0.000 A 
ATOM      6  C   UNL     1       4.247   6.986  16.727  0.00  0.00    +0.000 A 
ATOM      7  C   UNL     1       3.603   6.650  17.900  0.00  0.00    +0.000 A 
ATOM      8  C   UNL     1       2.714   7.428  18.750  0.00  0.00    +0.000 A 
ATOM      9  N   UNL     1       2.320   8.652  18.669  0.00  0.00    +0.000 NA
ATOM     10  N   UNL     1       1.426   9.017  19.678  0.00  0.00    +0.000 N 
ATOM     11  C   UNL     1       0.956   8.144  20.684  0.00  0.00    +0.000 A 
ATOM     12  O   UNL     1       0.076   8.491  21.469  0.00  0.00    +0.000 OA
ATOM     13  N   UNL     1       1.485   6.871  20.782  0.00  0.00    +0.000 NA
ATOM     14  C   UNL     1       2.283   6.503  19.851  0.00  0.00    +0.000 A 
ENDROOT
BRANCH   1  15
ATOM     15  C   UNL     1       2.729   4.107  20.469  0.00  0.00    +0.000 C 
BRANCH  15  17
ATOM     16  O   UNL     1       1.709   2.252  19.295  0.00  0.00    +0.000 OA
ATOM     17  C   UNL     1       1.570   3.264  19.967  0.00  0.00    +0.000 C 
BRANCH  17  18
ATOM     18  O   UNL     1       0.349   3.740  20.312  0.00  0.00    +0.000 OA
ATOM     19  H   UNL     1       0.371   4.386  21.054  0.00  0.00    +0.000 HD
ENDBRANCH  17  18
ENDBRANCH  15  17
ENDBRANCH   1  15
BRANCH  10  20
ATOM     20  C   UNL     1       0.939  10.397  19.656  0.00  0.00    +0.000 C 
BRANCH  20  21
ATOM     21  C   UNL     1      -0.367  10.529  18.903  0.00  0.00    +0.000 A 
ATOM     22  C   UNL     1      -1.380  11.372  19.382  0.00  0.00    +0.000 A 
ATOM     23  C   UNL     1      -2.613  11.443  18.731  0.00  0.00    +0.000 A 
ATOM     24  C   UNL     1      -2.847  10.674  17.594  0.00  0.00    +0.000 A 
ATOM     25  C   UNL     1      -1.841   9.848  17.094  0.00  0.00    +0.000 A 
ATOM     26  C   UNL     1      -0.608   9.776  17.743  0.00  0.00    +0.000 A 
ENDBRANCH  20  21
ENDBRANCH  10  20
TORSDOF 5
ENDMDL
MODEL 5
REMARK VINA RESULT:      -7.4      4.279      7.043
REMARK  Name = 
REMARK  5 active torsions:
REMARK  status: ('A' for Active; 'I' for Inactive)
REMARK    1  A    between atoms: C_2  and  O_3
REMARK    2  A    between atoms: C_2  and  C_4
REMARK    3  A    between atoms: C_4  and  N_5
REMARK    4  A    between atoms: N_14  and  C_15
REMARK    5  A    between atoms: C_15  and  C_16
REMARK                            x       y       z     vdW  Elec       q    Type
REMARK                         _______ _______ _______ _____ _____    ______ ____
ROOT
ATOM      1  N   UNL     1       3.016   5.985  19.096  0.00  0.00    +0.000 N 
ATOM      2  C   UNL     1       2.393   4.738  19.127  0.00  0.00    +0.000 A 
ATOM      3  C   UNL     1       1.210   4.362  19.735  0.00  0.00    +0.000 A 
ATOM      4  C   UNL     1       0.768   3.041  19.579  0.00  0.00    +0.000 A 
ATOM      5  C   UNL     1       1.509   2.103  18.833  0.00  0.00    +0.000 A 
ATOM      6  C   UNL     1       2.713   2.466  18.228  0.00  0.00    +0.000 A 
ATOM      7  C   UNL     1       3.122   3.775  18.388  0.00  0.00    +0.000 A 
ATOM      8  C   UNL     1       4.283   4.476  17.860  0.00  0.00    +0.000 A 
ATOM      9  N   UNL     1       5.268   4.063  17.139  0.00  0.00    +0.000 NA
ATOM     10  N   UNL     1       6.177   5.071  16.808  0.00  0.00    +0.000 N 
ATOM     11  C   UNL     1       6.040   6.425  17.184  0.00  0.00    +0.000 A 
ATOM     12  O   UNL     1       6.808   7.286  16.758  0.00  0.00    +0.000 OA
ATOM     13  N   UNL     1       5.018   6.795  18.039  0.00  0.00    +0.000 NA
ATOM     14  C   UNL     1       4.156   5.896  18.332  0.00  0.00    +0.000 A 
ENDROOT
BRANCH   1  15
ATOM     15  C   UNL     1       2.501   7.195  19.709  0.00  0.00    +0.000 C 
BRANCH  15  17
ATOM     16  O   UNL     1       1.933   7.905  17.466  0.00  0.00    +0.000 OA
ATOM     17  C   UNL     1       1.896   8.121  18.669  0.00  0.00    +0.000 C 
BRANCH  17  18
ATOM     18  O   UNL     1       1.319   9.234  19.185  0.00  0.00    +0.000 OA
ATOM     19  H   UNL     1       1.051   9.892  18.505  0.00  0.00    +0.000 HD
ENDBRANCH  17  18
ENDBRANCH  15  17
ENDBRANCH   1  15
BRANCH  10  20
ATOM     20  C   UNL     1       7.327   4.676  15.995  0.00  0.00    +0.000 C 
BRANCH  20  21
ATOM     21  C   UNL     1       6.964   4.512  14.534  0.00  0.00    +0.000 A 
ATOM     22  C   UNL     1       5.897   3.685  14.158  0.00  0.00    +0.000 A 
ATOM     23  C   UNL     1       5.603   3.473  12.810  0.00  0.00    +0.000 A 
ATOM     24  C   UNL     1       6.372   4.085  11.823  0.00  0.00    +0.000 A 
ATOM     25  C   UNL     1       7.423   4.927  12.183  0.00  0.00    +0.000 A 
ATOM     26  C   UNL     1       7.718   5.141  13.531  0.00  0.00    +0.000 A 
ENDBRANCH  20  21
ENDBRANCH  10  20
TORSDOF 5
ENDMDL
MODEL 6
REMARK VINA RESULT:      -7.4      2.759      7.471
REMARK  Name = 
REMARK  5 active torsions:
REMARK  status: ('A' for Active; 'I' for Inactive)
REMARK    1  A    between atoms: C_2  and  O_3
REMARK    2  A    between atoms: C_2  and  C_4
REMARK    3  A    between atoms: C_4  and  N_5
REMARK    4  A    between atoms: N_14  and  C_15
REMARK    5  A    between atoms: C_15  and  C_16
REMARK                            x       y       z     vdW  Elec       q    Type
REMARK                         _______ _______ _______ _____ _____    ______ ____
ROOT
ATOM      1  N   UNL     1       3.082   4.910  19.343  0.00  0.00    +0.000 N 
ATOM      2  C   UNL     1       3.854   5.016  18.187  0.00  0.00    +0.000 A 
ATOM      3  C   UNL     1       4.591   4.049  17.530  0.00  0.00    +0.000 A 
ATOM      4  C   UNL     1       5.251   4.400  16.345  0.00  0.00    +0.000 A 
ATOM      5  C   UNL     1       5.186   5.710  15.830  0.00  0.00    +0.000 A 
ATOM      6  C   UNL     1       4.459   6.700  16.492  0.00  0.00    +0.000 A 
ATOM      7  C   UNL     1       3.810   6.327  17.652  0.00  0.00    +0.000 A 
ATOM      8  C   UNL     1       2.946   7.089  18.541  0.00  0.00    +0.000 A 
ATOM      9  N   UNL     1       2.586   8.326  18.520  0.00  0.00    +0.000 NA
ATOM     10  N   UNL     1       1.708   8.669  19.550  0.00  0.00    +0.000 N 
ATOM     11  C   UNL     1       1.217   7.763  20.516  0.00  0.00    +0.000 A 
ATOM     12  O   UNL     1       0.350   8.097  21.321  0.00  0.00    +0.000 OA
ATOM     13  N   UNL     1       1.710   6.472  20.552  0.00  0.00    +0.000 NA
ATOM     14  C   UNL     1       2.494   6.126  19.600  0.00  0.00    +0.000 A 
ENDROOT
BRANCH   1  15
ATOM     15  C   UNL     1       2.875   3.692  20.104  0.00  0.00    +0.000 C 
BRANCH  15  17
ATOM     16  O   UNL     1       0.526   3.194  19.799  0.00  0.00    +0.000 OA
ATOM     17  C   UNL     1       1.692   2.906  19.568  0.00  0.00    +0.000 C 
BRANCH  17  18
ATOM     18  O   UNL     1       2.035   1.831  18.816  0.00  0.00    +0.000 OA
ATOM     19  H   UNL     1       2.905   1.924  18.366  0.00  0.00    +0.000 HD
ENDBRANCH  17  18
ENDBRANCH  15  17
ENDBRANCH   1  15
BRANCH  10  20
ATOM     20  C   UNL     1       1.259  10.061  19.595  0.00  0.00    +0.000 C 
BRANCH  20  21
ATOM     21  C   UNL     1      -0.107  10.241  18.969  0.00  0.00    +0.000 A 
ATOM     22  C   UNL     1      -0.414   9.626  17.747  0.00  0.00    +0.000 A 
ATOM     23  C   UNL     1      -1.647   9.846  17.130  0.00  0.00    +0.000 A 
ATOM     24  C   UNL     1      -2.587  10.684  17.727  0.00  0.00    +0.000 A 
ATOM     25  C   UNL     1      -2.303  11.285  18.952  0.00  0.00    +0.000 A 
ATOM     26  C   UNL     1      -1.071  11.065  19.571  0.00  0.00    +0.000 A 
ENDBRANCH  20  21
ENDBRANCH  10  20
TORSDOF 5
ENDMDL
MODEL 7
REMARK VINA RESULT:      -7.3      3.025      4.722
REMARK  Name = 
REMARK  5 active torsions:
REMARK  status: ('A' for Active; 'I' for Inactive)
REMARK    1  A    between atoms: C_2  and  O_3
REMARK    2  A    between atoms: C_2  and  C_4
REMARK    3  A    between atoms: C_4  and  N_5
REMARK    4  A    between atoms: N_14  and  C_15
REMARK    5  A    between atoms: C_15  and  C_16
REMARK                            x       y       z     vdW  Elec       q    Type
REMARK                         _______ _______ _______ _____ _____    ______ ____
ROOT
ATOM      1  N   UNL     1       0.579   8.784  20.731  0.00  0.00    +0.000 N 
ATOM      2  C   UNL     1       0.717   9.958  19.992  0.00  0.00    +0.000 A 
ATOM      3  C   UNL     1       0.142  11.198  20.198  0.00  0.00    +0.000 A 
ATOM      4  C   UNL     1       0.481  12.244  19.329  0.00  0.00    +0.000 A 
ATOM      5  C   UNL     1       1.374  12.048  18.258  0.00  0.00    +0.000 A 
ATOM      6  C   UNL     1       1.949  10.796  18.029  0.00  0.00    +0.000 A 
ATOM      7  C   UNL     1       1.607   9.785  18.904  0.00  0.00    +0.000 A 
ATOM      8  C   UNL     1       2.054   8.401  18.974  0.00  0.00    +0.000 A 
ATOM      9  N   UNL     1       2.852   7.729  18.218  0.00  0.00    +0.000 NA
ATOM     10  N   UNL     1       3.052   6.415  18.649  0.00  0.00    +0.000 N 
ATOM     11  C   UNL     1       2.477   5.860  19.813  0.00  0.00    +0.000 A 
ATOM     12  O   UNL     1       2.791   4.738  20.206  0.00  0.00    +0.000 OA
ATOM     13  N   UNL     1       1.553   6.594  20.533  0.00  0.00    +0.000 NA
ATOM     14  C   UNL     1       1.375   7.810  20.175  0.00  0.00    +0.000 A 
ENDROOT
BRANCH   1  15
ATOM     15  C   UNL     1      -0.218   8.640  21.935  0.00  0.00    +0.000 C 
BRANCH  15  17
ATOM     16  O   UNL     1       1.434   9.526  23.466  0.00  0.00    +0.000 OA
ATOM     17  C   UNL     1       0.288   9.550  23.039  0.00  0.00    +0.000 C 
BRANCH  17  18
ATOM     18  O   UNL     1      -0.650  10.394  23.536  0.00  0.00    +0.000 OA
ATOM     19  H   UNL     1      -0.757  10.334  24.512  0.00  0.00    +0.000 HD
ENDBRANCH  17  18
ENDBRANCH  15  17
ENDBRANCH   1  15
BRANCH  10  20
ATOM     20  C   UNL     1       3.943   5.586  17.836  0.00  0.00    +0.000 C 
BRANCH  20  21
ATOM     21  C   UNL     1       5.401   5.926  18.059  0.00  0.00    +0.000 A 
ATOM     22  C   UNL     1       6.110   5.346  19.120  0.00  0.00    +0.000 A 
ATOM     23  C   UNL     1       7.434   5.710  19.374  0.00  0.00    +0.000 A 
ATOM     24  C   UNL     1       8.064   6.658  18.569  0.00  0.00    +0.000 A 
ATOM     25  C   UNL     1       7.377   7.226  17.498  0.00  0.00    +0.000 A 
ATOM     26  C   UNL     1       6.054   6.863  17.242  0.00  0.00    +0.000 A 
ENDBRANCH  20  21
ENDBRANCH  10  20
TORSDOF 5
ENDMDL
MODEL 8
REMARK VINA RESULT:      -7.2      2.383      6.922
REMARK  Name = 
REMARK  5 active torsions:
REMARK  status: ('A' for Active; 'I' for Inactive)
REMARK    1  A    between atoms: C_2  and  O_3
REMARK    2  A    between atoms: C_2  and  C_4
REMARK    3  A    between atoms: C_4  and  N_5
REMARK    4  A    between atoms: N_14  and  C_15
REMARK    5  A    between atoms: C_15  and  C_16
REMARK                            x       y       z     vdW  Elec       q    Type
REMARK                         _______ _______ _______ _____ _____    ______ ____
ROOT
ATOM      1  N   UNL     1       3.493   5.691  17.977  0.00  0.00    +0.000 N 
ATOM      2  C   UNL     1       3.132   4.841  19.022  0.00  0.00    +0.000 A 
ATOM      3  C   UNL     1       3.481   3.522  19.242  0.00  0.00    +0.000 A 
ATOM      4  C   UNL     1       3.020   2.894  20.408  0.00  0.00    +0.000 A 
ATOM      5  C   UNL     1       2.208   3.575  21.336  0.00  0.00    +0.000 A 
ATOM      6  C   UNL     1       1.835   4.902  21.117  0.00  0.00    +0.000 A 
ATOM      7  C   UNL     1       2.309   5.501  19.967  0.00  0.00    +0.000 A 
ATOM      8  C   UNL     1       2.148   6.860  19.471  0.00  0.00    +0.000 A 
ATOM      9  N   UNL     1       1.486   7.861  19.941  0.00  0.00    +0.000 NA
ATOM     10  N   UNL     1       1.614   9.022  19.175  0.00  0.00    +0.000 N 
ATOM     11  C   UNL     1       2.409   9.129  18.013  0.00  0.00    +0.000 A 
ATOM     12  O   UNL     1       2.579  10.210  17.453  0.00  0.00    +0.000 OA
ATOM     13  N   UNL     1       3.020   8.000  17.499  0.00  0.00    +0.000 NA
ATOM     14  C   UNL     1       2.942   6.931  18.200  0.00  0.00    +0.000 A 
ENDROOT
BRANCH   1  15
ATOM     15  C   UNL     1       4.369   5.339  16.876  0.00  0.00    +0.000 C 
BRANCH  15  17
ATOM     16  O   UNL     1       6.609   5.073  17.754  0.00  0.00    +0.000 OA
ATOM     17  C   UNL     1       5.799   5.767  17.156  0.00  0.00    +0.000 C 
BRANCH  17  18
ATOM     18  O   UNL     1       6.106   7.006  16.700  0.00  0.00    +0.000 OA
ATOM     19  H   UNL     1       5.362   7.454  16.238  0.00  0.00    +0.000 HD
ENDBRANCH  17  18
ENDBRANCH  15  17
ENDBRANCH   1  15
BRANCH  10  20
ATOM     20  C   UNL     1       0.884  10.201  19.642  0.00  0.00    +0.000 C 
BRANCH  20  21
ATOM     21  C   UNL     1      -0.442  10.371  18.931  0.00  0.00    +0.000 A 
ATOM     22  C   UNL     1      -0.726   9.631  17.775  0.00  0.00    +0.000 A 
ATOM     23  C   UNL     1      -1.917   9.835  17.075  0.00  0.00    +0.000 A 
ATOM     24  C   UNL     1      -2.836  10.781  17.523  0.00  0.00    +0.000 A 
ATOM     25  C   UNL     1      -2.576  11.509  18.683  0.00  0.00    +0.000 A 
ATOM     26  C   UNL     1      -1.387  11.305  19.385  0.00  0.00    +0.000 A 
ENDBRANCH  20  21
ENDBRANCH  10  20
TORSDOF 5
ENDMDL
MODEL 9
REMARK VINA RESULT:      -7.1      4.411      7.114
REMARK  Name = 
REMARK  5 active torsions:
REMARK  status: ('A' for Active; 'I' for Inactive)
REMARK    1  A    between atoms: C_2  and  O_3
REMARK    2  A    between atoms: C_2  and  C_4
REMARK    3  A    between atoms: C_4  and  N_5
REMARK    4  A    between atoms: N_14  and  C_15
REMARK    5  A    between atoms: C_15  and  C_16
REMARK                            x       y       z     vdW  Elec       q    Type
REMARK                         _______ _______ _______ _____ _____    ______ ____
ROOT
ATOM      1  N   UNL     1       2.690   5.636  18.986  0.00  0.00    +0.000 N 
ATOM      2  C   UNL     1       2.849   4.501  19.781  0.00  0.00    +0.000 A 
ATOM      3  C   UNL     1       2.026   4.001  20.772  0.00  0.00    +0.000 A 
ATOM      4  C   UNL     1       2.388   2.802  21.401  0.00  0.00    +0.000 A 
ATOM      5  C   UNL     1       3.569   2.118  21.051  0.00  0.00    +0.000 A 
ATOM      6  C   UNL     1       4.417   2.621  20.063  0.00  0.00    +0.000 A 
ATOM      7  C   UNL     1       4.034   3.798  19.452  0.00  0.00    +0.000 A 
ATOM      8  C   UNL     1       4.655   4.552  18.374  0.00  0.00    +0.000 A 
ATOM      9  N   UNL     1       5.752   4.357  17.725  0.00  0.00    +0.000 NA
ATOM     10  N   UNL     1       5.983   5.305  16.725  0.00  0.00    +0.000 N 
ATOM     11  C   UNL     1       5.105   6.365  16.410  0.00  0.00    +0.000 A 
ATOM     12  O   UNL     1       5.304   7.091  15.438  0.00  0.00    +0.000 OA
ATOM     13  N   UNL     1       3.992   6.585  17.201  0.00  0.00    +0.000 NA
ATOM     14  C   UNL     1       3.743   5.713  18.104  0.00  0.00    +0.000 A 
ENDROOT
BRANCH   1  15
ATOM     15  C   UNL     1       1.559   6.543  19.035  0.00  0.00    +0.000 C 
BRANCH  15  17
ATOM     16  O   UNL     1       2.157   8.887  19.101  0.00  0.00    +0.000 OA
ATOM     17  C   UNL     1       1.934   7.850  19.710  0.00  0.00    +0.000 C 
BRANCH  17  18
ATOM     18  O   UNL     1       2.023   7.772  21.060  0.00  0.00    +0.000 OA
ATOM     19  H   UNL     1       2.932   7.921  21.406  0.00  0.00    +0.000 HD
ENDBRANCH  17  18
ENDBRANCH  15  17
ENDBRANCH   1  15
BRANCH  10  20
ATOM     20  C   UNL     1       7.214   5.153  15.948  0.00  0.00    +0.000 C 
BRANCH  20  21
ATOM     21  C   UNL     1       6.940   4.724  14.522  0.00  0.00    +0.000 A 
ATOM     22  C   UNL     1       5.929   3.793  14.244  0.00  0.00    +0.000 A 
ATOM     23  C   UNL     1       5.720   3.340  12.940  0.00  0.00    +0.000 A 
ATOM     24  C   UNL     1       6.517   3.813  11.900  0.00  0.00    +0.000 A 
ATOM     25  C   UNL     1       7.511   4.755  12.160  0.00  0.00    +0.000 A 
ATOM     26  C   UNL     1       7.721   5.210  13.463  0.00  0.00    +0.000 A 
ENDBRANCH  20  21
ENDBRANCH  10  20
TORSDOF 5
ENDMDL
