MODEL 1
REMARK VINA RESULT:      -8.4      0.000      0.000
REMARK  Name = 
REMARK  3 active torsions:
REMARK  status: ('A' for Active; 'I' for Inactive)
REMARK    1  A    between atoms: C_4  and  C_5
REMARK    2  A    between atoms: C_7  and  C_8
REMARK    3  A    between atoms: C_12  and  C_13
REMARK                            x       y       z     vdW  Elec       q    Type
REMARK                         _______ _______ _______ _____ _____    ______ ____
ROOT
ATOM      1  C   UNL     1       6.397   4.146  15.575  0.00  0.00    +0.000 A 
ATOM      2  N   UNL     1       7.358   4.690  16.346  0.00  0.00    +0.000 NA
ATOM      3  C   UNL     1       7.115   4.813  17.665  0.00  0.00    +0.000 A 
ATOM      4  C   UNL     1       5.908   4.409  18.191  0.00  0.00    +0.000 A 
ATOM      5  C   UNL     1       5.004   3.769  17.358  0.00  0.00    +0.000 A 
ATOM      6  N   UNL     1       5.241   3.629  16.041  0.00  0.00    +0.000 NA
ENDROOT
BRANCH   5   7
ATOM      7  C   UNL     1       3.796   3.085  17.981  0.00  0.00    +0.000 C 
ATOM      8  C   UNL     1       2.614   2.813  17.065  0.00  0.00    +0.000 C 
ATOM      9  O   UNL     1       1.462   3.400  17.680  0.00  0.00    +0.000 OA
ATOM     10  C   UNL     1       1.943   4.241  18.724  0.00  0.00    +0.000 C 
ATOM     11  C   UNL     1       1.906   5.705  18.268  0.00  0.00    +0.000 C 
ATOM     12  C   UNL     1       2.474   6.624  19.347  0.00  0.00    +0.000 C 
ATOM     13  C   UNL     1       1.665   6.497  20.638  0.00  0.00    +0.000 C 
ATOM     14  C   UNL     1       1.501   5.046  21.094  0.00  0.00    +0.000 C 
ATOM     15  C   UNL     1       1.062   4.102  19.967  0.00  0.00    +0.000 C 
ATOM     16  O   UNL     1       3.273   3.857  19.068  0.00  0.00    +0.000 OA
ENDBRANCH   5   7
BRANCH   1  20
ATOM     17  C   UNL     1       7.093   4.282  11.325  0.00  0.00    +0.000 A 
ATOM     18  C   UNL     1       6.115   3.444  11.846  0.00  0.00    +0.000 A 
ATOM     19  C   UNL     1       5.867   3.436  13.220  0.00  0.00    +0.000 A 
ATOM     20  C   UNL     1       6.589   4.257  14.112  0.00  0.00    +0.000 A 
ATOM     21  C   UNL     1       7.552   5.114  13.549  0.00  0.00    +0.000 A 
ATOM     22  C   UNL     1       7.807   5.124  12.175  0.00  0.00    +0.000 A 
ENDBRANCH   1  20
BRANCH   3  23
ATOM     23  C   UNL     1       8.196   5.390  18.545  0.00  0.00    +0.000 C 
ATOM     24  C   UNL     1       8.219   6.866  18.881  0.00  0.00    +0.000 C 
ATOM     25  C   UNL     1       7.838   5.874  19.934  0.00  0.00    +0.000 C 
ENDBRANCH   3  23
TORSDOF 3
ENDMDL
MODEL 2
REMARK VINA RESULT:      -8.2      0.912      1.497
REMARK  Name = 
REMARK  3 active torsions:
REMARK  status: ('A' for Active; 'I' for Inactive)
REMARK    1  A    between atoms: C_4  and  C_5
REMARK    2  A    between atoms: C_7  and  C_8
REMARK    3  A    between atoms: C_12  and  C_13
REMARK                            x       y       z     vdW  Elec       q    Type
REMARK                         _______ _______ _______ _____ _____    ______ ____
ROOT
ATOM      1  C   UNL     1       6.329   4.538  15.464  0.00  0.00    +0.000 A 
ATOM      2  N   UNL     1       6.755   5.649  16.097  0.00  0.00    +0.000 NA
ATOM      3  C   UNL     1       6.258   5.909  17.321  0.00  0.00    +0.000 A 
ATOM      4  C   UNL     1       5.328   5.066  17.888  0.00  0.00    +0.000 A 
ATOM      5  C   UNL     1       5.009   3.892  17.225  0.00  0.00    +0.000 A 
ATOM      6  N   UNL     1       5.509   3.615  16.007  0.00  0.00    +0.000 NA
ENDROOT
BRANCH   5   7
ATOM      7  C   UNL     1       4.197   2.836  17.961  0.00  0.00    +0.000 C 
ATOM      8  C   UNL     1       3.025   2.227  17.211  0.00  0.00    +0.000 C 
ATOM      9  O   UNL     1       1.866   2.391  18.036  0.00  0.00    +0.000 OA
ATOM     10  C   UNL     1       2.225   3.311  19.062  0.00  0.00    +0.000 C 
ATOM     11  C   UNL     1       1.657   4.698  18.738  0.00  0.00    +0.000 C 
ATOM     12  C   UNL     1       2.080   5.718  19.793  0.00  0.00    +0.000 C 
ATOM     13  C   UNL     1       1.577   5.298  21.174  0.00  0.00    +0.000 C 
ATOM     14  C   UNL     1       1.954   3.858  21.529  0.00  0.00    +0.000 C 
ATOM     15  C   UNL     1       1.652   2.857  20.406  0.00  0.00    +0.000 C 
ATOM     16  O   UNL     1       3.646   3.365  19.173  0.00  0.00    +0.000 OA
ENDBRANCH   5   7
BRANCH   1  20
ATOM     17  C   UNL     1       7.247   4.352  11.258  0.00  0.00    +0.000 A 
ATOM     18  C   UNL     1       7.881   5.284  12.072  0.00  0.00    +0.000 A 
ATOM     19  C   UNL     1       7.609   5.310  13.441  0.00  0.00    +0.000 A 
ATOM     20  C   UNL     1       6.695   4.416  14.036  0.00  0.00    +0.000 A 
ATOM     21  C   UNL     1       6.091   3.467  13.190  0.00  0.00    +0.000 A 
ATOM     22  C   UNL     1       6.358   3.437  11.819  0.00  0.00    +0.000 A 
ENDBRANCH   1  20
BRANCH   3  23
ATOM     23  C   UNL     1       6.752   7.132  18.053  0.00  0.00    +0.000 C 
ATOM     24  C   UNL     1       8.164   7.196  18.597  0.00  0.00    +0.000 C 
ATOM     25  C   UNL     1       7.795   8.014  17.399  0.00  0.00    +0.000 C 
ENDBRANCH   3  23
TORSDOF 3
ENDMDL
MODEL 3
REMARK VINA RESULT:      -8.0      1.328      1.684
REMARK  Name = 
REMARK  3 active torsions:
REMARK  status: ('A' for Active; 'I' for Inactive)
REMARK    1  A    between atoms: C_4  and  C_5
REMARK    2  A    between atoms: C_7  and  C_8
REMARK    3  A    between atoms: C_12  and  C_13
REMARK                            x       y       z     vdW  Elec       q    Type
REMARK                         _______ _______ _______ _____ _____    ______ ____
ROOT
ATOM      1  C   UNL     1       6.551   5.129  15.624  0.00  0.00    +0.000 A 
ATOM      2  N   UNL     1       7.425   6.113  15.909  0.00  0.00    +0.000 NA
ATOM      3  C   UNL     1       7.318   6.727  17.103  0.00  0.00    +0.000 A 
ATOM      4  C   UNL     1       6.327   6.362  17.987  0.00  0.00    +0.000 A 
ATOM      5  C   UNL     1       5.526   5.277  17.671  0.00  0.00    +0.000 A 
ATOM      6  N   UNL     1       5.632   4.647  16.487  0.00  0.00    +0.000 NA
ENDROOT
BRANCH   5   7
ATOM      7  C   UNL     1       4.617   4.702  18.749  0.00  0.00    +0.000 C 
ATOM      8  C   UNL     1       3.561   3.708  18.297  0.00  0.00    +0.000 C 
ATOM      9  O   UNL     1       2.299   4.193  18.767  0.00  0.00    +0.000 OA
ATOM     10  C   UNL     1       2.512   5.535  19.192  0.00  0.00    +0.000 C 
ATOM     11  C   UNL     1       1.996   6.506  18.123  0.00  0.00    +0.000 C 
ATOM     12  C   UNL     1       2.268   7.953  18.527  0.00  0.00    +0.000 C 
ATOM     13  C   UNL     1       1.577   8.277  19.851  0.00  0.00    +0.000 C 
ATOM     14  C   UNL     1       1.899   7.264  20.951  0.00  0.00    +0.000 C 
ATOM     15  C   UNL     1       1.756   5.807  20.494  0.00  0.00    +0.000 C 
ATOM     16  O   UNL     1       3.904   5.743  19.427  0.00  0.00    +0.000 OA
ENDBRANCH   5   7
BRANCH   1  20
ATOM     17  C   UNL     1       6.603   3.552  11.615  0.00  0.00    +0.000 A 
ATOM     18  C   UNL     1       5.605   3.169  12.503  0.00  0.00    +0.000 A 
ATOM     19  C   UNL     1       5.571   3.716  13.788  0.00  0.00    +0.000 A 
ATOM     20  C   UNL     1       6.532   4.653  14.224  0.00  0.00    +0.000 A 
ATOM     21  C   UNL     1       7.511   5.040  13.291  0.00  0.00    +0.000 A 
ATOM     22  C   UNL     1       7.552   4.494  12.006  0.00  0.00    +0.000 A 
ENDBRANCH   1  20
BRANCH   3  23
ATOM     23  C   UNL     1       8.311   7.809  17.446  0.00  0.00    +0.000 C 
ATOM     24  C   UNL     1       7.846   9.203  17.816  0.00  0.00    +0.000 C 
ATOM     25  C   UNL     1       8.402   8.303  18.875  0.00  0.00    +0.000 C 
ENDBRANCH   3  23
TORSDOF 3
ENDMDL
MODEL 4
REMARK VINA RESULT:      -8.0      1.616      2.743
REMARK  Name = 
REMARK  3 active torsions:
REMARK  status: ('A' for Active; 'I' for Inactive)
REMARK    1  A    between atoms: C_4  and  C_5
REMARK    2  A    between atoms: C_7  and  C_8
REMARK    3  A    between atoms: C_12  and  C_13
REMARK                            x       y       z     vdW  Elec       q    Type
REMARK                         _______ _______ _______ _____ _____    ______ ____
ROOT
ATOM      1  C   UNL     1       6.071   5.359  15.432  0.00  0.00    +0.000 A 
ATOM      2  N   UNL     1       7.150   6.030  15.881  0.00  0.00    +0.000 NA
ATOM      3  C   UNL     1       6.980   6.887  16.906  0.00  0.00    +0.000 A 
ATOM      4  C   UNL     1       5.731   7.076  17.455  0.00  0.00    +0.000 A 
ATOM      5  C   UNL     1       4.686   6.281  17.010  0.00  0.00    +0.000 A 
ATOM      6  N   UNL     1       4.847   5.413  15.996  0.00  0.00    +0.000 NA
ENDROOT
BRANCH   5   7
ATOM      7  C   UNL     1       3.378   6.293  17.789  0.00  0.00    +0.000 C 
ATOM      8  C   UNL     1       3.449   6.734  19.241  0.00  0.00    +0.000 C 
ATOM      9  O   UNL     1       2.857   5.694  20.027  0.00  0.00    +0.000 OA
ATOM     10  C   UNL     1       2.724   4.564  19.170  0.00  0.00    +0.000 C 
ATOM     11  C   UNL     1       3.841   3.554  19.466  0.00  0.00    +0.000 C 
ATOM     12  C   UNL     1       3.758   2.360  18.518  0.00  0.00    +0.000 C 
ATOM     13  C   UNL     1       2.412   1.652  18.668  0.00  0.00    +0.000 C 
ATOM     14  C   UNL     1       1.223   2.608  18.552  0.00  0.00    +0.000 C 
ATOM     15  C   UNL     1       1.379   3.874  19.404  0.00  0.00    +0.000 C 
ATOM     16  O   UNL     1       2.782   4.990  17.810  0.00  0.00    +0.000 OA
ENDBRANCH   5   7
BRANCH   1  20
ATOM     17  C   UNL     1       6.483   3.413  11.610  0.00  0.00    +0.000 A 
ATOM     18  C   UNL     1       7.494   4.240  12.086  0.00  0.00    +0.000 A 
ATOM     19  C   UNL     1       7.371   4.834  13.344  0.00  0.00    +0.000 A 
ATOM     20  C   UNL     1       6.238   4.627  14.158  0.00  0.00    +0.000 A 
ATOM     21  C   UNL     1       5.246   3.762  13.659  0.00  0.00    +0.000 A 
ATOM     22  C   UNL     1       5.362   3.167  12.400  0.00  0.00    +0.000 A 
ENDBRANCH   1  20
BRANCH   3  23
ATOM     23  C   UNL     1       8.186   7.620  17.438  0.00  0.00    +0.000 C 
ATOM     24  C   UNL     1       8.075   9.050  17.924  0.00  0.00    +0.000 C 
ATOM     25  C   UNL     1       8.261   7.944  18.916  0.00  0.00    +0.000 C 
ENDBRANCH   3  23
TORSDOF 3
ENDMDL
MODEL 5
REMARK VINA RESULT:      -7.9      3.070      7.745
REMARK  Name = 
REMARK  3 active torsions:
REMARK  status: ('A' for Active; 'I' for Inactive)
REMARK    1  A    between atoms: C_4  and  C_5
REMARK    2  A    between atoms: C_7  and  C_8
REMARK    3  A    between atoms: C_12  and  C_13
REMARK                            x       y       z     vdW  Elec       q    Type
REMARK                         _______ _______ _______ _____ _____    ______ ____
ROOT
ATOM      1  C   UNL     1       1.783   7.272  20.354  0.00  0.00    +0.000 A 
ATOM      2  N   UNL     1       1.656   6.215  21.179  0.00  0.00    +0.000 NA
ATOM      3  C   UNL     1       2.058   5.010  20.730  0.00  0.00    +0.000 A 
ATOM      4  C   UNL     1       2.562   4.876  19.455  0.00  0.00    +0.000 A 
ATOM      5  C   UNL     1       2.756   6.020  18.697  0.00  0.00    +0.000 A 
ATOM      6  N   UNL     1       2.371   7.230  19.140  0.00  0.00    +0.000 NA
ENDROOT
BRANCH   5   7
ATOM      7  C   UNL     1       3.556   5.912  17.406  0.00  0.00    +0.000 C 
ATOM      8  C   UNL     1       3.706   4.524  16.807  0.00  0.00    +0.000 C 
ATOM      9  O   UNL     1       5.108   4.292  16.629  0.00  0.00    +0.000 OA
ATOM     10  C   UNL     1       5.784   5.314  17.355  0.00  0.00    +0.000 C 
ATOM     11  C   UNL     1       6.301   4.750  18.685  0.00  0.00    +0.000 C 
ATOM     12  C   UNL     1       6.977   5.841  19.511  0.00  0.00    +0.000 C 
ATOM     13  C   UNL     1       8.158   6.437  18.745  0.00  0.00    +0.000 C 
ATOM     14  C   UNL     1       7.781   6.885  17.331  0.00  0.00    +0.000 C 
ATOM     15  C   UNL     1       6.980   5.832  16.555  0.00  0.00    +0.000 C 
ATOM     16  O   UNL     1       4.890   6.401  17.587  0.00  0.00    +0.000 OA
ENDBRANCH   5   7
BRANCH   1  20
ATOM     17  C   UNL     1      -0.384  10.788  21.583  0.00  0.00    +0.000 A 
ATOM     18  C   UNL     1       0.013   9.846  22.525  0.00  0.00    +0.000 A 
ATOM     19  C   UNL     1       0.751   8.730  22.124  0.00  0.00    +0.000 A 
ATOM     20  C   UNL     1       1.108   8.518  20.776  0.00  0.00    +0.000 A 
ATOM     21  C   UNL     1       0.714   9.503  19.852  0.00  0.00    +0.000 A 
ATOM     22  C   UNL     1      -0.026  10.620  20.246  0.00  0.00    +0.000 A 
ENDBRANCH   1  20
BRANCH   3  23
ATOM     23  C   UNL     1       1.951   3.825  21.656  0.00  0.00    +0.000 C 
ATOM     24  C   UNL     1       1.269   2.548  21.210  0.00  0.00    +0.000 C 
ATOM     25  C   UNL     1       2.758   2.579  21.359  0.00  0.00    +0.000 C 
ENDBRANCH   3  23
TORSDOF 3
ENDMDL
MODEL 6
REMARK VINA RESULT:      -7.8      2.703      7.140
REMARK  Name = 
REMARK  3 active torsions:
REMARK  status: ('A' for Active; 'I' for Inactive)
REMARK    1  A    between atoms: C_4  and  C_5
REMARK    2  A    between atoms: C_7  and  C_8
REMARK    3  A    between atoms: C_12  and  C_13
REMARK                            x       y       z     vdW  Elec       q    Type
REMARK                         _______ _______ _______ _____ _____    ______ ____
ROOT
ATOM      1  C   UNL     1       2.619   6.655  19.726  0.00  0.00    +0.000 A 
ATOM      2  N   UNL     1       1.794   5.802  20.363  0.00  0.00    +0.000 NA
ATOM      3  C   UNL     1       2.175   4.514  20.467  0.00  0.00    +0.000 A 
ATOM      4  C   UNL     1       3.365   4.094  19.916  0.00  0.00    +0.000 A 
ATOM      5  C   UNL     1       4.209   5.043  19.362  0.00  0.00    +0.000 A 
ATOM      6  N   UNL     1       3.845   6.334  19.264  0.00  0.00    +0.000 NA
ENDROOT
BRANCH   5   7
ATOM      7  C   UNL     1       5.629   4.633  18.999  0.00  0.00    +0.000 C 
ATOM      8  C   UNL     1       6.735   5.617  19.338  0.00  0.00    +0.000 C 
ATOM      9  O   UNL     1       7.465   5.862  18.131  0.00  0.00    +0.000 OA
ATOM     10  C   UNL     1       6.682   5.329  17.068  0.00  0.00    +0.000 C 
ATOM     11  C   UNL     1       5.951   6.466  16.342  0.00  0.00    +0.000 C 
ATOM     12  C   UNL     1       5.055   5.915  15.235  0.00  0.00    +0.000 C 
ATOM     13  C   UNL     1       5.885   5.141  14.212  0.00  0.00    +0.000 C 
ATOM     14  C   UNL     1       6.783   4.084  14.855  0.00  0.00    +0.000 C 
ATOM     15  C   UNL     1       7.578   4.611  16.056  0.00  0.00    +0.000 C 
ATOM     16  O   UNL     1       5.748   4.388  17.592  0.00  0.00    +0.000 OA
ENDBRANCH   5   7
BRANCH   1  20
ATOM     17  C   UNL     1       0.802  10.441  18.758  0.00  0.00    +0.000 A 
ATOM     18  C   UNL     1       0.657   9.901  20.031  0.00  0.00    +0.000 A 
ATOM     19  C   UNL     1       1.284   8.694  20.349  0.00  0.00    +0.000 A 
ATOM     20  C   UNL     1       2.065   7.989  19.409  0.00  0.00    +0.000 A 
ATOM     21  C   UNL     1       2.214   8.577  18.139  0.00  0.00    +0.000 A 
ATOM     22  C   UNL     1       1.587   9.782  17.814  0.00  0.00    +0.000 A 
ENDBRANCH   1  20
BRANCH   3  23
ATOM     23  C   UNL     1       1.275   3.556  21.207  0.00  0.00    +0.000 C 
ATOM     24  C   UNL     1       0.928   2.204  20.619  0.00  0.00    +0.000 C 
ATOM     25  C   UNL     1       1.863   2.286  21.785  0.00  0.00    +0.000 C 
ENDBRANCH   3  23
TORSDOF 3
ENDMDL
MODEL 7
REMARK VINA RESULT:      -7.7      1.261      4.302
REMARK  Name = 
REMARK  3 active torsions:
REMARK  status: ('A' for Active; 'I' for Inactive)
REMARK    1  A    between atoms: C_4  and  C_5
REMARK    2  A    between atoms: C_7  and  C_8
REMARK    3  A    between atoms: C_12  and  C_13
REMARK                            x       y       z     vdW  Elec       q    Type
REMARK                         _______ _______ _______ _____ _____    ______ ____
ROOT
ATOM      1  C   UNL     1       6.256   5.709  16.758  0.00  0.00    +0.000 A 
ATOM      2  N   UNL     1       6.324   5.647  15.414  0.00  0.00    +0.000 NA
ATOM      3  C   UNL     1       5.722   4.612  14.799  0.00  0.00    +0.000 A 
ATOM      4  C   UNL     1       5.078   3.642  15.536  0.00  0.00    +0.000 A 
ATOM      5  C   UNL     1       4.963   3.821  16.905  0.00  0.00    +0.000 A 
ATOM      6  N   UNL     1       5.549   4.858  17.530  0.00  0.00    +0.000 NA
ENDROOT
BRANCH   5   7
ATOM      7  C   UNL     1       4.030   2.904  17.684  0.00  0.00    +0.000 C 
ATOM      8  C   UNL     1       2.780   2.426  16.965  0.00  0.00    +0.000 C 
ATOM      9  O   UNL     1       1.662   2.767  17.792  0.00  0.00    +0.000 OA
ATOM     10  C   UNL     1       2.150   3.666  18.783  0.00  0.00    +0.000 C 
ATOM     11  C   UNL     1       1.761   5.104  18.415  0.00  0.00    +0.000 C 
ATOM     12  C   UNL     1       2.324   6.095  19.430  0.00  0.00    +0.000 C 
ATOM     13  C   UNL     1       1.788   5.790  20.829  0.00  0.00    +0.000 C 
ATOM     14  C   UNL     1       1.981   4.327  21.231  0.00  0.00    +0.000 C 
ATOM     15  C   UNL     1       1.539   3.336  20.146  0.00  0.00    +0.000 C 
ATOM     16  O   UNL     1       3.567   3.540  18.881  0.00  0.00    +0.000 OA
ENDBRANCH   5   7
BRANCH   1  20
ATOM     17  C   UNL     1       8.637   8.650  18.820  0.00  0.00    +0.000 A 
ATOM     18  C   UNL     1       8.593   7.339  19.280  0.00  0.00    +0.000 A 
ATOM     19  C   UNL     1       7.852   6.383  18.582  0.00  0.00    +0.000 A 
ATOM     20  C   UNL     1       7.131   6.706  17.414  0.00  0.00    +0.000 A 
ATOM     21  C   UNL     1       7.219   8.035  16.960  0.00  0.00    +0.000 A 
ATOM     22  C   UNL     1       7.956   8.997  17.655  0.00  0.00    +0.000 A 
ENDBRANCH   1  20
BRANCH   3  23
ATOM     23  C   UNL     1       5.763   4.548  13.292  0.00  0.00    +0.000 C 
ATOM     24  C   UNL     1       6.893   3.841  12.574  0.00  0.00    +0.000 C 
ATOM     25  C   UNL     1       5.532   3.220  12.602  0.00  0.00    +0.000 C 
ENDBRANCH   3  23
TORSDOF 3
ENDMDL
MODEL 8
REMARK VINA RESULT:      -7.6      1.321      2.103
REMARK  Name = 
REMARK  3 active torsions:
REMARK  status: ('A' for Active; 'I' for Inactive)
REMARK    1  A    between atoms: C_4  and  C_5
REMARK    2  A    between atoms: C_7  and  C_8
REMARK    3  A    between atoms: C_12  and  C_13
REMARK                            x       y       z     vdW  Elec       q    Type
REMARK                         _______ _______ _______ _____ _____    ______ ____
ROOT
ATOM      1  C   UNL     1       5.759   4.724  15.527  0.00  0.00    +0.000 A 
ATOM      2  N   UNL     1       6.840   4.794  16.329  0.00  0.00    +0.000 NA
ATOM      3  C   UNL     1       6.682   5.322  17.558  0.00  0.00    +0.000 A 
ATOM      4  C   UNL     1       5.451   5.789  17.961  0.00  0.00    +0.000 A 
ATOM      5  C   UNL     1       4.363   5.595  17.124  0.00  0.00    +0.000 A 
ATOM      6  N   UNL     1       4.506   5.058  15.899  0.00  0.00    +0.000 NA
ENDROOT
BRANCH   5   7
ATOM      7  C   UNL     1       2.967   5.861  17.669  0.00  0.00    +0.000 C 
ATOM      8  C   UNL     1       2.836   6.954  18.716  0.00  0.00    +0.000 C 
ATOM      9  O   UNL     1       2.184   6.374  19.851  0.00  0.00    +0.000 OA
ATOM     10  C   UNL     1       2.201   4.964  19.653  0.00  0.00    +0.000 C 
ATOM     11  C   UNL     1       3.306   4.333  20.511  0.00  0.00    +0.000 C 
ATOM     12  C   UNL     1       3.387   2.828  20.270  0.00  0.00    +0.000 C 
ATOM     13  C   UNL     1       2.058   2.159  20.621  0.00  0.00    +0.000 C 
ATOM     14  C   UNL     1       0.861   2.824  19.938  0.00  0.00    +0.000 C 
ATOM     15  C   UNL     1       0.862   4.352  20.067  0.00  0.00    +0.000 C 
ATOM     16  O   UNL     1       2.418   4.682  18.272  0.00  0.00    +0.000 OA
ENDBRANCH   5   7
BRANCH   1  20
ATOM     17  C   UNL     1       6.579   3.515  11.473  0.00  0.00    +0.000 A 
ATOM     18  C   UNL     1       5.390   3.140  12.088  0.00  0.00    +0.000 A 
ATOM     19  C   UNL     1       5.114   3.570  13.387  0.00  0.00    +0.000 A 
ATOM     20  C   UNL     1       6.014   4.379  14.112  0.00  0.00    +0.000 A 
ATOM     21  C   UNL     1       7.195   4.764  13.451  0.00  0.00    +0.000 A 
ATOM     22  C   UNL     1       7.479   4.334  12.152  0.00  0.00    +0.000 A 
ENDBRANCH   1  20
BRANCH   3  23
ATOM     23  C   UNL     1       7.877   5.376  18.476  0.00  0.00    +0.000 C 
ATOM     24  C   UNL     1       8.325   6.685  19.092  0.00  0.00    +0.000 C 
ATOM     25  C   UNL     1       7.665   5.651  19.950  0.00  0.00    +0.000 C 
ENDBRANCH   3  23
TORSDOF 3
ENDMDL
MODEL 9
REMARK VINA RESULT:      -7.6      3.687      5.858
REMARK  Name = 
REMARK  3 active torsions:
REMARK  status: ('A' for Active; 'I' for Inactive)
REMARK    1  A    between atoms: C_4  and  C_5
REMARK    2  A    between atoms: C_7  and  C_8
REMARK    3  A    between atoms: C_12  and  C_13
REMARK                            x       y       z     vdW  Elec       q    Type
REMARK                         _______ _______ _______ _____ _____    ______ ____
ROOT
ATOM      1  C   UNL     1       3.801   6.379  17.964  0.00  0.00    +0.000 A 
ATOM      2  N   UNL     1       3.332   5.634  18.984  0.00  0.00    +0.000 NA
ATOM      3  C   UNL     1       2.359   6.157  19.754  0.00  0.00    +0.000 A 
ATOM      4  C   UNL     1       1.884   7.426  19.507  0.00  0.00    +0.000 A 
ATOM      5  C   UNL     1       2.341   8.097  18.384  0.00  0.00    +0.000 A 
ATOM      6  N   UNL     1       3.303   7.579  17.600  0.00  0.00    +0.000 NA
ENDROOT
BRANCH   5   7
ATOM      7  C   UNL     1       1.630   9.373  17.957  0.00  0.00    +0.000 C 
ATOM      8  C   UNL     1       2.484  10.622  17.822  0.00  0.00    +0.000 C 
ATOM      9  O   UNL     1       1.881  11.635  18.634  0.00  0.00    +0.000 OA
ATOM     10  C   UNL     1       0.920  10.978  19.456  0.00  0.00    +0.000 C 
ATOM     11  C   UNL     1       1.487  10.794  20.870  0.00  0.00    +0.000 C 
ATOM     12  C   UNL     1       0.501  10.036  21.755  0.00  0.00    +0.000 C 
ATOM     13  C   UNL     1      -0.820  10.799  21.857  0.00  0.00    +0.000 C 
ATOM     14  C   UNL     1      -1.392  11.178  20.490  0.00  0.00    +0.000 C 
ATOM     15  C   UNL     1      -0.356  11.815  19.554  0.00  0.00    +0.000 C 
ATOM     16  O   UNL     1       0.590   9.715  18.881  0.00  0.00    +0.000 OA
ENDBRANCH   5   7
BRANCH   1  20
ATOM     17  C   UNL     1       7.270   4.743  16.001  0.00  0.00    +0.000 A 
ATOM     18  C   UNL     1       6.232   5.283  15.251  0.00  0.00    +0.000 A 
ATOM     19  C   UNL     1       5.130   5.848  15.896  0.00  0.00    +0.000 A 
ATOM     20  C   UNL     1       5.028   5.886  17.302  0.00  0.00    +0.000 A 
ATOM     21  C   UNL     1       6.109   5.357  18.032  0.00  0.00    +0.000 A 
ATOM     22  C   UNL     1       7.213   4.787  17.392  0.00  0.00    +0.000 A 
ENDBRANCH   1  20
BRANCH   3  23
ATOM     23  C   UNL     1       1.803   5.320  20.878  0.00  0.00    +0.000 C 
ATOM     24  C   UNL     1       0.970   4.088  20.592  0.00  0.00    +0.000 C 
ATOM     25  C   UNL     1       2.364   3.934  21.115  0.00  0.00    +0.000 C 
ENDBRANCH   3  23
TORSDOF 3
ENDMDL
