MODEL 1
REMARK VINA RESULT:      -8.0      0.000      0.000
REMARK  Name = 
REMARK  4 active torsions:
REMARK  status: ('A' for Active; 'I' for Inactive)
REMARK    1  A    between atoms: C_1  and  C_2
REMARK    2  A    between atoms: C_2  and  C_17
REMARK    3  A    between atoms: C_3  and  C_4
REMARK    4  A    between atoms: C_17  and  O_19
REMARK                            x       y       z     vdW  Elec       q    Type
REMARK                         _______ _______ _______ _____ _____    ______ ____
ROOT
ATOM      1  C   UNL     1       4.076   4.692  17.156  0.00  0.00    +0.000 C 
ATOM      2  C   UNL     1       3.754   5.852  17.755  0.00  0.00    +0.000 C 
ATOM      3 CL   UNL     1       4.203   7.392  17.083  0.00  0.00    +0.000 Cl
ATOM      4  C   UNL     1       2.982   5.921  19.027  0.00  0.00    +0.000 C 
ATOM      5  O   UNL     1       2.728   6.980  19.587  0.00  0.00    +0.000 OA
ATOM      6  C   UNL     1       2.516   4.654  19.611  0.00  0.00    +0.000 A 
ATOM      7  C   UNL     1       1.745   4.679  20.785  0.00  0.00    +0.000 A 
ATOM      8  C   UNL     1       1.291   3.485  21.349  0.00  0.00    +0.000 A 
ATOM      9  C   UNL     1       1.601   2.269  20.743  0.00  0.00    +0.000 A 
ATOM     10  C   UNL     1       2.373   2.243  19.581  0.00  0.00    +0.000 A 
ATOM     11  C   UNL     1       2.834   3.441  19.012  0.00  0.00    +0.000 A 
ATOM     12  C   UNL     1       3.676   3.401  17.801  0.00  0.00    +0.000 C 
ATOM     13  O   UNL     1       4.046   2.320  17.350  0.00  0.00    +0.000 OA
ENDROOT
BRANCH   1  16
ATOM     14  C   UNL     1       7.156   4.629  17.014  0.00  0.00    +0.000 C 
ATOM     15  C   UNL     1       6.214   4.649  15.839  0.00  0.00    +0.000 C 
ATOM     16  C   UNL     1       4.868   4.641  15.925  0.00  0.00    +0.000 C 
BRANCH  15  17
ATOM     17  C   UNL     1       6.916   4.572  14.524  0.00  0.00    +0.000 C 
ATOM     18  O   UNL     1       7.771   5.375  14.183  0.00  0.00    +0.000 OA
BRANCH  17  19
ATOM     19  O   UNL     1       6.522   3.564  13.720  0.00  0.00    +0.000 OA
ATOM     20  H   UNL     1       5.700   3.118  13.986  0.00  0.00    +0.000 HD
ENDBRANCH  17  19
ENDBRANCH  15  17
ENDBRANCH   1  16
TORSDOF 3
ENDMDL
MODEL 2
REMARK VINA RESULT:      -7.1      1.876      2.996
REMARK  Name = 
REMARK  4 active torsions:
REMARK  status: ('A' for Active; 'I' for Inactive)
REMARK    1  A    between atoms: C_1  and  C_2
REMARK    2  A    between atoms: C_2  and  C_17
REMARK    3  A    between atoms: C_3  and  C_4
REMARK    4  A    between atoms: C_17  and  O_19
REMARK                            x       y       z     vdW  Elec       q    Type
REMARK                         _______ _______ _______ _____ _____    ______ ____
ROOT
ATOM      1  C   UNL     1       3.934   4.913  17.322  0.00  0.00    +0.000 C 
ATOM      2  C   UNL     1       3.482   3.872  18.044  0.00  0.00    +0.000 C 
ATOM      3 CL   UNL     1       3.906   2.230  17.659  0.00  0.00    +0.000 Cl
ATOM      4  C   UNL     1       2.598   4.033  19.232  0.00  0.00    +0.000 C 
ATOM      5  O   UNL     1       2.158   3.078  19.859  0.00  0.00    +0.000 OA
ATOM      6  C   UNL     1       2.258   5.402  19.648  0.00  0.00    +0.000 A 
ATOM      7  C   UNL     1       1.465   5.598  20.791  0.00  0.00    +0.000 A 
ATOM      8  C   UNL     1       1.137   6.892  21.201  0.00  0.00    +0.000 A 
ATOM      9  C   UNL     1       1.601   7.988  20.477  0.00  0.00    +0.000 A 
ATOM     10  C   UNL     1       2.383   7.794  19.338  0.00  0.00    +0.000 A 
ATOM     11  C   UNL     1       2.712   6.495  18.919  0.00  0.00    +0.000 A 
ATOM     12  C   UNL     1       3.513   6.300  17.696  0.00  0.00    +0.000 C 
ATOM     13  O   UNL     1       3.809   7.267  16.999  0.00  0.00    +0.000 OA
ENDROOT
BRANCH   1  16
ATOM     14  C   UNL     1       7.018   4.923  17.293  0.00  0.00    +0.000 C 
ATOM     15  C   UNL     1       6.121   4.772  16.094  0.00  0.00    +0.000 C 
ATOM     16  C   UNL     1       4.773   4.734  16.134  0.00  0.00    +0.000 C 
BRANCH  15  17
ATOM     17  C   UNL     1       6.873   4.554  14.822  0.00  0.00    +0.000 C 
ATOM     18  O   UNL     1       7.781   5.285  14.459  0.00  0.00    +0.000 OA
BRANCH  17  19
ATOM     19  O   UNL     1       6.463   3.504  14.083  0.00  0.00    +0.000 OA
ATOM     20  H   UNL     1       7.175   2.958  13.707  0.00  0.00    +0.000 HD
ENDBRANCH  17  19
ENDBRANCH  15  17
ENDBRANCH   1  16
TORSDOF 3
ENDMDL
MODEL 3
REMARK VINA RESULT:      -6.9      2.358      3.592
REMARK  Name = 
REMARK  4 active torsions:
REMARK  status: ('A' for Active; 'I' for Inactive)
REMARK    1  A    between atoms: C_1  and  C_2
REMARK    2  A    between atoms: C_2  and  C_17
REMARK    3  A    between atoms: C_3  and  C_4
REMARK    4  A    between atoms: C_17  and  O_19
REMARK                            x       y       z     vdW  Elec       q    Type
REMARK                         _______ _______ _______ _____ _____    ______ ____
ROOT
ATOM      1  C   UNL     1       3.886   5.830  17.800  0.00  0.00    +0.000 C 
ATOM      2  C   UNL     1       3.629   5.111  18.907  0.00  0.00    +0.000 C 
ATOM      3 CL   UNL     1       4.332   3.541  19.170  0.00  0.00    +0.000 Cl
ATOM      4  C   UNL     1       2.739   5.593  20.000  0.00  0.00    +0.000 C 
ATOM      5  O   UNL     1       2.479   4.915  20.985  0.00  0.00    +0.000 OA
ATOM      6  C   UNL     1       2.167   6.941  19.867  0.00  0.00    +0.000 A 
ATOM      7  C   UNL     1       1.361   7.452  20.897  0.00  0.00    +0.000 A 
ATOM      8  C   UNL     1       0.814   8.732  20.788  0.00  0.00    +0.000 A 
ATOM      9  C   UNL     1       1.072   9.503  19.657  0.00  0.00    +0.000 A 
ATOM     10  C   UNL     1       1.868   8.994  18.630  0.00  0.00    +0.000 A 
ATOM     11  C   UNL     1       2.417   7.706  18.733  0.00  0.00    +0.000 A 
ATOM     12  C   UNL     1       3.230   7.165  17.628  0.00  0.00    +0.000 C 
ATOM     13  O   UNL     1       3.346   7.804  16.585  0.00  0.00    +0.000 OA
ENDROOT
BRANCH   1  16
ATOM     14  C   UNL     1       6.906   6.373  17.493  0.00  0.00    +0.000 C 
ATOM     15  C   UNL     1       6.047   5.580  16.545  0.00  0.00    +0.000 C 
ATOM     16  C   UNL     1       4.734   5.324  16.718  0.00  0.00    +0.000 C 
BRANCH  15  17
ATOM     17  C   UNL     1       6.818   4.988  15.411  0.00  0.00    +0.000 C 
ATOM     18  O   UNL     1       7.766   5.556  14.890  0.00  0.00    +0.000 OA
BRANCH  17  19
ATOM     19  O   UNL     1       6.379   3.789  14.980  0.00  0.00    +0.000 OA
ATOM     20  H   UNL     1       7.030   3.068  15.026  0.00  0.00    +0.000 HD
ENDBRANCH  17  19
ENDBRANCH  15  17
ENDBRANCH   1  16
TORSDOF 3
ENDMDL
MODEL 4
REMARK VINA RESULT:      -6.8      2.262      3.524
REMARK  Name = 
REMARK  4 active torsions:
REMARK  status: ('A' for Active; 'I' for Inactive)
REMARK    1  A    between atoms: C_1  and  C_2
REMARK    2  A    between atoms: C_2  and  C_17
REMARK    3  A    between atoms: C_3  and  C_4
REMARK    4  A    between atoms: C_17  and  O_19
REMARK                            x       y       z     vdW  Elec       q    Type
REMARK                         _______ _______ _______ _____ _____    ______ ____
ROOT
ATOM      1  C   UNL     1       4.757   5.306  17.951  0.00  0.00    +0.000 C 
ATOM      2  C   UNL     1       4.792   4.112  17.333  0.00  0.00    +0.000 C 
ATOM      3 CL   UNL     1       6.047   3.696  16.203  0.00  0.00    +0.000 Cl
ATOM      4  C   UNL     1       3.777   3.048  17.568  0.00  0.00    +0.000 C 
ATOM      5  O   UNL     1       3.793   1.979  16.971  0.00  0.00    +0.000 OA
ATOM      6  C   UNL     1       2.727   3.315  18.563  0.00  0.00    +0.000 A 
ATOM      7  C   UNL     1       1.779   2.319  18.849  0.00  0.00    +0.000 A 
ATOM      8  C   UNL     1       0.779   2.556  19.794  0.00  0.00    +0.000 A 
ATOM      9  C   UNL     1       0.726   3.780  20.457  0.00  0.00    +0.000 A 
ATOM     10  C   UNL     1       1.664   4.773  20.169  0.00  0.00    +0.000 A 
ATOM     11  C   UNL     1       2.669   4.540  19.216  0.00  0.00    +0.000 A 
ATOM     12  C   UNL     1       3.636   5.608  18.897  0.00  0.00    +0.000 C 
ATOM     13  O   UNL     1       3.503   6.722  19.394  0.00  0.00    +0.000 OA
ENDROOT
BRANCH   1  16
ATOM     14  C   UNL     1       7.492   5.594  19.347  0.00  0.00    +0.000 C 
ATOM     15  C   UNL     1       6.927   6.521  18.303  0.00  0.00    +0.000 C 
ATOM     16  C   UNL     1       5.743   6.356  17.680  0.00  0.00    +0.000 C 
BRANCH  15  17
ATOM     17  C   UNL     1       7.865   7.620  17.926  0.00  0.00    +0.000 C 
ATOM     18  O   UNL     1       7.888   8.114  16.809  0.00  0.00    +0.000 OA
BRANCH  17  19
ATOM     19  O   UNL     1       8.709   8.017  18.899  0.00  0.00    +0.000 OA
ATOM     20  H   UNL     1       8.319   8.598  19.575  0.00  0.00    +0.000 HD
ENDBRANCH  17  19
ENDBRANCH  15  17
ENDBRANCH   1  16
TORSDOF 3
ENDMDL
MODEL 5
REMARK VINA RESULT:      -6.6      1.393      1.753
REMARK  Name = 
REMARK  4 active torsions:
REMARK  status: ('A' for Active; 'I' for Inactive)
REMARK    1  A    between atoms: C_1  and  C_2
REMARK    2  A    between atoms: C_2  and  C_17
REMARK    3  A    between atoms: C_3  and  C_4
REMARK    4  A    between atoms: C_17  and  O_19
REMARK                            x       y       z     vdW  Elec       q    Type
REMARK                         _______ _______ _______ _____ _____    ______ ____
ROOT
ATOM      1  C   UNL     1       4.574   5.421  18.493  0.00  0.00    +0.000 C 
ATOM      2  C   UNL     1       3.502   6.224  18.612  0.00  0.00    +0.000 C 
ATOM      3 CL   UNL     1       3.385   7.736  17.760  0.00  0.00    +0.000 Cl
ATOM      4  C   UNL     1       2.328   5.889  19.466  0.00  0.00    +0.000 C 
ATOM      5  O   UNL     1       1.375   6.645  19.600  0.00  0.00    +0.000 OA
ATOM      6  C   UNL     1       2.339   4.593  20.161  0.00  0.00    +0.000 A 
ATOM      7  C   UNL     1       1.230   4.219  20.937  0.00  0.00    +0.000 A 
ATOM      8  C   UNL     1       1.224   2.990  21.600  0.00  0.00    +0.000 A 
ATOM      9  C   UNL     1       2.316   2.133  21.485  0.00  0.00    +0.000 A 
ATOM     10  C   UNL     1       3.421   2.507  20.719  0.00  0.00    +0.000 A 
ATOM     11  C   UNL     1       3.434   3.744  20.054  0.00  0.00    +0.000 A 
ATOM     12  C   UNL     1       4.620   4.143  19.273  0.00  0.00    +0.000 C 
ATOM     13  O   UNL     1       5.624   3.436  19.282  0.00  0.00    +0.000 OA
ENDROOT
BRANCH   1  16
ATOM     14  C   UNL     1       5.183   4.344  15.669  0.00  0.00    +0.000 C 
ATOM     15  C   UNL     1       6.041   5.297  16.458  0.00  0.00    +0.000 C 
ATOM     16  C   UNL     1       5.737   5.783  17.679  0.00  0.00    +0.000 C 
BRANCH  15  17
ATOM     17  C   UNL     1       7.247   5.758  15.709  0.00  0.00    +0.000 C 
ATOM     18  O   UNL     1       7.602   5.254  14.654  0.00  0.00    +0.000 OA
BRANCH  17  19
ATOM     19  O   UNL     1       7.938   6.758  16.290  0.00  0.00    +0.000 OA
ATOM     20  H   UNL     1       7.622   7.024  17.171  0.00  0.00    +0.000 HD
ENDBRANCH  17  19
ENDBRANCH  15  17
ENDBRANCH   1  16
TORSDOF 3
ENDMDL
MODEL 6
REMARK VINA RESULT:      -6.6      3.217      4.928
REMARK  Name = 
REMARK  4 active torsions:
REMARK  status: ('A' for Active; 'I' for Inactive)
REMARK    1  A    between atoms: C_1  and  C_2
REMARK    2  A    between atoms: C_2  and  C_17
REMARK    3  A    between atoms: C_3  and  C_4
REMARK    4  A    between atoms: C_17  and  O_19
REMARK                            x       y       z     vdW  Elec       q    Type
REMARK                         _______ _______ _______ _____ _____    ______ ____
ROOT
ATOM      1  C   UNL     1       3.102   5.852  19.152  0.00  0.00    +0.000 C 
ATOM      2  C   UNL     1       3.297   6.698  18.124  0.00  0.00    +0.000 C 
ATOM      3 CL   UNL     1       4.301   6.281  16.766  0.00  0.00    +0.000 Cl
ATOM      4  C   UNL     1       2.669   8.046  18.054  0.00  0.00    +0.000 C 
ATOM      5  O   UNL     1       2.885   8.826  17.135  0.00  0.00    +0.000 OA
ATOM      6  C   UNL     1       1.756   8.431  19.141  0.00  0.00    +0.000 A 
ATOM      7  C   UNL     1       1.107   9.675  19.089  0.00  0.00    +0.000 A 
ATOM      8  C   UNL     1       0.234  10.052  20.111  0.00  0.00    +0.000 A 
ATOM      9  C   UNL     1       0.005   9.191  21.182  0.00  0.00    +0.000 A 
ATOM     10  C   UNL     1       0.655   7.957  21.238  0.00  0.00    +0.000 A 
ATOM     11  C   UNL     1       1.536   7.575  20.214  0.00  0.00    +0.000 A 
ATOM     12  C   UNL     1       2.242   6.283  20.300  0.00  0.00    +0.000 C 
ATOM     13  O   UNL     1       2.129   5.590  21.307  0.00  0.00    +0.000 OA
ENDROOT
BRANCH   1  16
ATOM     14  C   UNL     1       1.843   3.173  18.288  0.00  0.00    +0.000 C 
ATOM     15  C   UNL     1       3.213   3.357  18.885  0.00  0.00    +0.000 C 
ATOM     16  C   UNL     1       3.757   4.544  19.223  0.00  0.00    +0.000 C 
BRANCH  15  17
ATOM     17  C   UNL     1       3.987   2.084  18.979  0.00  0.00    +0.000 C 
ATOM     18  O   UNL     1       3.677   1.075  18.364  0.00  0.00    +0.000 OA
BRANCH  17  19
ATOM     19  O   UNL     1       5.045   2.114  19.814  0.00  0.00    +0.000 OA
ATOM     20  H   UNL     1       5.326   3.002  20.097  0.00  0.00    +0.000 HD
ENDBRANCH  17  19
ENDBRANCH  15  17
ENDBRANCH   1  16
TORSDOF 3
ENDMDL
MODEL 7
REMARK VINA RESULT:      -6.4      1.933      2.139
REMARK  Name = 
REMARK  4 active torsions:
REMARK  status: ('A' for Active; 'I' for Inactive)
REMARK    1  A    between atoms: C_1  and  C_2
REMARK    2  A    between atoms: C_2  and  C_17
REMARK    3  A    between atoms: C_3  and  C_4
REMARK    4  A    between atoms: C_17  and  O_19
REMARK                            x       y       z     vdW  Elec       q    Type
REMARK                         _______ _______ _______ _____ _____    ______ ____
ROOT
ATOM      1  C   UNL     1       4.953   3.797  16.816  0.00  0.00    +0.000 C 
ATOM      2  C   UNL     1       5.712   4.285  17.813  0.00  0.00    +0.000 C 
ATOM      3 CL   UNL     1       7.406   4.620  17.602  0.00  0.00    +0.000 Cl
ATOM      4  C   UNL     1       5.173   4.590  19.168  0.00  0.00    +0.000 C 
ATOM      5  O   UNL     1       5.879   4.996  20.081  0.00  0.00    +0.000 OA
ATOM      6  C   UNL     1       3.733   4.391  19.389  0.00  0.00    +0.000 A 
ATOM      7  C   UNL     1       3.176   4.711  20.638  0.00  0.00    +0.000 A 
ATOM      8  C   UNL     1       1.810   4.531  20.861  0.00  0.00    +0.000 A 
ATOM      9  C   UNL     1       0.998   4.037  19.843  0.00  0.00    +0.000 A 
ATOM     10  C   UNL     1       1.552   3.712  18.604  0.00  0.00    +0.000 A 
ATOM     11  C   UNL     1       2.926   3.888  18.375  0.00  0.00    +0.000 A 
ATOM     12  C   UNL     1       3.506   3.511  17.072  0.00  0.00    +0.000 C 
ATOM     13  O   UNL     1       2.805   2.960  16.227  0.00  0.00    +0.000 OA
ENDROOT
BRANCH   1  16
ATOM     14  C   UNL     1       5.563   5.824  14.574  0.00  0.00    +0.000 C 
ATOM     15  C   UNL     1       5.747   4.332  14.494  0.00  0.00    +0.000 C 
ATOM     16  C   UNL     1       5.508   3.467  15.501  0.00  0.00    +0.000 C 
BRANCH  15  17
ATOM     17  C   UNL     1       6.338   3.883  13.198  0.00  0.00    +0.000 C 
ATOM     18  O   UNL     1       7.197   4.520  12.608  0.00  0.00    +0.000 OA
BRANCH  17  19
ATOM     19  O   UNL     1       5.839   2.731  12.707  0.00  0.00    +0.000 OA
ATOM     20  H   UNL     1       5.047   2.395  13.161  0.00  0.00    +0.000 HD
ENDBRANCH  17  19
ENDBRANCH  15  17
ENDBRANCH   1  16
TORSDOF 3
ENDMDL
MODEL 8
REMARK VINA RESULT:      -6.4      2.679      4.051
REMARK  Name = 
REMARK  4 active torsions:
REMARK  status: ('A' for Active; 'I' for Inactive)
REMARK    1  A    between atoms: C_1  and  C_2
REMARK    2  A    between atoms: C_2  and  C_17
REMARK    3  A    between atoms: C_3  and  C_4
REMARK    4  A    between atoms: C_17  and  O_19
REMARK                            x       y       z     vdW  Elec       q    Type
REMARK                         _______ _______ _______ _____ _____    ______ ____
ROOT
ATOM      1  C   UNL     1       3.824   6.035  18.058  0.00  0.00    +0.000 C 
ATOM      2  C   UNL     1       3.288   5.553  19.193  0.00  0.00    +0.000 C 
ATOM      3 CL   UNL     1       3.732   3.999  19.835  0.00  0.00    +0.000 Cl
ATOM      4  C   UNL     1       2.285   6.304  19.999  0.00  0.00    +0.000 C 
ATOM      5  O   UNL     1       1.772   5.841  21.009  0.00  0.00    +0.000 OA
ATOM      6  C   UNL     1       1.918   7.654  19.543  0.00  0.00    +0.000 A 
ATOM      7  C   UNL     1       1.012   8.414  20.300  0.00  0.00    +0.000 A 
ATOM      8  C   UNL     1       0.656   9.698  19.883  0.00  0.00    +0.000 A 
ATOM      9  C   UNL     1       1.205  10.226  18.717  0.00  0.00    +0.000 A 
ATOM     10  C   UNL     1       2.101   9.469  17.960  0.00  0.00    +0.000 A 
ATOM     11  C   UNL     1       2.458   8.175  18.374  0.00  0.00    +0.000 A 
ATOM     12  C   UNL     1       3.381   7.372  17.550  0.00  0.00    +0.000 C 
ATOM     13  O   UNL     1       3.759   7.799  16.462  0.00  0.00    +0.000 OA
ENDROOT
BRANCH   1  16
ATOM     14  C   UNL     1       6.893   6.159  18.336  0.00  0.00    +0.000 C 
ATOM     15  C   UNL     1       6.126   5.333  17.338  0.00  0.00    +0.000 C 
ATOM     16  C   UNL     1       4.781   5.266  17.257  0.00  0.00    +0.000 C 
BRANCH  15  17
ATOM     17  C   UNL     1       7.005   4.482  16.482  0.00  0.00    +0.000 C 
ATOM     18  O   UNL     1       8.141   4.172  16.806  0.00  0.00    +0.000 OA
BRANCH  17  19
ATOM     19  O   UNL     1       6.467   4.096  15.308  0.00  0.00    +0.000 OA
ATOM     20  H   UNL     1       5.863   4.739  14.897  0.00  0.00    +0.000 HD
ENDBRANCH  17  19
ENDBRANCH  15  17
ENDBRANCH   1  16
TORSDOF 3
ENDMDL
MODEL 9
REMARK VINA RESULT:      -6.4      2.715      3.559
REMARK  Name = 
REMARK  4 active torsions:
REMARK  status: ('A' for Active; 'I' for Inactive)
REMARK    1  A    between atoms: C_1  and  C_2
REMARK    2  A    between atoms: C_2  and  C_17
REMARK    3  A    between atoms: C_3  and  C_4
REMARK    4  A    between atoms: C_17  and  O_19
REMARK                            x       y       z     vdW  Elec       q    Type
REMARK                         _______ _______ _______ _____ _____    ______ ____
ROOT
ATOM      1  C   UNL     1       6.188   5.868  16.428  0.00  0.00    +0.000 C 
ATOM      2  C   UNL     1       6.456   5.105  17.503  0.00  0.00    +0.000 C 
ATOM      3 CL   UNL     1       7.900   4.142  17.611  0.00  0.00    +0.000 Cl
ATOM      4  C   UNL     1       5.557   5.028  18.688  0.00  0.00    +0.000 C 
ATOM      5  O   UNL     1       5.789   4.300  19.644  0.00  0.00    +0.000 OA
ATOM      6  C   UNL     1       4.351   5.871  18.685  0.00  0.00    +0.000 A 
ATOM      7  C   UNL     1       3.502   5.863  19.803  0.00  0.00    +0.000 A 
ATOM      8  C   UNL     1       2.356   6.661  19.817  0.00  0.00    +0.000 A 
ATOM      9  C   UNL     1       2.059   7.469  18.722  0.00  0.00    +0.000 A 
ATOM     10  C   UNL     1       2.900   7.473  17.607  0.00  0.00    +0.000 A 
ATOM     11  C   UNL     1       4.051   6.669  17.587  0.00  0.00    +0.000 A 
ATOM     12  C   UNL     1       4.915   6.656  16.392  0.00  0.00    +0.000 C 
ATOM     13  O   UNL     1       4.576   7.275  15.386  0.00  0.00    +0.000 OA
ENDROOT
BRANCH   1  16
ATOM     14  C   UNL     1       5.955   4.027  13.966  0.00  0.00    +0.000 C 
ATOM     15  C   UNL     1       7.003   5.084  14.186  0.00  0.00    +0.000 C 
ATOM     16  C   UNL     1       7.065   5.904  15.256  0.00  0.00    +0.000 C 
BRANCH  15  17
ATOM     17  C   UNL     1       7.941   5.229  13.033  0.00  0.00    +0.000 C 
ATOM     18  O   UNL     1       8.945   5.923  13.082  0.00  0.00    +0.000 OA
BRANCH  17  19
ATOM     19  O   UNL     1       7.591   4.559  11.918  0.00  0.00    +0.000 OA
ATOM     20  H   UNL     1       6.938   5.007  11.352  0.00  0.00    +0.000 HD
ENDBRANCH  17  19
ENDBRANCH  15  17
ENDBRANCH   1  16
TORSDOF 3
ENDMDL
