MODEL 1
REMARK VINA RESULT:      -8.6      0.000      0.000
REMARK  Name = 
REMARK  6 active torsions:
REMARK  status: ('A' for Active; 'I' for Inactive)
REMARK    1  A    between atoms: C_1  and  N_2
REMARK    2  A    between atoms: C_4  and  C_5
REMARK    3  A    between atoms: C_5  and  C_7
REMARK    4  A    between atoms: C_18  and  C_19
REMARK    5  A    between atoms: C_20  and  C_21
REMARK    6  A    between atoms: N_23  and  O_24
REMARK                            x       y       z     vdW  Elec       q    Type
REMARK                         _______ _______ _______ _____ _____    ______ ____
ROOT
ATOM      1  C   UNL     1       7.757   4.507  17.380  0.00  0.00    +0.000 C 
ATOM      2  N   UNL     1       6.528   5.119  16.918  0.00  0.00    +0.000 N 
ATOM      3  C   UNL     1       5.708   5.799  17.787  0.00  0.00    +0.000 A 
ATOM      4  C   UNL     1       4.593   6.241  17.108  0.00  0.00    +0.000 A 
ATOM      5  C   UNL     1       4.787   5.844  15.756  0.00  0.00    +0.000 A 
ATOM      6  C   UNL     1       5.975   5.135  15.642  0.00  0.00    +0.000 A 
ENDROOT
BRANCH   4   7
ATOM      7  C   UNL     1       3.499   6.971  17.749  0.00  0.00    +0.000 C 
ATOM      8  O   UNL     1       3.277   8.140  17.452  0.00  0.00    +0.000 OA
BRANCH   7   9
ATOM      9  C   UNL     1       2.693   6.286  18.814  0.00  0.00    +0.000 A 
ATOM     10  C   UNL     1       2.266   7.048  19.920  0.00  0.00    +0.000 A 
ATOM     11  C   UNL     1       1.537   6.466  20.948  0.00  0.00    +0.000 A 
ATOM     12  C   UNL     1       1.194   5.120  20.870  0.00  0.00    +0.000 A 
ATOM     13  C   UNL     1       1.554   4.342  19.757  0.00  0.00    +0.000 A 
ATOM     14  C   UNL     1       1.157   2.996  19.692  0.00  0.00    +0.000 A 
ATOM     15  C   UNL     1       1.484   2.202  18.594  0.00  0.00    +0.000 A 
ATOM     16  C   UNL     1       2.217   2.738  17.550  0.00  0.00    +0.000 A 
ATOM     17  C   UNL     1       2.629   4.073  17.607  0.00  0.00    +0.000 A 
ATOM     18  C   UNL     1       2.312   4.916  18.702  0.00  0.00    +0.000 A 
ENDBRANCH   7   9
ENDBRANCH   4   7
BRANCH   6  19
ATOM     19  C   UNL     1       6.603   4.512  14.514  0.00  0.00    +0.000 C 
ATOM     20  C   UNL     1       5.903   4.069  13.449  0.00  0.00    +0.000 C 
BRANCH  20  21
ATOM     21  C   UNL     1       6.594   3.432  12.292  0.00  0.00    +0.000 C 
ATOM     22  O   UNL     1       7.437   4.000  11.616  0.00  0.00    +0.000 OA
ATOM     23  N   UNL     1       6.194   2.138  12.058  0.00  0.00    +0.000 N 
ATOM     24  H   UNL     1       5.500   1.622  12.587  0.00  0.00    +0.000 HD
BRANCH  23  25
ATOM     25  O   UNL     1       6.805   1.456  10.986  0.00  0.00    +0.000 OA
ATOM     26  H   UNL     1       6.313   0.607  10.959  0.00  0.00    +0.000 HD
ENDBRANCH  23  25
ENDBRANCH  20  21
ENDBRANCH   6  19
TORSDOF 5
ENDMDL
MODEL 2
REMARK VINA RESULT:      -8.2      2.288      2.996
REMARK  Name = 
REMARK  6 active torsions:
REMARK  status: ('A' for Active; 'I' for Inactive)
REMARK    1  A    between atoms: C_1  and  N_2
REMARK    2  A    between atoms: C_4  and  C_5
REMARK    3  A    between atoms: C_5  and  C_7
REMARK    4  A    between atoms: C_18  and  C_19
REMARK    5  A    between atoms: C_20  and  C_21
REMARK    6  A    between atoms: N_23  and  O_24
REMARK                            x       y       z     vdW  Elec       q    Type
REMARK                         _______ _______ _______ _____ _____    ______ ____
ROOT
ATOM      1  C   UNL     1       8.066   5.300  13.360  0.00  0.00    +0.000 C 
ATOM      2  N   UNL     1       7.071   4.864  14.318  0.00  0.00    +0.000 N 
ATOM      3  C   UNL     1       7.160   5.225  15.642  0.00  0.00    +0.000 A 
ATOM      4  C   UNL     1       6.122   4.648  16.341  0.00  0.00    +0.000 A 
ATOM      5  C   UNL     1       5.351   3.948  15.372  0.00  0.00    +0.000 A 
ATOM      6  C   UNL     1       5.948   4.068  14.123  0.00  0.00    +0.000 A 
ENDROOT
BRANCH   4   7
ATOM      7  C   UNL     1       5.942   4.801  17.785  0.00  0.00    +0.000 C 
ATOM      8  O   UNL     1       6.813   4.421  18.561  0.00  0.00    +0.000 OA
BRANCH   7   9
ATOM      9  C   UNL     1       4.655   5.373  18.302  0.00  0.00    +0.000 A 
ATOM     10  C   UNL     1       4.251   6.638  17.830  0.00  0.00    +0.000 A 
ATOM     11  C   UNL     1       3.081   7.230  18.288  0.00  0.00    +0.000 A 
ATOM     12  C   UNL     1       2.280   6.550  19.200  0.00  0.00    +0.000 A 
ATOM     13  C   UNL     1       2.622   5.265  19.650  0.00  0.00    +0.000 A 
ATOM     14  C   UNL     1       1.769   4.591  20.540  0.00  0.00    +0.000 A 
ATOM     15  C   UNL     1       2.071   3.307  20.994  0.00  0.00    +0.000 A 
ATOM     16  C   UNL     1       3.230   2.682  20.570  0.00  0.00    +0.000 A 
ATOM     17  C   UNL     1       4.094   3.346  19.694  0.00  0.00    +0.000 A 
ATOM     18  C   UNL     1       3.821   4.649  19.204  0.00  0.00    +0.000 A 
ENDBRANCH   7   9
ENDBRANCH   4   7
BRANCH   6  19
ATOM     19  C   UNL     1       5.581   3.539  12.842  0.00  0.00    +0.000 C 
ATOM     20  C   UNL     1       4.377   3.773  12.280  0.00  0.00    +0.000 C 
BRANCH  20  21
ATOM     21  C   UNL     1       4.036   3.209  10.943  0.00  0.00    +0.000 C 
ATOM     22  O   UNL     1       4.385   2.100  10.572  0.00  0.00    +0.000 OA
ATOM     23  N   UNL     1       3.284   4.057  10.165  0.00  0.00    +0.000 N 
ATOM     24  H   UNL     1       2.969   4.986  10.425  0.00  0.00    +0.000 HD
BRANCH  23  25
ATOM     25  O   UNL     1       2.908   3.599   8.885  0.00  0.00    +0.000 OA
ATOM     26  H   UNL     1       3.369   2.735   8.820  0.00  0.00    +0.000 HD
ENDBRANCH  23  25
ENDBRANCH  20  21
ENDBRANCH   6  19
TORSDOF 5
ENDMDL
MODEL 3
REMARK VINA RESULT:      -8.1      2.404      3.648
REMARK  Name = 
REMARK  6 active torsions:
REMARK  status: ('A' for Active; 'I' for Inactive)
REMARK    1  A    between atoms: C_1  and  N_2
REMARK    2  A    between atoms: C_4  and  C_5
REMARK    3  A    between atoms: C_5  and  C_7
REMARK    4  A    between atoms: C_18  and  C_19
REMARK    5  A    between atoms: C_20  and  C_21
REMARK    6  A    between atoms: N_23  and  O_24
REMARK                            x       y       z     vdW  Elec       q    Type
REMARK                         _______ _______ _______ _____ _____    ______ ____
ROOT
ATOM      1  C   UNL     1       7.960   5.409  13.043  0.00  0.00    +0.000 C 
ATOM      2  N   UNL     1       7.148   4.829  14.093  0.00  0.00    +0.000 N 
ATOM      3  C   UNL     1       7.372   5.140  15.413  0.00  0.00    +0.000 A 
ATOM      4  C   UNL     1       6.499   4.426  16.204  0.00  0.00    +0.000 A 
ATOM      5  C   UNL     1       5.683   3.690  15.302  0.00  0.00    +0.000 A 
ATOM      6  C   UNL     1       6.095   3.925  13.997  0.00  0.00    +0.000 A 
ENDROOT
BRANCH   4   7
ATOM      7  C   UNL     1       6.495   4.497  17.665  0.00  0.00    +0.000 C 
ATOM      8  O   UNL     1       7.552   4.496  18.288  0.00  0.00    +0.000 OA
BRANCH   7   9
ATOM      9  C   UNL     1       5.181   4.512  18.390  0.00  0.00    +0.000 A 
ATOM     10  C   UNL     1       4.874   3.430  19.238  0.00  0.00    +0.000 A 
ATOM     11  C   UNL     1       3.665   3.376  19.917  0.00  0.00    +0.000 A 
ATOM     12  C   UNL     1       2.757   4.422  19.785  0.00  0.00    +0.000 A 
ATOM     13  C   UNL     1       3.050   5.543  18.993  0.00  0.00    +0.000 A 
ATOM     14  C   UNL     1       2.127   6.599  18.914  0.00  0.00    +0.000 A 
ATOM     15  C   UNL     1       2.396   7.734  18.149  0.00  0.00    +0.000 A 
ATOM     16  C   UNL     1       3.585   7.827  17.448  0.00  0.00    +0.000 A 
ATOM     17  C   UNL     1       4.507   6.778  17.509  0.00  0.00    +0.000 A 
ATOM     18  C   UNL     1       4.276   5.610  18.279  0.00  0.00    +0.000 A 
ENDBRANCH   7   9
ENDBRANCH   4   7
BRANCH   6  19
ATOM     19  C   UNL     1       5.620   3.414  12.745  0.00  0.00    +0.000 C 
ATOM     20  C   UNL     1       4.437   3.788  12.213  0.00  0.00    +0.000 C 
BRANCH  20  21
ATOM     21  C   UNL     1       3.981   3.239  10.905  0.00  0.00    +0.000 C 
ATOM     22  O   UNL     1       4.198   2.093  10.544  0.00  0.00    +0.000 OA
ATOM     23  N   UNL     1       3.285   4.145  10.141  0.00  0.00    +0.000 N 
ATOM     24  H   UNL     1       3.079   5.106  10.392  0.00  0.00    +0.000 HD
BRANCH  23  25
ATOM     25  O   UNL     1       2.808   3.705   8.889  0.00  0.00    +0.000 OA
ATOM     26  H   UNL     1       3.076   2.761   8.873  0.00  0.00    +0.000 HD
ENDBRANCH  23  25
ENDBRANCH  20  21
ENDBRANCH   6  19
TORSDOF 5
ENDMDL
MODEL 4
REMARK VINA RESULT:      -8.1      6.884      9.207
REMARK  Name = 
REMARK  6 active torsions:
REMARK  status: ('A' for Active; 'I' for Inactive)
REMARK    1  A    between atoms: C_1  and  N_2
REMARK    2  A    between atoms: C_4  and  C_5
REMARK    3  A    between atoms: C_5  and  C_7
REMARK    4  A    between atoms: C_18  and  C_19
REMARK    5  A    between atoms: C_20  and  C_21
REMARK    6  A    between atoms: N_23  and  O_24
REMARK                            x       y       z     vdW  Elec       q    Type
REMARK                         _______ _______ _______ _____ _____    ______ ____
ROOT
ATOM      1  C   UNL     1      -5.322  11.722  17.830  0.00  0.00    +0.000 C 
ATOM      2  N   UNL     1      -3.880  11.585  17.804  0.00  0.00    +0.000 N 
ATOM      3  C   UNL     1      -3.129  11.806  18.934  0.00  0.00    +0.000 A 
ATOM      4  C   UNL     1      -1.794  11.655  18.630  0.00  0.00    +0.000 A 
ATOM      5  C   UNL     1      -1.755  11.277  17.259  0.00  0.00    +0.000 A 
ATOM      6  C   UNL     1      -3.045  11.251  16.744  0.00  0.00    +0.000 A 
ENDROOT
BRANCH   4   7
ATOM      7  C   UNL     1      -0.720  11.856  19.602  0.00  0.00    +0.000 C 
ATOM      8  O   UNL     1      -0.221  12.967  19.753  0.00  0.00    +0.000 OA
BRANCH   7   9
ATOM      9  C   UNL     1      -0.199  10.674  20.368  0.00  0.00    +0.000 A 
ATOM     10  C   UNL     1      -0.637  10.494  21.695  0.00  0.00    +0.000 A 
ATOM     11  C   UNL     1      -0.173   9.433  22.461  0.00  0.00    +0.000 A 
ATOM     12  C   UNL     1       0.709   8.515  21.899  0.00  0.00    +0.000 A 
ATOM     13  C   UNL     1       1.124   8.631  20.562  0.00  0.00    +0.000 A 
ATOM     14  C   UNL     1       1.985   7.664  20.016  0.00  0.00    +0.000 A 
ATOM     15  C   UNL     1       2.402   7.741  18.687  0.00  0.00    +0.000 A 
ATOM     16  C   UNL     1       1.972   8.786  17.890  0.00  0.00    +0.000 A 
ATOM     17  C   UNL     1       1.125   9.762  18.425  0.00  0.00    +0.000 A 
ATOM     18  C   UNL     1       0.672   9.718  19.767  0.00  0.00    +0.000 A 
ENDBRANCH   7   9
ENDBRANCH   4   7
BRANCH   6  19
ATOM     19  C   UNL     1      -3.535  10.956  15.429  0.00  0.00    +0.000 C 
ATOM     20  C   UNL     1      -2.998   9.989  14.657  0.00  0.00    +0.000 C 
BRANCH  20  21
ATOM     21  C   UNL     1      -3.540   9.709  13.297  0.00  0.00    +0.000 C 
ATOM     22  O   UNL     1      -2.836   9.473  12.328  0.00  0.00    +0.000 OA
ATOM     23  N   UNL     1      -4.913   9.736  13.237  0.00  0.00    +0.000 N 
ATOM     24  H   UNL     1      -5.542   9.927  14.010  0.00  0.00    +0.000 HD
BRANCH  23  25
ATOM     25  O   UNL     1      -5.512   9.473  11.988  0.00  0.00    +0.000 OA
ATOM     26  H   UNL     1      -4.967  10.005  11.369  0.00  0.00    +0.000 HD
ENDBRANCH  23  25
ENDBRANCH  20  21
ENDBRANCH   6  19
TORSDOF 5
ENDMDL
MODEL 5
REMARK VINA RESULT:      -8.1      3.887      8.355
REMARK  Name = 
REMARK  6 active torsions:
REMARK  status: ('A' for Active; 'I' for Inactive)
REMARK    1  A    between atoms: C_1  and  N_2
REMARK    2  A    between atoms: C_4  and  C_5
REMARK    3  A    between atoms: C_5  and  C_7
REMARK    4  A    between atoms: C_18  and  C_19
REMARK    5  A    between atoms: C_20  and  C_21
REMARK    6  A    between atoms: N_23  and  O_24
REMARK                            x       y       z     vdW  Elec       q    Type
REMARK                         _______ _______ _______ _____ _____    ______ ____
ROOT
ATOM      1  C   UNL     1       1.891   9.671  17.629  0.00  0.00    +0.000 C 
ATOM      2  N   UNL     1       2.134   8.474  18.408  0.00  0.00    +0.000 N 
ATOM      3  C   UNL     1       2.839   7.419  17.879  0.00  0.00    +0.000 A 
ATOM      4  C   UNL     1       2.890   6.397  18.802  0.00  0.00    +0.000 A 
ATOM      5  C   UNL     1       2.220   6.892  19.955  0.00  0.00    +0.000 A 
ATOM      6  C   UNL     1       1.737   8.170  19.705  0.00  0.00    +0.000 A 
ENDROOT
BRANCH   4   7
ATOM      7  C   UNL     1       3.537   5.111  18.544  0.00  0.00    +0.000 C 
ATOM      8  O   UNL     1       2.894   4.069  18.618  0.00  0.00    +0.000 OA
BRANCH   7   9
ATOM      9  C   UNL     1       5.008   5.084  18.247  0.00  0.00    +0.000 A 
ATOM     10  C   UNL     1       5.908   5.227  19.321  0.00  0.00    +0.000 A 
ATOM     11  C   UNL     1       7.280   5.232  19.107  0.00  0.00    +0.000 A 
ATOM     12  C   UNL     1       7.773   5.060  17.817  0.00  0.00    +0.000 A 
ATOM     13  C   UNL     1       6.908   4.859  16.729  0.00  0.00    +0.000 A 
ATOM     14  C   UNL     1       7.442   4.648  15.447  0.00  0.00    +0.000 A 
ATOM     15  C   UNL     1       6.611   4.430  14.349  0.00  0.00    +0.000 A 
ATOM     16  C   UNL     1       5.238   4.425  14.514  0.00  0.00    +0.000 A 
ATOM     17  C   UNL     1       4.693   4.645  15.783  0.00  0.00    +0.000 A 
ATOM     18  C   UNL     1       5.502   4.865  16.927  0.00  0.00    +0.000 A 
ENDBRANCH   7   9
ENDBRANCH   4   7
BRANCH   6  19
ATOM     19  C   UNL     1       0.987   9.078  20.523  0.00  0.00    +0.000 C 
ATOM     20  C   UNL     1       0.932   8.965  21.866  0.00  0.00    +0.000 C 
BRANCH  20  21
ATOM     21  C   UNL     1       0.146   9.933  22.682  0.00  0.00    +0.000 C 
ATOM     22  O   UNL     1      -0.147   9.744  23.852  0.00  0.00    +0.000 OA
ATOM     23  N   UNL     1      -0.217  11.066  21.993  0.00  0.00    +0.000 N 
ATOM     24  H   UNL     1      -0.000  11.270  21.024  0.00  0.00    +0.000 HD
BRANCH  23  25
ATOM     25  O   UNL     1      -0.957  12.040  22.693  0.00  0.00    +0.000 OA
ATOM     26  H   UNL     1      -1.838  11.996  22.262  0.00  0.00    +0.000 HD
ENDBRANCH  23  25
ENDBRANCH  20  21
ENDBRANCH   6  19
TORSDOF 5
ENDMDL
MODEL 6
REMARK VINA RESULT:      -8.0      6.782      8.977
REMARK  Name = 
REMARK  6 active torsions:
REMARK  status: ('A' for Active; 'I' for Inactive)
REMARK    1  A    between atoms: C_1  and  N_2
REMARK    2  A    between atoms: C_4  and  C_5
REMARK    3  A    between atoms: C_5  and  C_7
REMARK    4  A    between atoms: C_18  and  C_19
REMARK    5  A    between atoms: C_20  and  C_21
REMARK    6  A    between atoms: N_23  and  O_24
REMARK                            x       y       z     vdW  Elec       q    Type
REMARK                         _______ _______ _______ _____ _____    ______ ____
ROOT
ATOM      1  C   UNL     1      -5.244  10.942  17.583  0.00  0.00    +0.000 C 
ATOM      2  N   UNL     1      -3.808  10.775  17.506  0.00  0.00    +0.000 N 
ATOM      3  C   UNL     1      -2.989  11.223  18.516  0.00  0.00    +0.000 A 
ATOM      4  C   UNL     1      -1.675  10.982  18.177  0.00  0.00    +0.000 A 
ATOM      5  C   UNL     1      -1.721  10.313  16.923  0.00  0.00    +0.000 A 
ATOM      6  C   UNL     1      -3.039  10.200  16.500  0.00  0.00    +0.000 A 
ENDROOT
BRANCH   4   7
ATOM      7  C   UNL     1      -0.544  11.371  19.019  0.00  0.00    +0.000 C 
ATOM      8  O   UNL     1      -0.034  12.480  18.898  0.00  0.00    +0.000 OA
BRANCH   7   9
ATOM      9  C   UNL     1       0.018  10.372  19.989  0.00  0.00    +0.000 A 
ATOM     10  C   UNL     1      -0.377  10.458  21.338  0.00  0.00    +0.000 A 
ATOM     11  C   UNL     1       0.126   9.577  22.286  0.00  0.00    +0.000 A 
ATOM     12  C   UNL     1       1.007   8.575  21.892  0.00  0.00    +0.000 A 
ATOM     13  C   UNL     1       1.382   8.424  20.547  0.00  0.00    +0.000 A 
ATOM     14  C   UNL     1       2.242   7.377  20.178  0.00  0.00    +0.000 A 
ATOM     15  C   UNL     1       2.619   7.190  18.849  0.00  0.00    +0.000 A 
ATOM     16  C   UNL     1       2.149   8.049  17.873  0.00  0.00    +0.000 A 
ATOM     17  C   UNL     1       1.301   9.102  18.227  0.00  0.00    +0.000 A 
ATOM     18  C   UNL     1       0.888   9.324  19.565  0.00  0.00    +0.000 A 
ENDBRANCH   7   9
ENDBRANCH   4   7
BRANCH   6  19
ATOM     19  C   UNL     1      -3.609   9.634  15.312  0.00  0.00    +0.000 C 
ATOM     20  C   UNL     1      -3.838  10.364  14.201  0.00  0.00    +0.000 C 
BRANCH  20  21
ATOM     21  C   UNL     1      -4.426   9.737  12.984  0.00  0.00    +0.000 C 
ATOM     22  O   UNL     1      -5.515   9.185  12.971  0.00  0.00    +0.000 OA
ATOM     23  N   UNL     1      -3.627   9.843  11.870  0.00  0.00    +0.000 N 
ATOM     24  H   UNL     1      -2.718  10.289  11.827  0.00  0.00    +0.000 HD
BRANCH  23  25
ATOM     25  O   UNL     1      -4.112   9.284  10.670  0.00  0.00    +0.000 OA
ATOM     26  H   UNL     1      -3.290   9.013  10.208  0.00  0.00    +0.000 HD
ENDBRANCH  23  25
ENDBRANCH  20  21
ENDBRANCH   6  19
TORSDOF 5
ENDMDL
MODEL 7
REMARK VINA RESULT:      -7.9      4.398      7.281
REMARK  Name = 
REMARK  6 active torsions:
REMARK  status: ('A' for Active; 'I' for Inactive)
REMARK    1  A    between atoms: C_1  and  N_2
REMARK    2  A    between atoms: C_4  and  C_5
REMARK    3  A    between atoms: C_5  and  C_7
REMARK    4  A    between atoms: C_18  and  C_19
REMARK    5  A    between atoms: C_20  and  C_21
REMARK    6  A    between atoms: N_23  and  O_24
REMARK                            x       y       z     vdW  Elec       q    Type
REMARK                         _______ _______ _______ _____ _____    ______ ____
ROOT
ATOM      1  C   UNL     1       0.684   9.440  20.987  0.00  0.00    +0.000 C 
ATOM      2  N   UNL     1       1.276   8.798  19.832  0.00  0.00    +0.000 N 
ATOM      3  C   UNL     1       2.164   7.759  19.979  0.00  0.00    +0.000 A 
ATOM      4  C   UNL     1       2.609   7.360  18.737  0.00  0.00    +0.000 A 
ATOM      5  C   UNL     1       1.911   8.175  17.803  0.00  0.00    +0.000 A 
ATOM      6  C   UNL     1       1.100   9.076  18.481  0.00  0.00    +0.000 A 
ENDROOT
BRANCH   4   7
ATOM      7  C   UNL     1       3.593   6.297  18.539  0.00  0.00    +0.000 C 
ATOM      8  O   UNL     1       4.789   6.563  18.476  0.00  0.00    +0.000 OA
BRANCH   7   9
ATOM      9  C   UNL     1       3.113   4.886  18.354  0.00  0.00    +0.000 A 
ATOM     10  C   UNL     1       3.208   4.312  17.070  0.00  0.00    +0.000 A 
ATOM     11  C   UNL     1       2.760   3.020  16.832  0.00  0.00    +0.000 A 
ATOM     12  C   UNL     1       2.242   2.269  17.883  0.00  0.00    +0.000 A 
ATOM     13  C   UNL     1       2.182   2.788  19.186  0.00  0.00    +0.000 A 
ATOM     14  C   UNL     1       1.689   1.988  20.231  0.00  0.00    +0.000 A 
ATOM     15  C   UNL     1       1.632   2.467  21.539  0.00  0.00    +0.000 A 
ATOM     16  C   UNL     1       2.060   3.751  21.821  0.00  0.00    +0.000 A 
ATOM     17  C   UNL     1       2.542   4.563  20.789  0.00  0.00    +0.000 A 
ATOM     18  C   UNL     1       2.622   4.113  19.447  0.00  0.00    +0.000 A 
ENDBRANCH   7   9
ENDBRANCH   4   7
BRANCH   6  19
ATOM     19  C   UNL     1       0.225  10.108  18.006  0.00  0.00    +0.000 C 
ATOM     20  C   UNL     1      -1.053   9.866  17.648  0.00  0.00    +0.000 C 
BRANCH  20  21
ATOM     21  C   UNL     1      -1.932  10.968  17.165  0.00  0.00    +0.000 C 
ATOM     22  O   UNL     1      -2.152  11.983  17.806  0.00  0.00    +0.000 OA
ATOM     23  N   UNL     1      -2.471  10.735  15.921  0.00  0.00    +0.000 N 
ATOM     24  H   UNL     1      -2.322   9.911  15.350  0.00  0.00    +0.000 HD
BRANCH  23  25
ATOM     25  O   UNL     1      -3.311  11.732  15.383  0.00  0.00    +0.000 OA
ATOM     26  H   UNL     1      -3.813  11.246  14.695  0.00  0.00    +0.000 HD
ENDBRANCH  23  25
ENDBRANCH  20  21
ENDBRANCH   6  19
TORSDOF 5
ENDMDL
MODEL 8
REMARK VINA RESULT:      -7.9      2.673      4.743
REMARK  Name = 
REMARK  6 active torsions:
REMARK  status: ('A' for Active; 'I' for Inactive)
REMARK    1  A    between atoms: C_1  and  N_2
REMARK    2  A    between atoms: C_4  and  C_5
REMARK    3  A    between atoms: C_5  and  C_7
REMARK    4  A    between atoms: C_18  and  C_19
REMARK    5  A    between atoms: C_20  and  C_21
REMARK    6  A    between atoms: N_23  and  O_24
REMARK                            x       y       z     vdW  Elec       q    Type
REMARK                         _______ _______ _______ _____ _____    ______ ____
ROOT
ATOM      1  C   UNL     1       2.605   2.582  17.191  0.00  0.00    +0.000 C 
ATOM      2  N   UNL     1       2.973   3.867  17.747  0.00  0.00    +0.000 N 
ATOM      3  C   UNL     1       2.198   4.467  18.712  0.00  0.00    +0.000 A 
ATOM      4  C   UNL     1       2.741   5.691  19.036  0.00  0.00    +0.000 A 
ATOM      5  C   UNL     1       3.925   5.801  18.256  0.00  0.00    +0.000 A 
ATOM      6  C   UNL     1       4.059   4.681  17.446  0.00  0.00    +0.000 A 
ENDROOT
BRANCH   4   7
ATOM      7  C   UNL     1       2.140   6.606  20.007  0.00  0.00    +0.000 C 
ATOM      8  O   UNL     1       1.879   6.219  21.142  0.00  0.00    +0.000 OA
BRANCH   7   9
ATOM      9  C   UNL     1       1.796   8.002  19.576  0.00  0.00    +0.000 A 
ATOM     10  C   UNL     1       2.133   8.397  18.266  0.00  0.00    +0.000 A 
ATOM     11  C   UNL     1       1.861   9.683  17.817  0.00  0.00    +0.000 A 
ATOM     12  C   UNL     1       1.216  10.582  18.661  0.00  0.00    +0.000 A 
ATOM     13  C   UNL     1       0.816  10.207  19.953  0.00  0.00    +0.000 A 
ATOM     14  C   UNL     1       0.132  11.128  20.764  0.00  0.00    +0.000 A 
ATOM     15  C   UNL     1      -0.294  10.781  22.046  0.00  0.00    +0.000 A 
ATOM     16  C   UNL     1      -0.037   9.514  22.537  0.00  0.00    +0.000 A 
ATOM     17  C   UNL     1       0.654   8.591  21.746  0.00  0.00    +0.000 A 
ATOM     18  C   UNL     1       1.098   8.901  20.435  0.00  0.00    +0.000 A 
ENDBRANCH   7   9
ENDBRANCH   4   7
BRANCH   6  19
ATOM     19  C   UNL     1       5.054   4.324  16.478  0.00  0.00    +0.000 C 
ATOM     20  C   UNL     1       5.380   5.129  15.445  0.00  0.00    +0.000 C 
BRANCH  20  21
ATOM     21  C   UNL     1       6.425   4.724  14.462  0.00  0.00    +0.000 C 
ATOM     22  O   UNL     1       7.523   5.253  14.393  0.00  0.00    +0.000 OA
ATOM     23  N   UNL     1       6.036   3.692  13.640  0.00  0.00    +0.000 N 
ATOM     24  H   UNL     1       5.139   3.221  13.657  0.00  0.00    +0.000 HD
BRANCH  23  25
ATOM     25  O   UNL     1       6.969   3.240  12.685  0.00  0.00    +0.000 OA
ATOM     26  H   UNL     1       6.403   3.030  11.910  0.00  0.00    +0.000 HD
ENDBRANCH  23  25
ENDBRANCH  20  21
ENDBRANCH   6  19
TORSDOF 5
ENDMDL
MODEL 9
REMARK VINA RESULT:      -7.9      7.389      9.678
REMARK  Name = 
REMARK  6 active torsions:
REMARK  status: ('A' for Active; 'I' for Inactive)
REMARK    1  A    between atoms: C_1  and  N_2
REMARK    2  A    between atoms: C_4  and  C_5
REMARK    3  A    between atoms: C_5  and  C_7
REMARK    4  A    between atoms: C_18  and  C_19
REMARK    5  A    between atoms: C_20  and  C_21
REMARK    6  A    between atoms: N_23  and  O_24
REMARK                            x       y       z     vdW  Elec       q    Type
REMARK                         _______ _______ _______ _____ _____    ______ ____
ROOT
ATOM      1  C   UNL     1      -5.626  11.289  17.705  0.00  0.00    +0.000 C 
ATOM      2  N   UNL     1      -4.204  11.273  17.432  0.00  0.00    +0.000 N 
ATOM      3  C   UNL     1      -3.292  11.573  18.417  0.00  0.00    +0.000 A 
ATOM      4  C   UNL     1      -2.020  11.529  17.889  0.00  0.00    +0.000 A 
ATOM      5  C   UNL     1      -2.185  11.135  16.532  0.00  0.00    +0.000 A 
ATOM      6  C   UNL     1      -3.536  10.994  16.245  0.00  0.00    +0.000 A 
ENDROOT
BRANCH   4   7
ATOM      7  C   UNL     1      -0.817  11.834  18.662  0.00  0.00    +0.000 C 
ATOM      8  O   UNL     1      -0.461  12.997  18.820  0.00  0.00    +0.000 OA
BRANCH   7   9
ATOM      9  C   UNL     1       0.004  10.702  19.208  0.00  0.00    +0.000 A 
ATOM     10  C   UNL     1       0.868  10.021  18.327  0.00  0.00    +0.000 A 
ATOM     11  C   UNL     1       1.636   8.951  18.768  0.00  0.00    +0.000 A 
ATOM     12  C   UNL     1       1.577   8.568  20.104  0.00  0.00    +0.000 A 
ATOM     13  C   UNL     1       0.769   9.258  21.022  0.00  0.00    +0.000 A 
ATOM     14  C   UNL     1       0.764   8.869  22.372  0.00  0.00    +0.000 A 
ATOM     15  C   UNL     1      -0.014   9.544  23.312  0.00  0.00    +0.000 A 
ATOM     16  C   UNL     1      -0.801  10.610  22.917  0.00  0.00    +0.000 A 
ATOM     17  C   UNL     1      -0.815  11.000  21.574  0.00  0.00    +0.000 A 
ATOM     18  C   UNL     1      -0.034  10.346  20.588  0.00  0.00    +0.000 A 
ENDBRANCH   7   9
ENDBRANCH   4   7
BRANCH   6  19
ATOM     19  C   UNL     1      -4.217  10.639  15.034  0.00  0.00    +0.000 C 
ATOM     20  C   UNL     1      -3.603   9.991  14.022  0.00  0.00    +0.000 C 
BRANCH  20  21
ATOM     21  C   UNL     1      -4.348   9.635  12.781  0.00  0.00    +0.000 C 
ATOM     22  O   UNL     1      -5.533   9.342  12.768  0.00  0.00    +0.000 OA
ATOM     23  N   UNL     1      -3.573   9.671  11.646  0.00  0.00    +0.000 N 
ATOM     24  H   UNL     1      -2.587   9.907  11.602  0.00  0.00    +0.000 HD
BRANCH  23  25
ATOM     25  O   UNL     1      -4.200   9.356  10.423  0.00  0.00    +0.000 OA
ATOM     26  H   UNL     1      -5.034   9.872  10.466  0.00  0.00    +0.000 HD
ENDBRANCH  23  25
ENDBRANCH  20  21
ENDBRANCH   6  19
TORSDOF 5
ENDMDL
