MODEL 1
REMARK VINA RESULT:      -7.7      0.000      0.000
REMARK  Name = 
REMARK  8 active torsions:
REMARK  status: ('A' for Active; 'I' for Inactive)
REMARK    1  A    between atoms: C_2  and  C_3
REMARK    2  A    between atoms: C_2  and  C_24
REMARK    3  A    between atoms: C_3  and  C_4
REMARK    4  A    between atoms: C_4  and  C_5
REMARK    5  A    between atoms: C_5  and  N_6
REMARK    6  A    between atoms: N_9  and  C_10
REMARK    7  A    between atoms: C_10  and  C_11
REMARK    8  A    between atoms: C_11  and  C_12
REMARK                            x       y       z     vdW  Elec       q    Type
REMARK                         _______ _______ _______ _____ _____    ______ ____
ROOT
ATOM      1  N   UNL     1       5.592   5.615  18.468  0.00  0.00    +0.000 NA
ATOM      2  C   UNL     1       6.686   5.583  19.465  0.00  0.00    +0.000 C 
ATOM      3  C   UNL     1       8.076   5.692  18.795  0.00  0.00    +0.000 C 
ATOM      4  N   UNL     1       8.190   6.900  17.945  0.00  0.00    +0.000 NA
ATOM      5  C   UNL     1       7.095   6.916  16.947  0.00  0.00    +0.000 C 
ATOM      6  C   UNL     1       5.712   6.832  17.630  0.00  0.00    +0.000 C 
ENDROOT
BRANCH   1   7
ATOM      7  C   UNL     1       5.530   4.344  17.709  0.00  0.00    +0.000 C 
BRANCH   7   8
ATOM      8  C   UNL     1       4.673   4.452  16.445  0.00  0.00    +0.000 C 
BRANCH   8   9
ATOM      9  C   UNL     1       3.265   3.925  16.713  0.00  0.00    +0.000 C 
BRANCH   9  11
ATOM     10  O   UNL     1       2.295   5.881  17.639  0.00  0.00    +0.000 OA
ATOM     11  C   UNL     1       2.561   4.697  17.803  0.00  0.00    +0.000 C 
BRANCH  11  12
ATOM     12  C   UNL     1       2.150   4.025  19.063  0.00  0.00    +0.000 A 
ATOM     13  C   UNL     1       2.582   4.532  20.302  0.00  0.00    +0.000 A 
ATOM     14  C   UNL     1       2.190   3.917  21.493  0.00  0.00    +0.000 A 
ATOM     15  C   UNL     1       1.365   2.792  21.461  0.00  0.00    +0.000 A 
ATOM     16  F   UNL     1       0.985   2.198  22.620  0.00  0.00    +0.000 F 
ATOM     17  C   UNL     1       0.929   2.277  20.239  0.00  0.00    +0.000 A 
ATOM     18  C   UNL     1       1.315   2.891  19.044  0.00  0.00    +0.000 A 
ENDBRANCH  11  12
ENDBRANCH   9  11
ENDBRANCH   8   9
ENDBRANCH   7   8
ENDBRANCH   1   7
BRANCH   4  19
ATOM     19  C   UNL     1       8.224   8.180  18.688  0.00  0.00    +0.000 C 
BRANCH  19  20
ATOM     20  C   UNL     1       8.193   9.421  17.784  0.00  0.00    +0.000 C 
BRANCH  20  21
ATOM     21  C   UNL     1       9.185  10.499  18.275  0.00  0.00    +0.000 C 
ATOM     22  C   UNL     1       9.435  10.474  19.801  0.00  0.00    +0.000 C 
ATOM     23  C   UNL     1      10.538  11.480  20.198  0.00  0.00    +0.000 C 
ATOM     24  C   UNL     1      10.294  12.822  19.571  0.00  0.00    +0.000 A 
ATOM     25  S   UNL     1      10.991  14.281  20.014  0.00  0.00    +0.000 S 
ATOM     26  C   UNL     1      10.152  15.209  18.880  0.00  0.00    +0.000 A 
ATOM     27  C   UNL     1       9.331  14.376  18.128  0.00  0.00    +0.000 A 
ATOM     28  C   UNL     1       9.429  13.034  18.509  0.00  0.00    +0.000 A 
ATOM     29  C   UNL     1       8.724  11.899  17.895  0.00  0.00    +0.000 C 
ATOM     30  O   UNL     1       7.808  12.088  17.105  0.00  0.00    +0.000 OA
ENDBRANCH  20  21
ENDBRANCH  19  20
ENDBRANCH   4  19
TORSDOF 8
ENDMDL
MODEL 2
REMARK VINA RESULT:      -7.6      8.318     10.346
REMARK  Name = 
REMARK  8 active torsions:
REMARK  status: ('A' for Active; 'I' for Inactive)
REMARK    1  A    between atoms: C_2  and  C_3
REMARK    2  A    between atoms: C_2  and  C_24
REMARK    3  A    between atoms: C_3  and  C_4
REMARK    4  A    between atoms: C_4  and  C_5
REMARK    5  A    between atoms: C_5  and  N_6
REMARK    6  A    between atoms: N_9  and  C_10
REMARK    7  A    between atoms: C_10  and  C_11
REMARK    8  A    between atoms: C_11  and  C_12
REMARK                            x       y       z     vdW  Elec       q    Type
REMARK                         _______ _______ _______ _____ _____    ______ ____
ROOT
ATOM      1  N   UNL     1       0.344   9.860  19.299  0.00  0.00    +0.000 NA
ATOM      2  C   UNL     1      -0.417   9.719  20.561  0.00  0.00    +0.000 C 
ATOM      3  C   UNL     1       0.301  10.412  21.744  0.00  0.00    +0.000 C 
ATOM      4  N   UNL     1       0.576  11.841  21.465  0.00  0.00    +0.000 NA
ATOM      5  C   UNL     1       1.344  11.968  20.205  0.00  0.00    +0.000 C 
ATOM      6  C   UNL     1       0.605  11.293  19.028  0.00  0.00    +0.000 C 
ENDROOT
BRANCH   1   7
ATOM      7  C   UNL     1       1.552   9.002  19.310  0.00  0.00    +0.000 C 
BRANCH   7   8
ATOM      8  C   UNL     1       1.810   8.327  17.960  0.00  0.00    +0.000 C 
BRANCH   8   9
ATOM      9  C   UNL     1       3.280   7.934  17.836  0.00  0.00    +0.000 C 
BRANCH   9  11
ATOM     10  O   UNL     1       4.245   5.992  16.878  0.00  0.00    +0.000 OA
ATOM     11  C   UNL     1       3.466   6.441  17.708  0.00  0.00    +0.000 C 
BRANCH  11  12
ATOM     12  C   UNL     1       2.741   5.509  18.609  0.00  0.00    +0.000 A 
ATOM     13  C   UNL     1       1.863   4.552  18.070  0.00  0.00    +0.000 A 
ATOM     14  C   UNL     1       1.187   3.660  18.906  0.00  0.00    +0.000 A 
ATOM     15  C   UNL     1       1.380   3.713  20.286  0.00  0.00    +0.000 A 
ATOM     16  F   UNL     1       0.723   2.845  21.096  0.00  0.00    +0.000 F 
ATOM     17  C   UNL     1       2.249   4.657  20.837  0.00  0.00    +0.000 A 
ATOM     18  C   UNL     1       2.930   5.550  20.005  0.00  0.00    +0.000 A 
ENDBRANCH  11  12
ENDBRANCH   9  11
ENDBRANCH   8   9
ENDBRANCH   7   8
ENDBRANCH   1   7
BRANCH   4  19
ATOM     19  C   UNL     1      -0.625  12.707  21.423  0.00  0.00    +0.000 C 
BRANCH  19  20
ATOM     20  C   UNL     1      -1.501  12.612  22.680  0.00  0.00    +0.000 C 
BRANCH  20  21
ATOM     21  C   UNL     1      -2.979  12.346  22.317  0.00  0.00    +0.000 C 
ATOM     22  C   UNL     1      -3.416  12.968  20.970  0.00  0.00    +0.000 C 
ATOM     23  C   UNL     1      -4.856  12.545  20.606  0.00  0.00    +0.000 C 
ATOM     24  C   UNL     1      -5.783  12.731  21.772  0.00  0.00    +0.000 A 
ATOM     25  S   UNL     1      -7.458  12.770  21.730  0.00  0.00    +0.000 S 
ATOM     26  C   UNL     1      -7.653  13.058  23.383  0.00  0.00    +0.000 A 
ATOM     27  C   UNL     1      -6.401  13.104  23.987  0.00  0.00    +0.000 A 
ATOM     28  C   UNL     1      -5.356  12.902  23.080  0.00  0.00    +0.000 A 
ATOM     29  C   UNL     1      -3.922  12.855  23.399  0.00  0.00    +0.000 C 
ATOM     30  O   UNL     1      -3.515  13.209  24.499  0.00  0.00    +0.000 OA
ENDBRANCH  20  21
ENDBRANCH  19  20
ENDBRANCH   4  19
TORSDOF 8
ENDMDL
MODEL 3
REMARK VINA RESULT:      -7.6      8.111     10.181
REMARK  Name = 
REMARK  8 active torsions:
REMARK  status: ('A' for Active; 'I' for Inactive)
REMARK    1  A    between atoms: C_2  and  C_3
REMARK    2  A    between atoms: C_2  and  C_24
REMARK    3  A    between atoms: C_3  and  C_4
REMARK    4  A    between atoms: C_4  and  C_5
REMARK    5  A    between atoms: C_5  and  N_6
REMARK    6  A    between atoms: N_9  and  C_10
REMARK    7  A    between atoms: C_10  and  C_11
REMARK    8  A    between atoms: C_11  and  C_12
REMARK                            x       y       z     vdW  Elec       q    Type
REMARK                         _______ _______ _______ _____ _____    ______ ____
ROOT
ATOM      1  N   UNL     1       0.359   9.045  19.875  0.00  0.00    +0.000 NA
ATOM      2  C   UNL     1       0.088   8.656  21.277  0.00  0.00    +0.000 C 
ATOM      3  C   UNL     1       0.767   9.619  22.280  0.00  0.00    +0.000 C 
ATOM      4  N   UNL     1       0.370  11.028  22.052  0.00  0.00    +0.000 NA
ATOM      5  C   UNL     1       0.654  11.408  20.648  0.00  0.00    +0.000 C 
ATOM      6  C   UNL     1      -0.048  10.453  19.657  0.00  0.00    +0.000 C 
ENDROOT
BRANCH   1   7
ATOM      7  C   UNL     1       1.761   8.742  19.502  0.00  0.00    +0.000 C 
BRANCH   7   8
ATOM      8  C   UNL     1       1.890   8.202  18.076  0.00  0.00    +0.000 C 
BRANCH   8   9
ATOM      9  C   UNL     1       3.338   7.819  17.782  0.00  0.00    +0.000 C 
BRANCH   9  11
ATOM     10  O   UNL     1       4.313   5.867  16.853  0.00  0.00    +0.000 OA
ATOM     11  C   UNL     1       3.526   6.325  17.671  0.00  0.00    +0.000 C 
BRANCH  11  12
ATOM     12  C   UNL     1       2.792   5.401  18.574  0.00  0.00    +0.000 A 
ATOM     13  C   UNL     1       1.850   4.501  18.043  0.00  0.00    +0.000 A 
ATOM     14  C   UNL     1       1.166   3.617  18.880  0.00  0.00    +0.000 A 
ATOM     15  C   UNL     1       1.412   3.623  20.254  0.00  0.00    +0.000 A 
ATOM     16  F   UNL     1       0.746   2.762  21.064  0.00  0.00    +0.000 F 
ATOM     17  C   UNL     1       2.343   4.510  20.796  0.00  0.00    +0.000 A 
ATOM     18  C   UNL     1       3.034   5.394  19.962  0.00  0.00    +0.000 A 
ENDBRANCH  11  12
ENDBRANCH   9  11
ENDBRANCH   8   9
ENDBRANCH   7   8
ENDBRANCH   1   7
BRANCH   4  19
ATOM     19  C   UNL     1      -1.036  11.340  22.392  0.00  0.00    +0.000 C 
BRANCH  19  20
ATOM     20  C   UNL     1      -1.455  12.774  22.036  0.00  0.00    +0.000 C 
BRANCH  20  21
ATOM     21  C   UNL     1      -2.875  13.092  22.559  0.00  0.00    +0.000 C 
ATOM     22  C   UNL     1      -3.272  12.290  23.820  0.00  0.00    +0.000 C 
ATOM     23  C   UNL     1      -4.639  12.759  24.366  0.00  0.00    +0.000 C 
ATOM     24  C   UNL     1      -5.657  12.845  23.266  0.00  0.00    +0.000 A 
ATOM     25  S   UNL     1      -7.322  12.932  23.442  0.00  0.00    +0.000 S 
ATOM     26  C   UNL     1      -7.656  12.941  21.786  0.00  0.00    +0.000 A 
ATOM     27  C   UNL     1      -6.459  12.898  21.080  0.00  0.00    +0.000 A 
ATOM     28  C   UNL     1      -5.339  12.862  21.917  0.00  0.00    +0.000 A 
ATOM     29  C   UNL     1      -3.932  12.847  21.492  0.00  0.00    +0.000 C 
ATOM     30  O   UNL     1      -3.637  12.652  20.320  0.00  0.00    +0.000 OA
ENDBRANCH  20  21
ENDBRANCH  19  20
ENDBRANCH   4  19
TORSDOF 8
ENDMDL
MODEL 4
REMARK VINA RESULT:      -7.6      2.033      2.574
REMARK  Name = 
REMARK  8 active torsions:
REMARK  status: ('A' for Active; 'I' for Inactive)
REMARK    1  A    between atoms: C_2  and  C_3
REMARK    2  A    between atoms: C_2  and  C_24
REMARK    3  A    between atoms: C_3  and  C_4
REMARK    4  A    between atoms: C_4  and  C_5
REMARK    5  A    between atoms: C_5  and  N_6
REMARK    6  A    between atoms: N_9  and  C_10
REMARK    7  A    between atoms: C_10  and  C_11
REMARK    8  A    between atoms: C_11  and  C_12
REMARK                            x       y       z     vdW  Elec       q    Type
REMARK                         _______ _______ _______ _____ _____    ______ ____
ROOT
ATOM      1  N   UNL     1       5.591   5.715  17.984  0.00  0.00    +0.000 NA
ATOM      2  C   UNL     1       6.626   6.011  19.000  0.00  0.00    +0.000 C 
ATOM      3  C   UNL     1       8.012   6.248  18.355  0.00  0.00    +0.000 C 
ATOM      4  N   UNL     1       7.973   7.320  17.333  0.00  0.00    +0.000 NA
ATOM      5  C   UNL     1       6.941   7.008  16.318  0.00  0.00    +0.000 C 
ATOM      6  C   UNL     1       5.557   6.798  16.972  0.00  0.00    +0.000 C 
ENDROOT
BRANCH   1   7
ATOM      7  C   UNL     1       5.770   4.354  17.426  0.00  0.00    +0.000 C 
BRANCH   7   8
ATOM      8  C   UNL     1       4.489   3.800  16.798  0.00  0.00    +0.000 C 
BRANCH   8   9
ATOM      9  C   UNL     1       3.524   3.333  17.885  0.00  0.00    +0.000 C 
BRANCH   9  11
ATOM     10  O   UNL     1       1.295   3.755  17.195  0.00  0.00    +0.000 OA
ATOM     11  C   UNL     1       2.236   4.122  17.886  0.00  0.00    +0.000 C 
BRANCH  11  12
ATOM     12  C   UNL     1       2.084   5.322  18.749  0.00  0.00    +0.000 A 
ATOM     13  C   UNL     1       1.742   5.172  20.105  0.00  0.00    +0.000 A 
ATOM     14  C   UNL     1       1.611   6.291  20.930  0.00  0.00    +0.000 A 
ATOM     15  C   UNL     1       1.820   7.570  20.412  0.00  0.00    +0.000 A 
ATOM     16  F   UNL     1       1.694   8.655  21.216  0.00  0.00    +0.000 F 
ATOM     17  C   UNL     1       2.161   7.735  19.068  0.00  0.00    +0.000 A 
ATOM     18  C   UNL     1       2.296   6.618  18.239  0.00  0.00    +0.000 A 
ENDBRANCH  11  12
ENDBRANCH   9  11
ENDBRANCH   8   9
ENDBRANCH   7   8
ENDBRANCH   1   7
BRANCH   4  19
ATOM     19  C   UNL     1       7.766   8.683  17.872  0.00  0.00    +0.000 C 
BRANCH  19  20
ATOM     20  C   UNL     1       8.879   9.149  18.823  0.00  0.00    +0.000 C 
BRANCH  20  21
ATOM     21  C   UNL     1       9.107  10.674  18.718  0.00  0.00    +0.000 C 
ATOM     22  C   UNL     1      10.249  11.073  17.753  0.00  0.00    +0.000 C 
ATOM     23  C   UNL     1      10.326  12.606  17.591  0.00  0.00    +0.000 C 
ATOM     24  C   UNL     1      10.294  13.291  18.927  0.00  0.00    +0.000 A 
ATOM     25  S   UNL     1      10.730  14.876  19.255  0.00  0.00    +0.000 S 
ATOM     26  C   UNL     1      10.450  14.778  20.918  0.00  0.00    +0.000 A 
ATOM     27  C   UNL     1       9.990  13.502  21.226  0.00  0.00    +0.000 A 
ATOM     28  C   UNL     1       9.887  12.678  20.102  0.00  0.00    +0.000 A 
ATOM     29  C   UNL     1       9.402  11.291  20.078  0.00  0.00    +0.000 C 
ATOM     30  O   UNL     1       9.239  10.669  21.121  0.00  0.00    +0.000 OA
ENDBRANCH  20  21
ENDBRANCH  19  20
ENDBRANCH   4  19
TORSDOF 8
ENDMDL
MODEL 5
REMARK VINA RESULT:      -7.5      5.500      7.914
REMARK  Name = 
REMARK  8 active torsions:
REMARK  status: ('A' for Active; 'I' for Inactive)
REMARK    1  A    between atoms: C_2  and  C_3
REMARK    2  A    between atoms: C_2  and  C_24
REMARK    3  A    between atoms: C_3  and  C_4
REMARK    4  A    between atoms: C_4  and  C_5
REMARK    5  A    between atoms: C_5  and  N_6
REMARK    6  A    between atoms: N_9  and  C_10
REMARK    7  A    between atoms: C_10  and  C_11
REMARK    8  A    between atoms: C_11  and  C_12
REMARK                            x       y       z     vdW  Elec       q    Type
REMARK                         _______ _______ _______ _____ _____    ______ ____
ROOT
ATOM      1  N   UNL     1       3.374   4.417  20.072  0.00  0.00    +0.000 NA
ATOM      2  C   UNL     1       3.822   5.683  19.448  0.00  0.00    +0.000 C 
ATOM      3  C   UNL     1       2.647   6.447  18.794  0.00  0.00    +0.000 C 
ATOM      4  N   UNL     1       1.550   6.708  19.755  0.00  0.00    +0.000 NA
ATOM      5  C   UNL     1       1.105   5.433  20.366  0.00  0.00    +0.000 C 
ATOM      6  C   UNL     1       2.283   4.692  21.037  0.00  0.00    +0.000 C 
ENDROOT
BRANCH   1   7
ATOM      7  C   UNL     1       3.047   3.404  19.041  0.00  0.00    +0.000 C 
BRANCH   7   8
ATOM      8  C   UNL     1       4.271   2.968  18.232  0.00  0.00    +0.000 C 
BRANCH   8   9
ATOM      9  C   UNL     1       4.224   3.573  16.831  0.00  0.00    +0.000 C 
BRANCH   9  11
ATOM     10  O   UNL     1       6.046   3.406  15.323  0.00  0.00    +0.000 OA
ATOM     11  C   UNL     1       5.595   3.950  16.322  0.00  0.00    +0.000 C 
BRANCH  11  12
ATOM     12  C   UNL     1       6.390   5.005  17.001  0.00  0.00    +0.000 A 
ATOM     13  C   UNL     1       6.275   6.345  16.589  0.00  0.00    +0.000 A 
ATOM     14  C   UNL     1       7.005   7.348  17.230  0.00  0.00    +0.000 A 
ATOM     15  C   UNL     1       7.858   7.026  18.286  0.00  0.00    +0.000 A 
ATOM     16  F   UNL     1       8.566   8.003  18.907  0.00  0.00    +0.000 F 
ATOM     17  C   UNL     1       7.984   5.701  18.706  0.00  0.00    +0.000 A 
ATOM     18  C   UNL     1       7.252   4.694  18.071  0.00  0.00    +0.000 A 
ENDBRANCH  11  12
ENDBRANCH   9  11
ENDBRANCH   8   9
ENDBRANCH   7   8
ENDBRANCH   1   7
BRANCH   4  19
ATOM     19  C   UNL     1       1.871   7.696  20.810  0.00  0.00    +0.000 C 
BRANCH  19  20
ATOM     20  C   UNL     1       0.673   8.068  21.695  0.00  0.00    +0.000 C 
BRANCH  20  21
ATOM     21  C   UNL     1      -0.012   9.362  21.201  0.00  0.00    +0.000 C 
ATOM     22  C   UNL     1       0.736  10.065  20.044  0.00  0.00    +0.000 C 
ATOM     23  C   UNL     1      -0.075  11.266  19.510  0.00  0.00    +0.000 C 
ATOM     24  C   UNL     1      -0.555  12.135  20.636  0.00  0.00    +0.000 A 
ATOM     25  S   UNL     1      -1.124  13.707  20.520  0.00  0.00    +0.000 S 
ATOM     26  C   UNL     1      -1.372  13.909  22.179  0.00  0.00    +0.000 A 
ATOM     27  C   UNL     1      -1.030  12.733  22.836  0.00  0.00    +0.000 A 
ATOM     28  C   UNL     1      -0.589  11.734  21.962  0.00  0.00    +0.000 A 
ATOM     29  C   UNL     1      -0.188  10.369  22.330  0.00  0.00    +0.000 C 
ATOM     30  O   UNL     1      -0.011  10.064  23.503  0.00  0.00    +0.000 OA
ENDBRANCH  20  21
ENDBRANCH  19  20
ENDBRANCH   4  19
TORSDOF 8
ENDMDL
MODEL 6
REMARK VINA RESULT:      -7.5      2.213      2.761
REMARK  Name = 
REMARK  8 active torsions:
REMARK  status: ('A' for Active; 'I' for Inactive)
REMARK    1  A    between atoms: C_2  and  C_3
REMARK    2  A    between atoms: C_2  and  C_24
REMARK    3  A    between atoms: C_3  and  C_4
REMARK    4  A    between atoms: C_4  and  C_5
REMARK    5  A    between atoms: C_5  and  N_6
REMARK    6  A    between atoms: N_9  and  C_10
REMARK    7  A    between atoms: C_10  and  C_11
REMARK    8  A    between atoms: C_11  and  C_12
REMARK                            x       y       z     vdW  Elec       q    Type
REMARK                         _______ _______ _______ _____ _____    ______ ____
ROOT
ATOM      1  N   UNL     1       6.430   4.653  18.510  0.00  0.00    +0.000 NA
ATOM      2  C   UNL     1       7.602   4.751  17.612  0.00  0.00    +0.000 C 
ATOM      3  C   UNL     1       7.339   5.713  16.429  0.00  0.00    +0.000 C 
ATOM      4  N   UNL     1       6.931   7.061  16.890  0.00  0.00    +0.000 NA
ATOM      5  C   UNL     1       5.752   6.950  17.781  0.00  0.00    +0.000 C 
ATOM      6  C   UNL     1       6.036   6.006  18.970  0.00  0.00    +0.000 C 
ENDROOT
BRANCH   1   7
ATOM      7  C   UNL     1       5.340   3.873  17.877  0.00  0.00    +0.000 C 
BRANCH   7   8
ATOM      8  C   UNL     1       4.517   3.077  18.891  0.00  0.00    +0.000 C 
BRANCH   8   9
ATOM      9  C   UNL     1       3.027   3.197  18.577  0.00  0.00    +0.000 C 
BRANCH   9  11
ATOM     10  O   UNL     1       1.831   3.468  20.606  0.00  0.00    +0.000 OA
ATOM     11  C   UNL     1       2.287   4.013  19.610  0.00  0.00    +0.000 C 
BRANCH  11  12
ATOM     12  C   UNL     1       2.139   5.482  19.449  0.00  0.00    +0.000 A 
ATOM     13  C   UNL     1       1.812   6.280  20.560  0.00  0.00    +0.000 A 
ATOM     14  C   UNL     1       1.686   7.665  20.425  0.00  0.00    +0.000 A 
ATOM     15  C   UNL     1       1.884   8.267  19.183  0.00  0.00    +0.000 A 
ATOM     16  F   UNL     1       1.762   9.612  19.055  0.00  0.00    +0.000 F 
ATOM     17  C   UNL     1       2.210   7.489  18.070  0.00  0.00    +0.000 A 
ATOM     18  C   UNL     1       2.341   6.103  18.201  0.00  0.00    +0.000 A 
ENDBRANCH  11  12
ENDBRANCH   9  11
ENDBRANCH   8   9
ENDBRANCH   7   8
ENDBRANCH   1   7
BRANCH   4  19
ATOM     19  C   UNL     1       8.001   7.841  17.551  0.00  0.00    +0.000 C 
BRANCH  19  20
ATOM     20  C   UNL     1       7.607   9.293  17.861  0.00  0.00    +0.000 C 
BRANCH  20  21
ATOM     21  C   UNL     1       8.849  10.160  18.166  0.00  0.00    +0.000 C 
ATOM     22  C   UNL     1       9.281  10.137  19.651  0.00  0.00    +0.000 C 
ATOM     23  C   UNL     1      10.604  10.907  19.855  0.00  0.00    +0.000 C 
ATOM     24  C   UNL     1      10.555  12.248  19.183  0.00  0.00    +0.000 A 
ATOM     25  S   UNL     1      11.580  13.547  19.453  0.00  0.00    +0.000 S 
ATOM     26  C   UNL     1      10.806  14.589  18.373  0.00  0.00    +0.000 A 
ATOM     27  C   UNL     1       9.746  13.917  17.774  0.00  0.00    +0.000 A 
ATOM     28  C   UNL     1       9.621  12.598  18.219  0.00  0.00    +0.000 A 
ATOM     29  C   UNL     1       8.632  11.612  17.761  0.00  0.00    +0.000 C 
ATOM     30  O   UNL     1       7.679  11.957  17.075  0.00  0.00    +0.000 OA
ENDBRANCH  20  21
ENDBRANCH  19  20
ENDBRANCH   4  19
TORSDOF 8
ENDMDL
MODEL 7
REMARK VINA RESULT:      -7.4      7.934     10.510
REMARK  Name = 
REMARK  8 active torsions:
REMARK  status: ('A' for Active; 'I' for Inactive)
REMARK    1  A    between atoms: C_2  and  C_3
REMARK    2  A    between atoms: C_2  and  C_24
REMARK    3  A    between atoms: C_3  and  C_4
REMARK    4  A    between atoms: C_4  and  C_5
REMARK    5  A    between atoms: C_5  and  N_6
REMARK    6  A    between atoms: N_9  and  C_10
REMARK    7  A    between atoms: C_10  and  C_11
REMARK    8  A    between atoms: C_11  and  C_12
REMARK                            x       y       z     vdW  Elec       q    Type
REMARK                         _______ _______ _______ _____ _____    ______ ____
ROOT
ATOM      1  N   UNL     1      -0.339  11.242  22.800  0.00  0.00    +0.000 NA
ATOM      2  C   UNL     1      -0.125   9.802  23.067  0.00  0.00    +0.000 C 
ATOM      3  C   UNL     1      -0.779   8.914  21.981  0.00  0.00    +0.000 C 
ATOM      4  N   UNL     1      -0.305   9.262  20.621  0.00  0.00    +0.000 NA
ATOM      5  C   UNL     1      -0.532  10.703  20.363  0.00  0.00    +0.000 C 
ATOM      6  C   UNL     1       0.146  11.578  21.440  0.00  0.00    +0.000 C 
ENDROOT
BRANCH   1   7
ATOM      7  C   UNL     1      -1.745  11.628  23.068  0.00  0.00    +0.000 C 
BRANCH   7   8
ATOM      8  C   UNL     1      -1.927  13.141  23.204  0.00  0.00    +0.000 C 
BRANCH   8   9
ATOM      9  C   UNL     1      -3.216  13.585  22.517  0.00  0.00    +0.000 C 
BRANCH   9  11
ATOM     10  O   UNL     1      -2.227  13.930  20.390  0.00  0.00    +0.000 OA
ATOM     11  C   UNL     1      -3.150  13.427  21.017  0.00  0.00    +0.000 C 
BRANCH  11  12
ATOM     12  C   UNL     1      -4.176  12.631  20.294  0.00  0.00    +0.000 A 
ATOM     13  C   UNL     1      -5.451  12.452  20.859  0.00  0.00    +0.000 A 
ATOM     14  C   UNL     1      -6.429  11.719  20.181  0.00  0.00    +0.000 A 
ATOM     15  C   UNL     1      -6.144  11.157  18.937  0.00  0.00    +0.000 A 
ATOM     16  F   UNL     1      -7.095  10.446  18.281  0.00  0.00    +0.000 F 
ATOM     17  C   UNL     1      -4.882  11.325  18.363  0.00  0.00    +0.000 A 
ATOM     18  C   UNL     1      -3.902  12.061  19.035  0.00  0.00    +0.000 A 
ENDBRANCH  11  12
ENDBRANCH   9  11
ENDBRANCH   8   9
ENDBRANCH   7   8
ENDBRANCH   1   7
BRANCH   4  19
ATOM     19  C   UNL     1       1.107   8.909  20.347  0.00  0.00    +0.000 C 
BRANCH  19  20
ATOM     20  C   UNL     1       1.519   7.535  20.896  0.00  0.00    +0.000 C 
BRANCH  20  21
ATOM     21  C   UNL     1       2.521   6.830  19.953  0.00  0.00    +0.000 C 
ATOM     22  C   UNL     1       2.532   7.395  18.514  0.00  0.00    +0.000 C 
ATOM     23  C   UNL     1       3.650   6.742  17.672  0.00  0.00    +0.000 C 
ATOM     24  C   UNL     1       3.629   5.249  17.815  0.00  0.00    +0.000 A 
ATOM     25  S   UNL     1       4.383   4.132  16.817  0.00  0.00    +0.000 S 
ATOM     26  C   UNL     1       3.815   2.772  17.642  0.00  0.00    +0.000 A 
ATOM     27  C   UNL     1       3.044   3.185  18.724  0.00  0.00    +0.000 A 
ATOM     28  C   UNL     1       2.959   4.577  18.826  0.00  0.00    +0.000 A 
ATOM     29  C   UNL     1       2.254   5.333  19.871  0.00  0.00    +0.000 C 
ATOM     30  O   UNL     1       1.490   4.768  20.642  0.00  0.00    +0.000 OA
ENDBRANCH  20  21
ENDBRANCH  19  20
ENDBRANCH   4  19
TORSDOF 8
ENDMDL
MODEL 8
REMARK VINA RESULT:      -7.4      2.570      3.050
REMARK  Name = 
REMARK  8 active torsions:
REMARK  status: ('A' for Active; 'I' for Inactive)
REMARK    1  A    between atoms: C_2  and  C_3
REMARK    2  A    between atoms: C_2  and  C_24
REMARK    3  A    between atoms: C_3  and  C_4
REMARK    4  A    between atoms: C_4  and  C_5
REMARK    5  A    between atoms: C_5  and  N_6
REMARK    6  A    between atoms: N_9  and  C_10
REMARK    7  A    between atoms: C_10  and  C_11
REMARK    8  A    between atoms: C_11  and  C_12
REMARK                            x       y       z     vdW  Elec       q    Type
REMARK                         _______ _______ _______ _____ _____    ______ ____
ROOT
ATOM      1  N   UNL     1       5.270   5.797  18.342  0.00  0.00    +0.000 NA
ATOM      2  C   UNL     1       6.466   5.494  19.159  0.00  0.00    +0.000 C 
ATOM      3  C   UNL     1       7.759   5.509  18.309  0.00  0.00    +0.000 C 
ATOM      4  N   UNL     1       7.938   6.793  17.593  0.00  0.00    +0.000 NA
ATOM      5  C   UNL     1       6.738   7.080  16.772  0.00  0.00    +0.000 C 
ATOM      6  C   UNL     1       5.457   7.087  17.636  0.00  0.00    +0.000 C 
ENDROOT
BRANCH   1   7
ATOM      7  C   UNL     1       4.925   4.655  17.462  0.00  0.00    +0.000 C 
BRANCH   7   8
ATOM      8  C   UNL     1       3.696   3.884  17.949  0.00  0.00    +0.000 C 
BRANCH   8   9
ATOM      9  C   UNL     1       2.489   4.814  18.042  0.00  0.00    +0.000 C 
BRANCH   9  11
ATOM     10  O   UNL     1       2.776   4.987  20.389  0.00  0.00    +0.000 OA
ATOM     11  C   UNL     1       2.432   5.551  19.359  0.00  0.00    +0.000 C 
BRANCH  11  12
ATOM     12  C   UNL     1       1.999   6.971  19.413  0.00  0.00    +0.000 A 
ATOM     13  C   UNL     1       1.498   7.507  20.613  0.00  0.00    +0.000 A 
ATOM     14  C   UNL     1       1.103   8.845  20.680  0.00  0.00    +0.000 A 
ATOM     15  C   UNL     1       1.201   9.660  19.553  0.00  0.00    +0.000 A 
ATOM     16  F   UNL     1       0.817  10.960  19.621  0.00  0.00    +0.000 F 
ATOM     17  C   UNL     1       1.696   9.143  18.354  0.00  0.00    +0.000 A 
ATOM     18  C   UNL     1       2.097   7.806  18.282  0.00  0.00    +0.000 A 
ENDBRANCH  11  12
ENDBRANCH   9  11
ENDBRANCH   8   9
ENDBRANCH   7   8
ENDBRANCH   1   7
BRANCH   4  19
ATOM     19  C   UNL     1       8.254   7.949  18.461  0.00  0.00    +0.000 C 
BRANCH  19  20
ATOM     20  C   UNL     1       8.022   9.310  17.788  0.00  0.00    +0.000 C 
BRANCH  20  21
ATOM     21  C   UNL     1       9.068  10.351  18.248  0.00  0.00    +0.000 C 
ATOM     22  C   UNL     1       9.340  10.335  19.771  0.00  0.00    +0.000 C 
ATOM     23  C   UNL     1      10.491  11.298  20.137  0.00  0.00    +0.000 C 
ATOM     24  C   UNL     1      10.295  12.640  19.495  0.00  0.00    +0.000 A 
ATOM     25  S   UNL     1      11.061  14.074  19.907  0.00  0.00    +0.000 S 
ATOM     26  C   UNL     1      10.244  15.023  18.774  0.00  0.00    +0.000 A 
ATOM     27  C   UNL     1       9.376  14.215  18.046  0.00  0.00    +0.000 A 
ATOM     28  C   UNL     1       9.422  12.876  18.444  0.00  0.00    +0.000 A 
ATOM     29  C   UNL     1       8.661  11.765  17.856  0.00  0.00    +0.000 C 
ATOM     30  O   UNL     1       7.741  11.982  17.078  0.00  0.00    +0.000 OA
ENDBRANCH  20  21
ENDBRANCH  19  20
ENDBRANCH   4  19
TORSDOF 8
ENDMDL
MODEL 9
REMARK VINA RESULT:      -7.4      8.440      9.894
REMARK  Name = 
REMARK  8 active torsions:
REMARK  status: ('A' for Active; 'I' for Inactive)
REMARK    1  A    between atoms: C_2  and  C_3
REMARK    2  A    between atoms: C_2  and  C_24
REMARK    3  A    between atoms: C_3  and  C_4
REMARK    4  A    between atoms: C_4  and  C_5
REMARK    5  A    between atoms: C_5  and  N_6
REMARK    6  A    between atoms: N_9  and  C_10
REMARK    7  A    between atoms: C_10  and  C_11
REMARK    8  A    between atoms: C_11  and  C_12
REMARK                            x       y       z     vdW  Elec       q    Type
REMARK                         _______ _______ _______ _____ _____    ______ ____
ROOT
ATOM      1  N   UNL     1       0.393   9.416  19.522  0.00  0.00    +0.000 NA
ATOM      2  C   UNL     1      -0.030   9.215  20.926  0.00  0.00    +0.000 C 
ATOM      3  C   UNL     1       0.709  10.173  21.890  0.00  0.00    +0.000 C 
ATOM      4  N   UNL     1       0.541  11.592  21.500  0.00  0.00    +0.000 NA
ATOM      5  C   UNL     1       0.976  11.782  20.097  0.00  0.00    +0.000 C 
ATOM      6  C   UNL     1       0.212  10.837  19.142  0.00  0.00    +0.000 C 
ENDROOT
BRANCH   1   7
ATOM      7  C   UNL     1       1.759   8.885  19.298  0.00  0.00    +0.000 C 
BRANCH   7   8
ATOM      8  C   UNL     1       1.909   8.193  17.942  0.00  0.00    +0.000 C 
BRANCH   8   9
ATOM      9  C   UNL     1       3.363   7.789  17.711  0.00  0.00    +0.000 C 
BRANCH   9  11
ATOM     10  O   UNL     1       4.321   5.805  16.833  0.00  0.00    +0.000 OA
ATOM     11  C   UNL     1       3.537   6.291  17.638  0.00  0.00    +0.000 C 
BRANCH  11  12
ATOM     12  C   UNL     1       2.794   5.397  18.563  0.00  0.00    +0.000 A 
ATOM     13  C   UNL     1       1.864   4.474  18.052  0.00  0.00    +0.000 A 
ATOM     14  C   UNL     1       1.171   3.618  18.910  0.00  0.00    +0.000 A 
ATOM     15  C   UNL     1       1.397   3.674  20.286  0.00  0.00    +0.000 A 
ATOM     16  F   UNL     1       0.723   2.840  21.117  0.00  0.00    +0.000 F 
ATOM     17  C   UNL     1       2.317   4.584  20.809  0.00  0.00    +0.000 A 
ATOM     18  C   UNL     1       3.017   5.441  19.954  0.00  0.00    +0.000 A 
ENDBRANCH  11  12
ENDBRANCH   9  11
ENDBRANCH   8   9
ENDBRANCH   7   8
ENDBRANCH   1   7
BRANCH   4  19
ATOM     19  C   UNL     1      -0.826  12.130  21.690  0.00  0.00    +0.000 C 
BRANCH  19  20
ATOM     20  C   UNL     1      -1.392  11.898  23.099  0.00  0.00    +0.000 C 
BRANCH  20  21
ATOM     21  C   UNL     1      -2.785  12.548  23.260  0.00  0.00    +0.000 C 
ATOM     22  C   UNL     1      -3.577  12.669  21.937  0.00  0.00    +0.000 C 
ATOM     23  C   UNL     1      -5.006  13.194  22.194  0.00  0.00    +0.000 C 
ATOM     24  C   UNL     1      -4.984  14.401  23.086  0.00  0.00    +0.000 A 
ATOM     25  S   UNL     1      -6.225  15.505  23.315  0.00  0.00    +0.000 S 
ATOM     26  C   UNL     1      -5.361  16.499  24.373  0.00  0.00    +0.000 A 
ATOM     27  C   UNL     1      -4.095  15.958  24.572  0.00  0.00    +0.000 A 
ATOM     28  C   UNL     1      -3.896  14.771  23.861  0.00  0.00    +0.000 A 
ATOM     29  C   UNL     1      -2.687  13.934  23.881  0.00  0.00    +0.000 C 
ATOM     30  O   UNL     1      -1.651  14.347  24.386  0.00  0.00    +0.000 OA
ENDBRANCH  20  21
ENDBRANCH  19  20
ENDBRANCH   4  19
TORSDOF 8
ENDMDL
