MODEL 1
REMARK VINA RESULT:      -7.5      0.000      0.000
REMARK  Name = 
REMARK  4 active torsions:
REMARK  status: ('A' for Active; 'I' for Inactive)
REMARK    1  A    between atoms: C_1  and  C_2
REMARK    2  A    between atoms: C_2  and  C_3
REMARK    3  A    between atoms: C_2  and  N_12
REMARK    4  A    between atoms: N_12  and  O_13
REMARK                            x       y       z     vdW  Elec       q    Type
REMARK                         _______ _______ _______ _____ _____    ______ ____
ROOT
ATOM      1  N   UNL     1       5.140   4.546  19.146  0.00  0.00    +0.000 N 
ATOM      2  C   UNL     1       3.871   4.882  19.578  0.00  0.00    +0.000 C 
ATOM      3  O   UNL     1       3.379   5.995  19.401  0.00  0.00    +0.000 OA
ATOM      4  N   UNL     1       3.223   3.849  20.223  0.00  0.00    +0.000 N 
ATOM      5  C   UNL     1       1.982   3.833  20.788  0.00  0.00    +0.000 C 
ATOM      6  N   UNL     1       1.215   4.929  20.608  0.00  0.00    +0.000 N 
ATOM      7  O   UNL     1       1.577   2.869  21.430  0.00  0.00    +0.000 OA
ATOM      8  H   UNL     1       3.769   3.008  20.331  0.00  0.00    +0.000 HD
ATOM      9  H   UNL     1       1.603   5.755  20.162  0.00  0.00    +0.000 HD
ATOM     10  H   UNL     1       0.310   4.976  21.051  0.00  0.00    +0.000 HD
ENDROOT
BRANCH   1  12
ATOM     11  C   UNL     1       7.362   5.662  18.985  0.00  0.00    +0.000 C 
ATOM     12  C   UNL     1       5.976   5.475  18.358  0.00  0.00    +0.000 C 
BRANCH  12  13
ATOM     13  C   UNL     1       6.062   5.121  16.891  0.00  0.00    +0.000 A 
ATOM     14  C   UNL     1       7.056   5.499  16.008  0.00  0.00    +0.000 A 
ATOM     15  C   UNL     1       6.897   4.949  14.695  0.00  0.00    +0.000 A 
ATOM     16  C   UNL     1       7.708   5.079  13.544  0.00  0.00    +0.000 A 
ATOM     17  C   UNL     1       7.349   4.444  12.351  0.00  0.00    +0.000 A 
ATOM     18  C   UNL     1       6.188   3.686  12.284  0.00  0.00    +0.000 A 
ATOM     19  C   UNL     1       5.369   3.539  13.406  0.00  0.00    +0.000 A 
ATOM     20  C   UNL     1       5.742   4.171  14.609  0.00  0.00    +0.000 A 
ATOM     21  S   UNL     1       4.917   4.108  16.117  0.00  0.00    +0.000 S 
ENDBRANCH  12  13
ENDBRANCH   1  12
BRANCH   1  22
ATOM     22  O   UNL     1       5.541   3.200  19.300  0.00  0.00    +0.000 OA
ATOM     23  H   UNL     1       4.749   2.696  19.031  0.00  0.00    +0.000 HD
ENDBRANCH   1  22
TORSDOF 3
ENDMDL
MODEL 2
REMARK VINA RESULT:      -7.5      3.363      6.545
REMARK  Name = 
REMARK  4 active torsions:
REMARK  status: ('A' for Active; 'I' for Inactive)
REMARK    1  A    between atoms: C_1  and  C_2
REMARK    2  A    between atoms: C_2  and  C_3
REMARK    3  A    between atoms: C_2  and  N_12
REMARK    4  A    between atoms: N_12  and  O_13
REMARK                            x       y       z     vdW  Elec       q    Type
REMARK                         _______ _______ _______ _____ _____    ______ ____
ROOT
ATOM      1  N   UNL     1       5.450   6.065  16.303  0.00  0.00    +0.000 N 
ATOM      2  C   UNL     1       6.417   6.353  17.247  0.00  0.00    +0.000 C 
ATOM      3  O   UNL     1       6.768   5.551  18.110  0.00  0.00    +0.000 OA
ATOM      4  N   UNL     1       6.940   7.623  17.122  0.00  0.00    +0.000 N 
ATOM      5  C   UNL     1       7.886   8.243  17.884  0.00  0.00    +0.000 C 
ATOM      6  N   UNL     1       8.495   7.494  18.828  0.00  0.00    +0.000 N 
ATOM      7  O   UNL     1       8.175   9.424  17.722  0.00  0.00    +0.000 OA
ATOM      8  H   UNL     1       6.522   8.184  16.394  0.00  0.00    +0.000 HD
ATOM      9  H   UNL     1       8.172   6.550  19.016  0.00  0.00    +0.000 HD
ATOM     10  H   UNL     1       9.165   7.928  19.445  0.00  0.00    +0.000 HD
ENDROOT
BRANCH   1  12
ATOM     11  C   UNL     1       5.839   3.652  15.817  0.00  0.00    +0.000 C 
ATOM     12  C   UNL     1       4.821   4.731  16.202  0.00  0.00    +0.000 C 
BRANCH  12  13
ATOM     13  C   UNL     1       4.019   4.343  17.423  0.00  0.00    +0.000 A 
ATOM     14  C   UNL     1       4.340   3.362  18.342  0.00  0.00    +0.000 A 
ATOM     15  C   UNL     1       3.416   3.274  19.433  0.00  0.00    +0.000 A 
ATOM     16  C   UNL     1       3.417   2.429  20.568  0.00  0.00    +0.000 A 
ATOM     17  C   UNL     1       2.394   2.520  21.517  0.00  0.00    +0.000 A 
ATOM     18  C   UNL     1       1.363   3.434  21.350  0.00  0.00    +0.000 A 
ATOM     19  C   UNL     1       1.338   4.281  20.240  0.00  0.00    +0.000 A 
ATOM     20  C   UNL     1       2.377   4.195  19.293  0.00  0.00    +0.000 A 
ATOM     21  S   UNL     1       2.575   5.148  17.875  0.00  0.00    +0.000 S 
ENDBRANCH  12  13
ENDBRANCH   1  12
BRANCH   1  22
ATOM     22  O   UNL     1       5.226   7.025  15.292  0.00  0.00    +0.000 OA
ATOM     23  H   UNL     1       6.029   6.963  14.739  0.00  0.00    +0.000 HD
ENDBRANCH   1  22
TORSDOF 3
ENDMDL
MODEL 3
REMARK VINA RESULT:      -7.4      3.319      6.472
REMARK  Name = 
REMARK  4 active torsions:
REMARK  status: ('A' for Active; 'I' for Inactive)
REMARK    1  A    between atoms: C_1  and  C_2
REMARK    2  A    between atoms: C_2  and  C_3
REMARK    3  A    between atoms: C_2  and  N_12
REMARK    4  A    between atoms: N_12  and  O_13
REMARK                            x       y       z     vdW  Elec       q    Type
REMARK                         _______ _______ _______ _____ _____    ______ ____
ROOT
ATOM      1  N   UNL     1       5.496   6.046  16.156  0.00  0.00    +0.000 N 
ATOM      2  C   UNL     1       6.438   6.300  17.134  0.00  0.00    +0.000 C 
ATOM      3  O   UNL     1       6.762   5.467  17.980  0.00  0.00    +0.000 OA
ATOM      4  N   UNL     1       6.969   7.570  17.066  0.00  0.00    +0.000 N 
ATOM      5  C   UNL     1       7.897   8.160  17.873  0.00  0.00    +0.000 C 
ATOM      6  N   UNL     1       8.476   7.378  18.809  0.00  0.00    +0.000 N 
ATOM      7  O   UNL     1       8.195   9.344  17.757  0.00  0.00    +0.000 OA
ATOM      8  H   UNL     1       6.575   8.156  16.345  0.00  0.00    +0.000 HD
ATOM      9  H   UNL     1       8.145   6.430  18.957  0.00  0.00    +0.000 HD
ATOM     10  H   UNL     1       9.131   7.788  19.458  0.00  0.00    +0.000 HD
ENDROOT
BRANCH   1  12
ATOM     11  C   UNL     1       5.891   3.647  15.613  0.00  0.00    +0.000 C 
ATOM     12  C   UNL     1       4.865   4.720  15.994  0.00  0.00    +0.000 C 
BRANCH  12  13
ATOM     13  C   UNL     1       4.020   4.300  17.174  0.00  0.00    +0.000 A 
ATOM     14  C   UNL     1       3.219   5.119  17.949  0.00  0.00    +0.000 A 
ATOM     15  C   UNL     1       2.485   4.415  18.957  0.00  0.00    +0.000 A 
ATOM     16  C   UNL     1       1.555   4.890  19.912  0.00  0.00    +0.000 A 
ATOM     17  C   UNL     1       0.954   4.006  20.813  0.00  0.00    +0.000 A 
ATOM     18  C   UNL     1       1.270   2.655  20.785  0.00  0.00    +0.000 A 
ATOM     19  C   UNL     1       2.183   2.158  19.852  0.00  0.00    +0.000 A 
ATOM     20  C   UNL     1       2.777   3.051  18.938  0.00  0.00    +0.000 A 
ATOM     21  S   UNL     1       3.896   2.669  17.688  0.00  0.00    +0.000 S 
ENDBRANCH  12  13
ENDBRANCH   1  12
BRANCH   1  22
ATOM     22  O   UNL     1       5.304   7.040  15.171  0.00  0.00    +0.000 OA
ATOM     23  H   UNL     1       4.510   7.516  15.482  0.00  0.00    +0.000 HD
ENDBRANCH   1  22
TORSDOF 3
ENDMDL
MODEL 4
REMARK VINA RESULT:      -7.4      3.883      6.714
REMARK  Name = 
REMARK  4 active torsions:
REMARK  status: ('A' for Active; 'I' for Inactive)
REMARK    1  A    between atoms: C_1  and  C_2
REMARK    2  A    between atoms: C_2  and  C_3
REMARK    3  A    between atoms: C_2  and  N_12
REMARK    4  A    between atoms: N_12  and  O_13
REMARK                            x       y       z     vdW  Elec       q    Type
REMARK                         _______ _______ _______ _____ _____    ______ ____
ROOT
ATOM      1  N   UNL     1       7.575   6.466  18.350  0.00  0.00    +0.000 N 
ATOM      2  C   UNL     1       7.809   7.781  17.996  0.00  0.00    +0.000 C 
ATOM      3  O   UNL     1       7.368   8.283  16.963  0.00  0.00    +0.000 OA
ATOM      4  N   UNL     1       8.583   8.463  18.911  0.00  0.00    +0.000 N 
ATOM      5  C   UNL     1       9.020   9.755  18.875  0.00  0.00    +0.000 C 
ATOM      6  N   UNL     1       8.552  10.529  17.872  0.00  0.00    +0.000 N 
ATOM      7  O   UNL     1       9.800  10.197  19.712  0.00  0.00    +0.000 OA
ATOM      8  H   UNL     1       8.908   7.908  19.688  0.00  0.00    +0.000 HD
ATOM      9  H   UNL     1       7.990  10.120  17.132  0.00  0.00    +0.000 HD
ATOM     10  H   UNL     1       8.890  11.475  17.781  0.00  0.00    +0.000 HD
ENDROOT
BRANCH   1  12
ATOM     11  C   UNL     1       7.474   4.392  16.973  0.00  0.00    +0.000 C 
ATOM     12  C   UNL     1       6.699   5.579  17.555  0.00  0.00    +0.000 C 
BRANCH  12  13
ATOM     13  C   UNL     1       5.454   5.138  18.288  0.00  0.00    +0.000 A 
ATOM     14  C   UNL     1       5.244   3.913  18.893  0.00  0.00    +0.000 A 
ATOM     15  C   UNL     1       3.985   3.816  19.570  0.00  0.00    +0.000 A 
ATOM     16  C   UNL     1       3.427   2.752  20.317  0.00  0.00    +0.000 A 
ATOM     17  C   UNL     1       2.160   2.883  20.895  0.00  0.00    +0.000 A 
ATOM     18  C   UNL     1       1.435   4.055  20.733  0.00  0.00    +0.000 A 
ATOM     19  C   UNL     1       1.962   5.122  20.002  0.00  0.00    +0.000 A 
ATOM     20  C   UNL     1       3.244   4.990  19.432  0.00  0.00    +0.000 A 
ATOM     21  S   UNL     1       4.106   6.170  18.524  0.00  0.00    +0.000 S 
ENDBRANCH  12  13
ENDBRANCH   1  12
BRANCH   1  22
ATOM     22  O   UNL     1       8.032   6.047  19.619  0.00  0.00    +0.000 OA
ATOM     23  H   UNL     1       8.929   5.706  19.435  0.00  0.00    +0.000 HD
ENDBRANCH   1  22
TORSDOF 3
ENDMDL
MODEL 5
REMARK VINA RESULT:      -7.2      0.819      1.425
REMARK  Name = 
REMARK  4 active torsions:
REMARK  status: ('A' for Active; 'I' for Inactive)
REMARK    1  A    between atoms: C_1  and  C_2
REMARK    2  A    between atoms: C_2  and  C_3
REMARK    3  A    between atoms: C_2  and  N_12
REMARK    4  A    between atoms: N_12  and  O_13
REMARK                            x       y       z     vdW  Elec       q    Type
REMARK                         _______ _______ _______ _____ _____    ______ ____
ROOT
ATOM      1  N   UNL     1       4.932   4.337  19.115  0.00  0.00    +0.000 N 
ATOM      2  C   UNL     1       3.648   4.604  19.549  0.00  0.00    +0.000 C 
ATOM      3  O   UNL     1       3.123   5.711  19.440  0.00  0.00    +0.000 OA
ATOM      4  N   UNL     1       3.024   3.511  20.112  0.00  0.00    +0.000 N 
ATOM      5  C   UNL     1       1.777   3.418  20.656  0.00  0.00    +0.000 C 
ATOM      6  N   UNL     1       0.978   4.500  20.538  0.00  0.00    +0.000 N 
ATOM      7  O   UNL     1       1.393   2.401  21.225  0.00  0.00    +0.000 OA
ATOM      8  H   UNL     1       3.595   2.681  20.172  0.00  0.00    +0.000 HD
ATOM      9  H   UNL     1       1.345   5.366  20.156  0.00  0.00    +0.000 HD
ATOM     10  H   UNL     1       0.066   4.489  20.970  0.00  0.00    +0.000 HD
ENDROOT
BRANCH   1  12
ATOM     11  C   UNL     1       7.048   5.653  19.156  0.00  0.00    +0.000 C 
ATOM     12  C   UNL     1       5.749   5.343  18.404  0.00  0.00    +0.000 C 
BRANCH  12  13
ATOM     13  C   UNL     1       6.003   5.005  16.953  0.00  0.00    +0.000 A 
ATOM     14  C   UNL     1       5.163   4.303  16.110  0.00  0.00    +0.000 A 
ATOM     15  C   UNL     1       5.651   4.202  14.767  0.00  0.00    +0.000 A 
ATOM     16  C   UNL     1       5.074   3.595  13.627  0.00  0.00    +0.000 A 
ATOM     17  C   UNL     1       5.744   3.617  12.400  0.00  0.00    +0.000 A 
ATOM     18  C   UNL     1       6.986   4.228  12.291  0.00  0.00    +0.000 A 
ATOM     19  C   UNL     1       7.578   4.836  13.400  0.00  0.00    +0.000 A 
ATOM     20  C   UNL     1       6.893   4.822  14.632  0.00  0.00    +0.000 A 
ATOM     21  S   UNL     1       7.404   5.528  16.115  0.00  0.00    +0.000 S 
ENDBRANCH  12  13
ENDBRANCH   1  12
BRANCH   1  22
ATOM     22  O   UNL     1       5.373   2.997  19.184  0.00  0.00    +0.000 OA
ATOM     23  H   UNL     1       4.642   2.497  18.772  0.00  0.00    +0.000 HD
ENDBRANCH   1  22
TORSDOF 3
ENDMDL
MODEL 6
REMARK VINA RESULT:      -7.2      3.357      6.995
REMARK  Name = 
REMARK  4 active torsions:
REMARK  status: ('A' for Active; 'I' for Inactive)
REMARK    1  A    between atoms: C_1  and  C_2
REMARK    2  A    between atoms: C_2  and  C_3
REMARK    3  A    between atoms: C_2  and  N_12
REMARK    4  A    between atoms: N_12  and  O_13
REMARK                            x       y       z     vdW  Elec       q    Type
REMARK                         _______ _______ _______ _____ _____    ______ ____
ROOT
ATOM      1  N   UNL     1       6.269   4.252  16.274  0.00  0.00    +0.000 N 
ATOM      2  C   UNL     1       7.019   4.954  15.349  0.00  0.00    +0.000 C 
ATOM      3  O   UNL     1       7.661   5.962  15.637  0.00  0.00    +0.000 OA
ATOM      4  N   UNL     1       6.969   4.412  14.082  0.00  0.00    +0.000 N 
ATOM      5  C   UNL     1       7.565   4.849  12.936  0.00  0.00    +0.000 C 
ATOM      6  N   UNL     1       8.418   5.889  13.050  0.00  0.00    +0.000 N 
ATOM      7  O   UNL     1       7.340   4.324  11.849  0.00  0.00    +0.000 OA
ATOM      8  H   UNL     1       6.365   3.609  13.987  0.00  0.00    +0.000 HD
ATOM      9  H   UNL     1       8.514   6.374  13.936  0.00  0.00    +0.000 HD
ATOM     10  H   UNL     1       8.841   6.273  12.219  0.00  0.00    +0.000 HD
ENDROOT
BRANCH   1  12
ATOM     11  C   UNL     1       6.626   6.079  17.930  0.00  0.00    +0.000 C 
ATOM     12  C   UNL     1       6.250   4.610  17.708  0.00  0.00    +0.000 C 
BRANCH  12  13
ATOM     13  C   UNL     1       4.964   4.243  18.410  0.00  0.00    +0.000 A 
ATOM     14  C   UNL     1       4.832   3.432  19.521  0.00  0.00    +0.000 A 
ATOM     15  C   UNL     1       3.486   3.327  19.999  0.00  0.00    +0.000 A 
ATOM     16  C   UNL     1       2.961   2.625  21.109  0.00  0.00    +0.000 A 
ATOM     17  C   UNL     1       1.591   2.664  21.386  0.00  0.00    +0.000 A 
ATOM     18  C   UNL     1       0.732   3.387  20.570  0.00  0.00    +0.000 A 
ATOM     19  C   UNL     1       1.223   4.091  19.468  0.00  0.00    +0.000 A 
ATOM     20  C   UNL     1       2.606   4.058  19.200  0.00  0.00    +0.000 A 
ATOM     21  S   UNL     1       3.440   4.865  17.930  0.00  0.00    +0.000 S 
ENDBRANCH  12  13
ENDBRANCH   1  12
BRANCH   1  22
ATOM     22  O   UNL     1       5.678   3.043  15.844  0.00  0.00    +0.000 OA
ATOM     23  H   UNL     1       5.828   2.439  16.597  0.00  0.00    +0.000 HD
ENDBRANCH   1  22
TORSDOF 3
ENDMDL
MODEL 7
REMARK VINA RESULT:      -7.2      3.472      6.457
REMARK  Name = 
REMARK  4 active torsions:
REMARK  status: ('A' for Active; 'I' for Inactive)
REMARK    1  A    between atoms: C_1  and  C_2
REMARK    2  A    between atoms: C_2  and  C_3
REMARK    3  A    between atoms: C_2  and  N_12
REMARK    4  A    between atoms: N_12  and  O_13
REMARK                            x       y       z     vdW  Elec       q    Type
REMARK                         _______ _______ _______ _____ _____    ______ ____
ROOT
ATOM      1  N   UNL     1       7.165   5.229  16.573  0.00  0.00    +0.000 N 
ATOM      2  C   UNL     1       6.874   4.462  15.461  0.00  0.00    +0.000 C 
ATOM      3  O   UNL     1       6.358   3.349  15.534  0.00  0.00    +0.000 OA
ATOM      4  N   UNL     1       7.223   5.069  14.272  0.00  0.00    +0.000 N 
ATOM      5  C   UNL     1       7.099   4.600  12.998  0.00  0.00    +0.000 C 
ATOM      6  N   UNL     1       6.445   3.429  12.840  0.00  0.00    +0.000 N 
ATOM      7  O   UNL     1       7.557   5.210  12.037  0.00  0.00    +0.000 OA
ATOM      8  H   UNL     1       7.678   5.965  14.371  0.00  0.00    +0.000 HD
ATOM      9  H   UNL     1       6.163   2.890  13.652  0.00  0.00    +0.000 HD
ATOM     10  H   UNL     1       6.376   3.024  11.919  0.00  0.00    +0.000 HD
ENDROOT
BRANCH   1  12
ATOM     11  C   UNL     1       7.186   5.859  18.983  0.00  0.00    +0.000 C 
ATOM     12  C   UNL     1       6.797   4.806  17.940  0.00  0.00    +0.000 C 
BRANCH  12  13
ATOM     13  C   UNL     1       5.354   4.381  18.077  0.00  0.00    +0.000 A 
ATOM     14  C   UNL     1       4.884   3.253  18.724  0.00  0.00    +0.000 A 
ATOM     15  C   UNL     1       3.454   3.157  18.744  0.00  0.00    +0.000 A 
ATOM     16  C   UNL     1       2.611   2.181  19.324  0.00  0.00    +0.000 A 
ATOM     17  C   UNL     1       1.221   2.293  19.214  0.00  0.00    +0.000 A 
ATOM     18  C   UNL     1       0.657   3.359  18.527  0.00  0.00    +0.000 A 
ATOM     19  C   UNL     1       1.466   4.338  17.947  0.00  0.00    +0.000 A 
ATOM     20  C   UNL     1       2.865   4.228  18.071  0.00  0.00    +0.000 A 
ATOM     21  S   UNL     1       4.053   5.319  17.472  0.00  0.00    +0.000 S 
ENDBRANCH  12  13
ENDBRANCH   1  12
BRANCH   1  22
ATOM     22  O   UNL     1       7.642   6.539  16.348  0.00  0.00    +0.000 OA
ATOM     23  H   UNL     1       7.221   6.792  15.504  0.00  0.00    +0.000 HD
ENDBRANCH   1  22
TORSDOF 3
ENDMDL
MODEL 8
REMARK VINA RESULT:      -7.1      3.868      6.693
REMARK  Name = 
REMARK  4 active torsions:
REMARK  status: ('A' for Active; 'I' for Inactive)
REMARK    1  A    between atoms: C_1  and  C_2
REMARK    2  A    between atoms: C_2  and  C_3
REMARK    3  A    between atoms: C_2  and  N_12
REMARK    4  A    between atoms: N_12  and  O_13
REMARK                            x       y       z     vdW  Elec       q    Type
REMARK                         _______ _______ _______ _____ _____    ______ ____
ROOT
ATOM      1  N   UNL     1       7.598   6.532  18.372  0.00  0.00    +0.000 N 
ATOM      2  C   UNL     1       7.845   7.846  18.025  0.00  0.00    +0.000 C 
ATOM      3  O   UNL     1       7.404   8.360  16.998  0.00  0.00    +0.000 OA
ATOM      4  N   UNL     1       8.633   8.513  18.939  0.00  0.00    +0.000 N 
ATOM      5  C   UNL     1       9.085   9.800  18.908  0.00  0.00    +0.000 C 
ATOM      6  N   UNL     1       8.621  10.586  17.914  0.00  0.00    +0.000 N 
ATOM      7  O   UNL     1       9.876  10.227  19.743  0.00  0.00    +0.000 OA
ATOM      8  H   UNL     1       8.957   7.949  19.711  0.00  0.00    +0.000 HD
ATOM      9  H   UNL     1       8.049  10.189  17.175  0.00  0.00    +0.000 HD
ATOM     10  H   UNL     1       8.969  11.528  17.827  0.00  0.00    +0.000 HD
ENDROOT
BRANCH   1  12
ATOM     11  C   UNL     1       7.465   4.473  16.975  0.00  0.00    +0.000 C 
ATOM     12  C   UNL     1       6.707   5.661  17.577  0.00  0.00    +0.000 C 
BRANCH  12  13
ATOM     13  C   UNL     1       5.465   5.223  18.318  0.00  0.00    +0.000 A 
ATOM     14  C   UNL     1       4.510   6.045  18.886  0.00  0.00    +0.000 A 
ATOM     15  C   UNL     1       3.409   5.332  19.461  0.00  0.00    +0.000 A 
ATOM     16  C   UNL     1       2.241   5.812  20.100  0.00  0.00    +0.000 A 
ATOM     17  C   UNL     1       1.288   4.916  20.595  0.00  0.00    +0.000 A 
ATOM     18  C   UNL     1       1.482   3.548  20.471  0.00  0.00    +0.000 A 
ATOM     19  C   UNL     1       2.625   3.046  19.843  0.00  0.00    +0.000 A 
ATOM     20  C   UNL     1       3.577   3.953  19.336  0.00  0.00    +0.000 A 
ATOM     21  S   UNL     1       5.033   3.574  18.502  0.00  0.00    +0.000 S 
ENDBRANCH  12  13
ENDBRANCH   1  12
BRANCH   1  22
ATOM     22  O   UNL     1       8.058   6.099  19.635  0.00  0.00    +0.000 OA
ATOM     23  H   UNL     1       8.611   6.843  19.941  0.00  0.00    +0.000 HD
ENDBRANCH   1  22
TORSDOF 3
ENDMDL
MODEL 9
REMARK VINA RESULT:      -7.1      3.906      6.887
REMARK  Name = 
REMARK  4 active torsions:
REMARK  status: ('A' for Active; 'I' for Inactive)
REMARK    1  A    between atoms: C_1  and  C_2
REMARK    2  A    between atoms: C_2  and  C_3
REMARK    3  A    between atoms: C_2  and  N_12
REMARK    4  A    between atoms: N_12  and  O_13
REMARK                            x       y       z     vdW  Elec       q    Type
REMARK                         _______ _______ _______ _____ _____    ______ ____
ROOT
ATOM      1  N   UNL     1       4.132   4.536  18.473  0.00  0.00    +0.000 N 
ATOM      2  C   UNL     1       5.129   4.709  17.532  0.00  0.00    +0.000 C 
ATOM      3  O   UNL     1       4.905   5.093  16.385  0.00  0.00    +0.000 OA
ATOM      4  N   UNL     1       6.388   4.407  18.008  0.00  0.00    +0.000 N 
ATOM      5  C   UNL     1       7.585   4.446  17.357  0.00  0.00    +0.000 C 
ATOM      6  N   UNL     1       7.584   4.954  16.106  0.00  0.00    +0.000 N 
ATOM      7  O   UNL     1       8.619   4.039  17.879  0.00  0.00    +0.000 OA
ATOM      8  H   UNL     1       6.411   4.062  18.956  0.00  0.00    +0.000 HD
ATOM      9  H   UNL     1       6.706   5.190  15.653  0.00  0.00    +0.000 HD
ATOM     10  H   UNL     1       8.440   4.954  15.573  0.00  0.00    +0.000 HD
ENDROOT
BRANCH   1  12
ATOM     11  C   UNL     1       1.762   3.814  18.733  0.00  0.00    +0.000 C 
ATOM     12  C   UNL     1       2.722   4.884  18.201  0.00  0.00    +0.000 C 
BRANCH  12  13
ATOM     13  C   UNL     1       2.337   6.269  18.663  0.00  0.00    +0.000 A 
ATOM     14  C   UNL     1       2.298   7.415  17.891  0.00  0.00    +0.000 A 
ATOM     15  C   UNL     1       1.826   8.568  18.599  0.00  0.00    +0.000 A 
ATOM     16  C   UNL     1       1.621   9.895  18.154  0.00  0.00    +0.000 A 
ATOM     17  C   UNL     1       1.148  10.871  19.037  0.00  0.00    +0.000 A 
ATOM     18  C   UNL     1       0.882  10.549  20.360  0.00  0.00    +0.000 A 
ATOM     19  C   UNL     1       1.073   9.245  20.826  0.00  0.00    +0.000 A 
ATOM     20  C   UNL     1       1.539   8.263  19.930  0.00  0.00    +0.000 A 
ATOM     21  S   UNL     1       1.817   6.598  20.263  0.00  0.00    +0.000 S 
ENDBRANCH  12  13
ENDBRANCH   1  12
BRANCH   1  22
ATOM     22  O   UNL     1       4.533   4.210  19.787  0.00  0.00    +0.000 OA
ATOM     23  H   UNL     1       4.806   3.275  19.715  0.00  0.00    +0.000 HD
ENDBRANCH   1  22
TORSDOF 3
ENDMDL
